data_I
_chemical_name_common  '/Users/gianmarcoterrones/Research/MOFs/MOF_structures/water_stability_work_extra_structs/cleaned_from_CCDC/ARUHUS'
_cell_length_a 48.84200
_cell_length_b 48.84200
_cell_length_c 48.84200
_cell_angle_alpha 90.00000
_cell_angle_beta  90.00000
_cell_angle_gamma 90.00000
_space_group_name_H-M_alt      'P 1'


loop_
_space_group_symop_operation_xyz
  'x, y, z' 

loop_
_atom_site_label
_atom_site_fract_x
_atom_site_fract_y
_atom_site_fract_z
_atom_site_type_symbol
O          0.0  0.04312  0.02279     O
O          0.0  0.04312  0.97721     O
C          0.0   0.0537    0.076     C
C          0.0   0.0537    0.924     C
C          0.0   0.0646   0.1038     C
C          0.0   0.0646   0.8962     C
C          0.0   0.0912   0.1588     C
C          0.0   0.0912   0.8412     C
C          0.0   0.1014   0.1855     C
C          0.0   0.1014   0.8145     C
C          0.0   0.1102   0.2042     C
C          0.0   0.1102   0.7958     C
C          0.0   0.1226     0.23     C
C          0.0   0.1226     0.77     C
C          0.0  0.14485   0.2852     C
C          0.0  0.14485   0.7148     C
C          0.0  0.15655  0.31256     C
C          0.0  0.15655  0.68744     C
C          0.0   0.1877   0.3096     C
C          0.0   0.1877   0.6904     C
C          0.0   0.2442   0.2957     C
C          0.0   0.2442   0.7043     C
C          0.0   0.2736   0.2897     C
C          0.0   0.2736   0.7103     C
C          0.0   0.2966   0.2842     C
C          0.0   0.2966   0.7158     C
C          0.0   0.3233   0.2751     C
C          0.0   0.3233   0.7249     C
C          0.0   0.3799   0.2621     C
C          0.0   0.3799   0.7379     C
C          0.0  0.40954  0.25494     C
C          0.0  0.40954  0.74506     C
O          0.0  0.45954  0.22192     O
O          0.0  0.45954  0.77808     O
O          0.0  0.46897   0.2717     O
O          0.0  0.46897   0.7283     O
Zr         0.0      0.5  0.19952    Zr
Zr         0.0      0.5  0.30048    Zr
Zr         0.0      0.5  0.69952    Zr
Zr         0.0      0.5  0.80048    Zr
O          0.0  0.53103   0.2717     O
O          0.0  0.53103   0.7283     O
O          0.0  0.54046  0.22192     O
O          0.0  0.54046  0.77808     O
C          0.0  0.59046  0.25494     C
C          0.0  0.59046  0.74506     C
C          0.0   0.6201   0.2621     C
C          0.0   0.6201   0.7379     C
C          0.0   0.6767   0.2751     C
C          0.0   0.6767   0.7249     C
C          0.0   0.7034   0.2842     C
C          0.0   0.7034   0.7158     C
C          0.0   0.7264   0.2897     C
C          0.0   0.7264   0.7103     C
C          0.0   0.7558   0.2957     C
C          0.0   0.7558   0.7043     C
C          0.0   0.8123   0.3096     C
C          0.0   0.8123   0.6904     C
C          0.0  0.84345  0.31256     C
C          0.0  0.84345  0.68744     C
C          0.0  0.85515   0.2852     C
C          0.0  0.85515   0.7148     C
C          0.0   0.8774     0.23     C
C          0.0   0.8774     0.77     C
C          0.0   0.8898   0.2042     C
C          0.0   0.8898   0.7958     C
C          0.0   0.8986   0.1855     C
C          0.0   0.8986   0.8145     C
C          0.0   0.9088   0.1588     C
C          0.0   0.9088   0.8412     C
C          0.0   0.9354   0.1038     C
C          0.0   0.9354   0.8962     C
C          0.0   0.9463    0.076     C
C          0.0   0.9463    0.924     C
O          0.0  0.95688  0.02279     O
O          0.0  0.95688  0.97721     O
O       0.0209   0.0432   0.0682     O
O       0.0209   0.0432   0.9318     O
O       0.0209   0.9568   0.0682     O
O       0.0209   0.9568   0.9318     O
C       0.0221    0.083   0.1444     C
C       0.0221    0.083   0.8556     C
C       0.0221    0.917   0.1444     C
C       0.0221    0.917   0.8556     C
C       0.0223    0.073   0.1179     C
C       0.0223    0.073   0.8821     C
C       0.0223    0.927   0.1179     C
C       0.0223    0.927   0.8821     C
C       0.0225   0.1404   0.2701     C
C       0.0225   0.1404   0.7299     C
C       0.0225   0.8596   0.2701     C
C       0.0225   0.8596   0.7299     C
C       0.0227    0.132   0.2436     C
C       0.0227    0.132   0.7564     C
C       0.0227    0.868   0.2436     C
C       0.0227    0.868   0.7564     C
O      0.02279      0.0  0.04312     O
O      0.02279      0.0  0.95688     O
C       0.0235  0.20214   0.3062     C
C       0.0235  0.20214   0.6938     C
C       0.0235  0.79786   0.3062     C
C       0.0235  0.79786   0.6938     C
C       0.0238   0.2298   0.2995     C
C       0.0238   0.2298   0.7005     C
C       0.0238   0.7702   0.2995     C
C       0.0238   0.7702   0.7005     C
O      0.02383  0.42056  0.25233     O
O      0.02383  0.42056  0.74767     O
O      0.02383  0.57944  0.25233     O
O      0.02383  0.57944  0.74767     O
C      0.02441  0.33786   0.2736     C
C      0.02441  0.33786   0.7264     C
C      0.02441  0.66214   0.2736     C
C      0.02441  0.66214   0.7264     C
C      0.02446  0.36533   0.2661     C
C      0.02446  0.36533   0.7339     C
C      0.02446  0.63467   0.2661     C
C      0.02446  0.63467   0.7339     C
C      0.02502  0.14719  0.32986     C
C      0.02502  0.14719  0.67014     C
C      0.02502  0.85281  0.32986     C
C      0.02502  0.85281  0.67014     C
Zr     0.02776  0.02776  0.02776    Zr
Zr     0.02776  0.02776  0.97224    Zr
O      0.02776  0.47118  0.32316     O
O      0.02776  0.47118  0.67684     O
O      0.02776  0.52882  0.32316     O
O      0.02776  0.52882  0.67684     O
Zr     0.02776  0.97224  0.02776    Zr
Zr     0.02776  0.97224  0.97224    Zr
H        0.028   0.1109   0.3101     H
H        0.028   0.1109   0.6899     H
H        0.028   0.8891   0.3101     H
H        0.028   0.8891   0.6899     H
O      0.02882  0.47224  0.17684     O
O      0.02882  0.47224  0.82316     O
O      0.02882  0.52776  0.17684     O
O      0.02882  0.52776  0.82316     O
H       0.0289   0.1799   0.3549     H
H       0.0289   0.1799   0.6451     H
H       0.0289   0.8201   0.3549     H
H       0.0289   0.8201   0.6451     H
O      0.03103      0.5   0.2283     O
O      0.03103      0.5   0.7717     O
C      0.03518  0.12115  0.32452     C
C      0.03518  0.12115  0.67548     C
C      0.03518  0.87885  0.32452     C
C      0.03518  0.87885  0.67548     C
C      0.03571  0.16251  0.35134     C
C      0.03571  0.16251  0.64866     C
C      0.03571  0.83749  0.35134     C
C      0.03571  0.83749  0.64866     C
Zr    0.035731 0.464269     0.25    Zr
Zr    0.035731 0.464269     0.75    Zr
Zr    0.035731 0.535731     0.25    Zr
Zr    0.035731 0.535731     0.75    Zr
H        0.039   0.0842   0.1531     H
H        0.039   0.0842   0.8469     H
H        0.039   0.9158   0.1531     H
H        0.039   0.9158   0.8469     H
H       0.0391    0.072    0.109     H
H       0.0391    0.072    0.891     H
H       0.0391    0.928    0.109     H
H       0.0391    0.928    0.891     H
H       0.0392   0.1327   0.2341     H
H       0.0392   0.1327   0.7659     H
H       0.0392   0.8673   0.2341     H
H       0.0392   0.8673   0.7659     H
H       0.0394   0.1432   0.2785     H
H       0.0394   0.1432   0.7215     H
H       0.0394   0.8568   0.2785     H
H       0.0394   0.8568   0.7215     H
H       0.0401   0.1931   0.3083     H
H       0.0401   0.1931   0.6917     H
H       0.0401   0.8069   0.3083     H
H       0.0401   0.8069   0.6917     H
H       0.0404   0.2388   0.2976     H
H       0.0404   0.2388   0.7024     H
H       0.0404   0.7612   0.2976     H
H       0.0404   0.7612   0.7024     H
O      0.04046      0.5  0.27808     O
O      0.04046      0.5  0.72192     O
H       0.0408   0.3291   0.2777     H
H       0.0408   0.3291   0.7223     H
H       0.0408   0.6709   0.2777     H
H       0.0408   0.6709   0.7223     H
H       0.0411   0.3743   0.2638     H
H       0.0411   0.3743   0.7362     H
H       0.0411   0.6257   0.2638     H
H       0.0411   0.6257   0.7362     H
H       0.0418   0.4541   0.1323     H
H       0.0418   0.4541   0.8677     H
H       0.0418   0.5459   0.1323     H
H       0.0418   0.5459   0.8677     H
O      0.04312  0.02279      0.0     O
O      0.04312  0.97721      0.0     O
O       0.0432   0.0682   0.0209     O
O       0.0432   0.0682   0.9791     O
O       0.0432   0.9318   0.0209     O
O       0.0432   0.9318   0.9791     O
C       0.0443   0.4534   0.3148     C
C       0.0443   0.4534   0.6852     C
C       0.0443   0.5466   0.3148     C
C       0.0443   0.5466   0.6852     C
H       0.0459   0.4582   0.3677     H
H       0.0459   0.4582   0.6323     H
H       0.0459   0.5418   0.3677     H
H       0.0459   0.5418   0.6323     H
C       0.0466   0.4557   0.1852     C
C       0.0466   0.4557   0.8148     C
C       0.0466   0.5443   0.1852     C
C       0.0466   0.5443   0.8148     C
O       0.0516  0.44783  0.28932     O
O       0.0516  0.44783  0.71068     O
O       0.0516  0.55217  0.28932     O
O       0.0516  0.55217  0.71068     O
O      0.05217   0.4484  0.21068     O
O      0.05217   0.4484  0.78932     O
O      0.05217   0.5516  0.21068     O
O      0.05217   0.5516  0.78932     O
C       0.0537    0.076      0.0     C
C       0.0537    0.924      0.0     C
C      0.05569  0.44211   0.1374     C
C      0.05569  0.44211   0.8626     C
C      0.05569  0.55789   0.1374     C
C      0.05569  0.55789   0.8626     C
C      0.05603  0.11043  0.34065     C
C      0.05603  0.11043  0.65935     C
C      0.05603  0.88957  0.34065     C
C      0.05603  0.88957  0.65935     C
C      0.05656  0.15178  0.36747     C
C      0.05656  0.15178  0.63253     C
C      0.05656  0.84822  0.36747     C
C      0.05656  0.84822  0.63253     C
C      0.05789  0.44431   0.3626     C
C      0.05789  0.44431   0.6374     C
C      0.05789  0.55569   0.3626     C
C      0.05789  0.55569   0.6374     C
C      0.06115  0.43771  0.33511     C
C      0.06115  0.43771  0.66489     C
C      0.06115  0.56229  0.33511     C
C      0.06115  0.56229  0.66489     C
C      0.06229  0.43885  0.16489     C
C      0.06229  0.43885  0.83511     C
C      0.06229  0.56115  0.16489     C
C      0.06229  0.56115  0.83511     C
H       0.0628    0.093   0.3371     H
H       0.0628    0.093   0.6629     H
H       0.0628    0.907   0.3371     H
H       0.0628    0.907   0.6629     H
H       0.0637    0.162   0.3818     H
H       0.0637    0.162   0.6182     H
H       0.0637    0.838   0.3818     H
H       0.0637    0.838   0.6182     H
C       0.0646   0.1038      0.0     C
C       0.0646   0.8962      0.0     C
H       0.0654   0.4297   0.0991     H
H       0.0654   0.4297   0.9009     H
H       0.0654   0.5703   0.0991     H
H       0.0654   0.5703   0.9009     H
C      0.06672  0.12574  0.36212     C
C      0.06672  0.12574  0.63788     C
C      0.06672  0.87426  0.36212     C
C      0.06672  0.87426  0.63788     C
O       0.0682   0.0209   0.0432     O
O       0.0682   0.0209   0.9568     O
O       0.0682   0.9791   0.0432     O
O       0.0682   0.9791   0.9568     O
C      0.06987  0.42749  0.11752     C
C      0.06987  0.42749  0.88248     C
C      0.06987  0.57251  0.11752     C
C      0.06987  0.57251  0.88248     C
H       0.0703   0.4346   0.4009     H
H       0.0703   0.4346   0.5991     H
H       0.0703   0.5654   0.4009     H
H       0.0703   0.5654   0.5991     H
H        0.072    0.109   0.0391     H
H        0.072    0.109   0.9609     H
H        0.072    0.891   0.0391     H
H        0.072    0.891   0.9609     H
C      0.07251  0.43013  0.38248     C
C      0.07251  0.43013  0.61752     C
C      0.07251  0.56987  0.38248     C
C      0.07251  0.56987  0.61752     C
C        0.073   0.1179   0.0223     C
C        0.073   0.1179   0.9777     C
C        0.073   0.8821   0.0223     C
C        0.073   0.8821   0.9777     C
C        0.076      0.0   0.0537     C
C        0.076      0.0   0.9463     C
C      0.07904  0.41692   0.3275     C
C      0.07904  0.41692   0.6725     C
C      0.07904  0.58308   0.3275     C
C      0.07904  0.58308   0.6725     C
O      0.07944  0.47617  0.24767     O
O      0.07944  0.47617  0.75233     O
O      0.07944  0.52383  0.24767     O
O      0.07944  0.52383  0.75233     O
H       0.0812   0.4125   0.3091     H
H       0.0812   0.4125   0.6909     H
H       0.0812   0.5875   0.3091     H
H       0.0812   0.5875   0.6909     H
C        0.083   0.1444   0.0221     C
C        0.083   0.1444   0.9779     C
C        0.083   0.8556   0.0221     C
C        0.083   0.8556   0.9779     C
C      0.08308  0.42096   0.1725     C
C      0.08308  0.42096   0.8275     C
C      0.08308  0.57904   0.1725     C
C      0.08308  0.57904   0.8275     C
H       0.0842   0.1531    0.039     H
H       0.0842   0.1531    0.961     H
H       0.0842   0.8469    0.039     H
H       0.0842   0.8469    0.961     H
H       0.0875   0.4188   0.1909     H
H       0.0875   0.4188   0.8091     H
H       0.0875   0.5812   0.1909     H
H       0.0875   0.5812   0.8091     H
C       0.0892   0.1161     0.38     C
C       0.0892   0.1161     0.62     C
C       0.0892   0.8839     0.38     C
C       0.0892   0.8839     0.62     C
C       0.0904  0.40935  0.37486     C
C       0.0904  0.40935  0.62514     C
C       0.0904  0.59065  0.37486     C
C       0.0904  0.59065  0.62514     C
C      0.09046      0.5  0.24506     C
C      0.09046      0.5  0.75494     C
C      0.09065   0.4096  0.12514     C
C      0.09065   0.4096  0.87486     C
C      0.09065   0.5904  0.12514     C
C      0.09065   0.5904  0.87486     C
C       0.0912   0.1588      0.0     C
C       0.0912   0.8412      0.0     C
H        0.093   0.3371   0.0628     H
H        0.093   0.3371   0.9372     H
H        0.093   0.6629   0.0628     H
H        0.093   0.6629   0.9372     H
C      0.09366  0.40274  0.34737     C
C      0.09366  0.40274  0.65263     C
C      0.09366  0.59726  0.34737     C
C      0.09366  0.59726  0.65263     C
C      0.09726  0.40634  0.15263     C
C      0.09726  0.40634  0.84737     C
C      0.09726  0.59366  0.15263     C
C      0.09726  0.59366  0.84737     C
H       0.0991   0.0654   0.4297     H
H       0.0991   0.0654   0.5703     H
H       0.0991   0.9346   0.4297     H
H       0.0991   0.9346   0.5703     H
C       0.1014   0.1855      0.0     C
C       0.1014   0.8145      0.0     C
C       0.1038      0.0   0.0646     C
C       0.1038      0.0   0.9354     C
C       0.1047   0.1053   0.3932     C
C       0.1047   0.1053   0.6068     C
C       0.1047   0.8947   0.3932     C
C       0.1047   0.8947   0.6068     C
C       0.1053   0.3932   0.1047     C
C       0.1053   0.3932   0.8953     C
C       0.1053   0.6068   0.1047     C
C       0.1053   0.6068   0.8953     C
H       0.1056   0.3888   0.3423     H
H       0.1056   0.3888   0.6577     H
H       0.1056   0.6112   0.3423     H
H       0.1056   0.6112   0.6577     H
C       0.1068   0.3947   0.3953     C
C       0.1068   0.3947   0.6047     C
C       0.1068   0.6053   0.3953     C
C       0.1068   0.6053   0.6047     C
H        0.109   0.0391    0.072     H
H        0.109   0.0391    0.928     H
H        0.109   0.9609    0.072     H
H        0.109   0.9609    0.928     H
C       0.1102   0.2042      0.0     C
C       0.1102   0.7958      0.0     C
C      0.11043  0.34065  0.05603     C
C      0.11043  0.34065  0.94397     C
C      0.11043  0.65935  0.05603     C
C      0.11043  0.65935  0.94397     C
H       0.1109   0.3101    0.028     H
H       0.1109   0.3101    0.972     H
H       0.1109   0.6899    0.028     H
H       0.1109   0.6899    0.972     H
H       0.1112   0.3944   0.1577     H
H       0.1112   0.3944   0.8423     H
H       0.1112   0.6056   0.1577     H
H       0.1112   0.6056   0.8423     H
C       0.1161     0.38   0.0892     C
C       0.1161     0.38   0.9108     C
C       0.1161     0.62   0.0892     C
C       0.1161     0.62   0.9108     C
C      0.11752  0.06987  0.42749     C
C      0.11752  0.06987  0.57251     C
C      0.11752  0.93013  0.42749     C
C      0.11752  0.93013  0.57251     C
C       0.1179   0.0223    0.073     C
C       0.1179   0.0223    0.927     C
C       0.1179   0.9777    0.073     C
C       0.1179   0.9777    0.927     C
H       0.1182    0.338   0.4363     H
H       0.1182    0.338   0.5637     H
H       0.1182    0.662   0.4363     H
H       0.1182    0.662   0.5637     H
C         0.12   0.3839   0.4108     C
C         0.12   0.3839   0.5892     C
C         0.12   0.6161   0.4108     C
C         0.12   0.6161   0.5892     C
C       0.1201      0.5   0.2379     C
C       0.1201      0.5   0.7621     C
C      0.12115  0.32452  0.03518     C
C      0.12115  0.32452  0.96482     C
C      0.12115  0.67548  0.03518     C
C      0.12115  0.67548  0.96482     C
C       0.1226     0.23      0.0     C
C       0.1226     0.77      0.0     C
C      0.12514  0.09065   0.4096     C
C      0.12514  0.09065   0.5904     C
C      0.12514  0.90935   0.4096     C
C      0.12514  0.90935   0.5904     C
H       0.1257   0.4589   0.2362     H
H       0.1257   0.4589   0.7638     H
H       0.1257   0.5411   0.2362     H
H       0.1257   0.5411   0.7638     H
C      0.12574  0.36212  0.06672     C
C      0.12574  0.36212  0.93328     C
C      0.12574  0.63788  0.06672     C
C      0.12574  0.63788  0.93328     C
C        0.132   0.2436   0.0227     C
C        0.132   0.2436   0.9773     C
C        0.132   0.7564   0.0227     C
C        0.132   0.7564   0.9773     C
H       0.1323   0.0418   0.4541     H
H       0.1323   0.0418   0.5459     H
H       0.1323   0.9582   0.4541     H
H       0.1323   0.9582   0.5459     H
C      0.13253  0.34822  0.44344     C
C      0.13253  0.34822  0.55656     C
C      0.13253  0.65178  0.44344     C
C      0.13253  0.65178  0.55656     C
H       0.1327   0.2341   0.0392     H
H       0.1327   0.2341   0.9608     H
H       0.1327   0.7659   0.0392     H
H       0.1327   0.7659   0.9608     H
C      0.13467  0.47554   0.2339     C
C      0.13467  0.47554   0.7661     C
C      0.13467  0.52446   0.2339     C
C      0.13467  0.52446   0.7661     C
C       0.1374  0.05569  0.44211     C
C       0.1374  0.05569  0.55789     C
C       0.1374  0.94431  0.44211     C
C       0.1374  0.94431  0.55789     C
C      0.13788  0.37426  0.43328     C
C      0.13788  0.37426  0.56672     C
C      0.13788  0.62574  0.43328     C
C      0.13788  0.62574  0.56672     C
C       0.1404   0.2701   0.0225     C
C       0.1404   0.2701   0.9775     C
C       0.1404   0.7299   0.0225     C
C       0.1404   0.7299   0.9775     C
H       0.1432   0.2785   0.0394     H
H       0.1432   0.2785   0.9606     H
H       0.1432   0.7215   0.0394     H
H       0.1432   0.7215   0.9606     H
C       0.1444   0.0221    0.083     C
C       0.1444   0.0221    0.917     C
C       0.1444   0.9779    0.083     C
C       0.1444   0.9779    0.917     C
C      0.14485   0.2852      0.0     C
C      0.14485   0.7148      0.0     C
H       0.1451   0.3201   0.4711     H
H       0.1451   0.3201   0.5289     H
H       0.1451   0.6799   0.4711     H
H       0.1451   0.6799   0.5289     H
C      0.14719  0.32986  0.02502     C
C      0.14719  0.32986  0.97498     C
C      0.14719  0.67014  0.02502     C
C      0.14719  0.67014  0.97498     C
C      0.14866  0.33749  0.46429     C
C      0.14866  0.33749  0.53571     C
C      0.14866  0.66251  0.46429     C
C      0.14866  0.66251  0.53571     C
C      0.15178  0.36747  0.05656     C
C      0.15178  0.36747  0.94344     C
C      0.15178  0.63253  0.05656     C
C      0.15178  0.63253  0.94344     C
C      0.15263  0.09726  0.40634     C
C      0.15263  0.09726  0.59366     C
C      0.15263  0.90274  0.40634     C
C      0.15263  0.90274  0.59366     C
H       0.1531    0.039   0.0842     H
H       0.1531    0.039   0.9158     H
H       0.1531    0.961   0.0842     H
H       0.1531    0.961   0.9158     H
C      0.15655  0.31256      0.0     C
C      0.15655  0.68744      0.0     C
H       0.1577   0.1112   0.3944     H
H       0.1577   0.1112   0.6056     H
H       0.1577   0.8888   0.3944     H
H       0.1577   0.8888   0.6056     H
C       0.1588      0.0   0.0912     C
C       0.1588      0.0   0.9088     C
C      0.15935  0.38957  0.44397     C
C      0.15935  0.38957  0.55603     C
C      0.15935  0.61043  0.44397     C
C      0.15935  0.61043  0.55603     C
H        0.162   0.3818   0.0637     H
H        0.162   0.3818   0.9363     H
H        0.162   0.6182   0.0637     H
H        0.162   0.6182   0.9363     H
C      0.16214  0.47559   0.2264     C
C      0.16214  0.47559   0.7736     C
C      0.16214  0.52441   0.2264     C
C      0.16214  0.52441   0.7736     C
C      0.16251  0.35134  0.03571     C
C      0.16251  0.35134  0.96429     C
C      0.16251  0.64866  0.03571     C
C      0.16251  0.64866  0.96429     C
H       0.1629    0.407   0.4372     H
H       0.1629    0.407   0.5628     H
H       0.1629    0.593   0.4372     H
H       0.1629    0.593   0.5628     H
C      0.16489  0.06229  0.43885     C
C      0.16489  0.06229  0.56115     C
C      0.16489  0.93771  0.43885     C
C      0.16489  0.93771  0.56115     C
C      0.17014  0.35281  0.47498     C
C      0.17014  0.35281  0.52502     C
C      0.17014  0.64719  0.47498     C
C      0.17014  0.64719  0.52502     C
H       0.1709   0.4592   0.2223     H
H       0.1709   0.4592   0.7777     H
H       0.1709   0.5408   0.2223     H
H       0.1709   0.5408   0.7777     H
C       0.1725  0.08308  0.42096     C
C       0.1725  0.08308  0.57904     C
C       0.1725  0.91692  0.42096     C
C       0.1725  0.91692  0.57904     C
C      0.17548  0.37885  0.46482     C
C      0.17548  0.37885  0.53518     C
C      0.17548  0.62115  0.46482     C
C      0.17548  0.62115  0.53518     C
C       0.1767      0.5   0.2249     C
C       0.1767      0.5   0.7751     C
O      0.17684  0.02882  0.47224     O
O      0.17684  0.02882  0.52776     O
O      0.17684  0.97118  0.47224     O
O      0.17684  0.97118  0.52776     O
H       0.1799   0.3549   0.0289     H
H       0.1799   0.3549   0.9711     H
H       0.1799   0.6451   0.0289     H
H       0.1799   0.6451   0.9711     H
C       0.1852   0.0466   0.4557     C
C       0.1852   0.0466   0.5443     C
C       0.1852   0.9534   0.4557     C
C       0.1852   0.9534   0.5443     C
C       0.1855      0.0   0.1014     C
C       0.1855      0.0   0.8986     C
C      0.18744  0.34345      0.5     C
C      0.18744  0.65655      0.5     C
C       0.1877   0.3096      0.0     C
C       0.1877   0.6904      0.0     C
H       0.1899   0.3891    0.472     H
H       0.1899   0.3891    0.528     H
H       0.1899   0.6109    0.472     H
H       0.1899   0.6109    0.528     H
C       0.1904   0.3123      0.5     C
C       0.1904   0.6877      0.5     C
H       0.1909   0.0875   0.4188     H
H       0.1909   0.0875   0.5812     H
H       0.1909   0.9125   0.4188     H
H       0.1909   0.9125   0.5812     H
H       0.1917   0.3069   0.4599     H
H       0.1917   0.3069   0.5401     H
H       0.1917   0.6931   0.4599     H
H       0.1917   0.6931   0.5401     H
H       0.1931   0.3083   0.0401     H
H       0.1931   0.3083   0.9599     H
H       0.1931   0.6917   0.0401     H
H       0.1931   0.6917   0.9599     H
C       0.1938  0.29786   0.4765     C
C       0.1938  0.29786   0.5235     C
C       0.1938  0.70214   0.4765     C
C       0.1938  0.70214   0.5235     C
Zr     0.19952      0.0      0.5    Zr
C       0.2005   0.2702   0.4762     C
C       0.2005   0.2702   0.5238     C
C       0.2005   0.7298   0.4762     C
C       0.2005   0.7298   0.5238     C
C      0.20214   0.3062   0.0235     C
C      0.20214   0.3062   0.9765     C
C      0.20214   0.6938   0.0235     C
C      0.20214   0.6938   0.9765     C
H       0.2024   0.2612   0.4596     H
H       0.2024   0.2612   0.5404     H
H       0.2024   0.7388   0.4596     H
H       0.2024   0.7388   0.5404     H
C       0.2034      0.5   0.2158     C
C       0.2034      0.5   0.7842     C
C       0.2042      0.0   0.1102     C
C       0.2042      0.0   0.8898     C
C       0.2043   0.2558      0.5     C
C       0.2043   0.7442      0.5     C
C       0.2103   0.2264      0.5     C
C       0.2103   0.7736      0.5     C
O      0.21068  0.05217   0.4484     O
O      0.21068  0.05217   0.5516     O
O      0.21068  0.94783   0.4484     O
O      0.21068  0.94783   0.5516     O
C       0.2148  0.35515      0.5     C
C       0.2148  0.64485      0.5     C
C       0.2158   0.2034      0.5     C
C       0.2158   0.7966      0.5     C
H       0.2215   0.3568   0.4606     H
H       0.2215   0.3568   0.5394     H
H       0.2215   0.6432   0.4606     H
H       0.2215   0.6432   0.5394     H
O      0.22192      0.0  0.45954     O
O      0.22192      0.0  0.54046     O
H       0.2223   0.1709   0.4592     H
H       0.2223   0.1709   0.5408     H
H       0.2223   0.8291   0.4592     H
H       0.2223   0.8291   0.5408     H
C       0.2249   0.1767      0.5     C
C       0.2249   0.8233      0.5     C
C       0.2264  0.16214  0.47559     C
C       0.2264  0.16214  0.52441     C
C       0.2264      0.5   0.2103     C
C       0.2264      0.5   0.7897     C
C       0.2264  0.83786  0.47559     C
C       0.2264  0.83786  0.52441     C
O       0.2283  0.03103      0.5     O
O       0.2283  0.96897      0.5     O
C       0.2298   0.2995   0.0238     C
C       0.2298   0.2995   0.9762     C
C       0.2298   0.7005   0.0238     C
C       0.2298   0.7005   0.9762     C
C       0.2299   0.3596   0.4775     C
C       0.2299   0.3596   0.5225     C
C       0.2299   0.6404   0.4775     C
C       0.2299   0.6404   0.5225     C
C         0.23      0.0   0.1226     C
C         0.23      0.0   0.8774     C
C       0.2339  0.13467  0.47554     C
C       0.2339  0.13467  0.52446     C
C       0.2339  0.86533  0.47554     C
C       0.2339  0.86533  0.52446     C
H       0.2341   0.0392   0.1327     H
H       0.2341   0.0392   0.8673     H
H       0.2341   0.9608   0.1327     H
H       0.2341   0.9608   0.8673     H
H       0.2362   0.1257   0.4589     H
H       0.2362   0.1257   0.5411     H
H       0.2362   0.8743   0.4589     H
H       0.2362   0.8743   0.5411     H
C       0.2379   0.1201      0.5     C
C       0.2379   0.8799      0.5     C
H       0.2388   0.2976   0.0404     H
H       0.2388   0.2976   0.9596     H
H       0.2388   0.7024   0.0404     H
H       0.2388   0.7024   0.9596     H
C       0.2436   0.0227    0.132     C
C       0.2436   0.0227    0.868     C
C       0.2436   0.9773    0.132     C
C       0.2436   0.9773    0.868     C
C       0.2442   0.2957      0.0     C
C       0.2442   0.7043      0.0     C
C      0.24506  0.09046      0.5     C
C      0.24506  0.90954      0.5     C
O      0.24767  0.07944  0.47617     O
O      0.24767  0.07944  0.52383     O
O      0.24767  0.92056  0.47617     O
O      0.24767  0.92056  0.52383     O
Zr        0.25 0.035731 0.464269    Zr
Zr        0.25 0.035731 0.535731    Zr
Zr        0.25 0.964269 0.464269    Zr
Zr        0.25 0.964269 0.535731    Zr
O      0.25233  0.02383  0.42056     O
O      0.25233  0.02383  0.57944     O
O      0.25233  0.97617  0.42056     O
O      0.25233  0.97617  0.57944     O
C      0.25494      0.0  0.40954     C
C      0.25494      0.0  0.59046     C
C       0.2558      0.5   0.2043     C
C       0.2558      0.5   0.7957     C
C       0.2564    0.368   0.4773     C
C       0.2564    0.368   0.5227     C
C       0.2564    0.632   0.4773     C
C       0.2564    0.632   0.5227     C
H       0.2612   0.4596   0.2024     H
H       0.2612   0.4596   0.7976     H
H       0.2612   0.5404   0.2024     H
H       0.2612   0.5404   0.7976     H
C       0.2621      0.0   0.3799     C
C       0.2621      0.0   0.6201     C
H       0.2638   0.0411   0.3743     H
H       0.2638   0.0411   0.6257     H
H       0.2638   0.9589   0.3743     H
H       0.2638   0.9589   0.6257     H
H       0.2659   0.3673   0.4608     H
H       0.2659   0.3673   0.5392     H
H       0.2659   0.6327   0.4608     H
H       0.2659   0.6327   0.5392     H
C       0.2661  0.02446  0.36533     C
C       0.2661  0.02446  0.63467     C
C       0.2661  0.97554  0.36533     C
C       0.2661  0.97554  0.63467     C
C         0.27   0.3774      0.5     C
C         0.27   0.6226      0.5     C
C       0.2701   0.0225   0.1404     C
C       0.2701   0.0225   0.8596     C
C       0.2701   0.9775   0.1404     C
C       0.2701   0.9775   0.8596     C
C       0.2702   0.4762   0.2005     C
C       0.2702   0.4762   0.7995     C
C       0.2702   0.5238   0.2005     C
C       0.2702   0.5238   0.7995     C
O       0.2717      0.0  0.46897     O
O       0.2717      0.0  0.53103     O
C       0.2736  0.02441  0.33786     C
C       0.2736  0.02441  0.66214     C
C       0.2736   0.2897      0.0     C
C       0.2736   0.7103      0.0     C
C       0.2736  0.97559  0.33786     C
C       0.2736  0.97559  0.66214     C
C       0.2751      0.0   0.3233     C
C       0.2751      0.0   0.6767     C
H       0.2777   0.0408   0.3291     H
H       0.2777   0.0408   0.6709     H
H       0.2777   0.9592   0.3291     H
H       0.2777   0.9592   0.6709     H
O      0.27808  0.04046      0.5     O
O      0.27808  0.95954      0.5     O
H       0.2785   0.0394   0.1432     H
H       0.2785   0.0394   0.8568     H
H       0.2785   0.9606   0.1432     H
H       0.2785   0.9606   0.8568     H
C       0.2842      0.0   0.2966     C
C       0.2842      0.0   0.7034     C
C       0.2852      0.0  0.14485     C
C       0.2852      0.0  0.85515     C
O      0.28932   0.0516  0.44783     O
O      0.28932   0.0516  0.55217     O
O      0.28932   0.9484  0.44783     O
O      0.28932   0.9484  0.55217     O
C       0.2897      0.0   0.2736     C
C       0.2897      0.0   0.7264     C
C       0.2957      0.0   0.2442     C
C       0.2957      0.0   0.7558     C
C       0.2958   0.3898      0.5     C
C       0.2958   0.6102      0.5     C
C       0.2966   0.2842      0.0     C
C       0.2966   0.7158      0.0     C
H       0.2976   0.0404   0.2388     H
H       0.2976   0.0404   0.7612     H
H       0.2976   0.9596   0.2388     H
H       0.2976   0.9596   0.7612     H
C      0.29786   0.4765   0.1938     C
C      0.29786   0.4765   0.8062     C
C      0.29786   0.5235   0.1938     C
C      0.29786   0.5235   0.8062     C
C       0.2995   0.0238   0.2298     C
C       0.2995   0.0238   0.7702     C
C       0.2995   0.9762   0.2298     C
C       0.2995   0.9762   0.7702     C
Zr     0.30048      0.0      0.5    Zr
C       0.3062   0.0235  0.20214     C
C       0.3062   0.0235  0.79786     C
C       0.3062   0.9765  0.20214     C
C       0.3062   0.9765  0.79786     C
H       0.3069   0.4599   0.1917     H
H       0.3069   0.4599   0.8083     H
H       0.3069   0.5401   0.1917     H
H       0.3069   0.5401   0.8083     H
H       0.3083   0.0401   0.1931     H
H       0.3083   0.0401   0.8069     H
H       0.3083   0.9599   0.1931     H
H       0.3083   0.9599   0.8069     H
H       0.3091   0.0812   0.4125     H
H       0.3091   0.0812   0.5875     H
H       0.3091   0.9188   0.4125     H
H       0.3091   0.9188   0.5875     H
C       0.3096      0.0   0.1877     C
C       0.3096      0.0   0.8123     C
H       0.3101    0.028   0.1109     H
H       0.3101    0.028   0.8891     H
H       0.3101    0.972   0.1109     H
H       0.3101    0.972   0.8891     H
C       0.3123      0.5   0.1904     C
C       0.3123      0.5   0.8096     C
C      0.31256      0.0  0.15655     C
C      0.31256      0.0  0.84345     C
C       0.3145   0.3986      0.5     C
C       0.3145   0.6014      0.5     C
C       0.3148   0.0443   0.4534     C
C       0.3148   0.0443   0.5466     C
C       0.3148   0.9557   0.4534     C
C       0.3148   0.9557   0.5466     C
H       0.3201   0.4711   0.1451     H
H       0.3201   0.4711   0.8549     H
H       0.3201   0.5289   0.1451     H
H       0.3201   0.5289   0.8549     H
O      0.32316  0.02776  0.47118     O
O      0.32316  0.02776  0.52882     O
O      0.32316  0.97224  0.47118     O
O      0.32316  0.97224  0.52882     O
C       0.3233   0.2751      0.0     C
C       0.3233   0.7249      0.0     C
C      0.32452  0.03518  0.12115     C
C      0.32452  0.03518  0.87885     C
C      0.32452  0.96482  0.12115     C
C      0.32452  0.96482  0.87885     C
C       0.3275  0.07904  0.41692     C
C       0.3275  0.07904  0.58308     C
C       0.3275  0.92096  0.41692     C
C       0.3275  0.92096  0.58308     C
H       0.3291   0.2777   0.0408     H
H       0.3291   0.2777   0.9592     H
H       0.3291   0.7223   0.0408     H
H       0.3291   0.7223   0.9592     H
C      0.32986  0.02502  0.14719     C
C      0.32986  0.02502  0.85281     C
C      0.32986  0.97498  0.14719     C
C      0.32986  0.97498  0.85281     C
C      0.33511  0.06115  0.43771     C
C      0.33511  0.06115  0.56229     C
C      0.33511  0.93885  0.43771     C
C      0.33511  0.93885  0.56229     C
H       0.3371   0.0628    0.093     H
H       0.3371   0.0628    0.907     H
H       0.3371   0.9372    0.093     H
H       0.3371   0.9372    0.907     H
C      0.33749  0.46429  0.14866     C
C      0.33749  0.46429  0.85134     C
C      0.33749  0.53571  0.14866     C
C      0.33749  0.53571  0.85134     C
C      0.33786   0.2736  0.02441     C
C      0.33786   0.2736  0.97559     C
C      0.33786   0.7264  0.02441     C
C      0.33786   0.7264  0.97559     C
H        0.338   0.4363   0.1182     H
H        0.338   0.4363   0.8818     H
H        0.338   0.5637   0.1182     H
H        0.338   0.5637   0.8818     H
C      0.34065  0.05603  0.11043     C
C      0.34065  0.05603  0.88957     C
C      0.34065  0.94397  0.11043     C
C      0.34065  0.94397  0.88957     C
C       0.3412   0.4088      0.5     C
C       0.3412   0.5912      0.5     C
H       0.3423   0.1056   0.3888     H
H       0.3423   0.1056   0.6112     H
H       0.3423   0.8944   0.3888     H
H       0.3423   0.8944   0.6112     H
C      0.34345      0.5  0.18744     C
C      0.34345      0.5  0.81256     C
H       0.3469   0.4158    0.461     H
H       0.3469   0.4158    0.539     H
H       0.3469   0.5842    0.461     H
H       0.3469   0.5842    0.539     H
C      0.34737  0.09366  0.40274     C
C      0.34737  0.09366  0.59726     C
C      0.34737  0.90634  0.40274     C
C      0.34737  0.90634  0.59726     C
C      0.34822  0.44344  0.13253     C
C      0.34822  0.44344  0.86747     C
C      0.34822  0.55656  0.13253     C
C      0.34822  0.55656  0.86747     C
C      0.35134  0.03571  0.16251     C
C      0.35134  0.03571  0.83749     C
C      0.35134  0.96429  0.16251     C
C      0.35134  0.96429  0.83749     C
C      0.35281  0.47498  0.17014     C
C      0.35281  0.47498  0.82986     C
C      0.35281  0.52502  0.17014     C
C      0.35281  0.52502  0.82986     C
H       0.3549   0.0289   0.1799     H
H       0.3549   0.0289   0.8201     H
H       0.3549   0.9711   0.1799     H
H       0.3549   0.9711   0.8201     H
C      0.35515      0.5   0.2148     C
C      0.35515      0.5   0.7852     C
C       0.3556    0.417   0.4779     C
C       0.3556    0.417   0.5221     C
C       0.3556    0.583   0.4779     C
C       0.3556    0.583   0.5221     C
H       0.3568   0.4606   0.2215     H
H       0.3568   0.4606   0.7785     H
H       0.3568   0.5394   0.2215     H
H       0.3568   0.5394   0.7785     H
C       0.3596   0.4775   0.2299     C
C       0.3596   0.4775   0.7701     C
C       0.3596   0.5225   0.2299     C
C       0.3596   0.5225   0.7701     C
C      0.36212  0.06672  0.12574     C
C      0.36212  0.06672  0.87426     C
C      0.36212  0.93328  0.12574     C
C      0.36212  0.93328  0.87426     C
C       0.3626  0.05789  0.44431     C
C       0.3626  0.05789  0.55569     C
C       0.3626  0.94211  0.44431     C
C       0.3626  0.94211  0.55569     C
C      0.36533   0.2661  0.02446     C
C      0.36533   0.2661  0.97554     C
C      0.36533   0.7339  0.02446     C
C      0.36533   0.7339  0.97554     C
H       0.3673   0.4608   0.2659     H
H       0.3673   0.4608   0.7341     H
H       0.3673   0.5392   0.2659     H
H       0.3673   0.5392   0.7341     H
C      0.36747  0.05656  0.15178     C
C      0.36747  0.05656  0.84822     C
C      0.36747  0.94344  0.15178     C
C      0.36747  0.94344  0.84822     C
H       0.3677   0.0459   0.4582     H
H       0.3677   0.0459   0.5418     H
H       0.3677   0.9541   0.4582     H
H       0.3677   0.9541   0.5418     H
C        0.368   0.4773   0.2564     C
C        0.368   0.4773   0.7436     C
C        0.368   0.5227   0.2564     C
C        0.368   0.5227   0.7436     C
C      0.37426  0.43328  0.13788     C
C      0.37426  0.43328  0.86212     C
C      0.37426  0.56672  0.13788     C
C      0.37426  0.56672  0.86212     C
H       0.3743   0.2638   0.0411     H
H       0.3743   0.2638   0.9589     H
H       0.3743   0.7362   0.0411     H
H       0.3743   0.7362   0.9589     H
C      0.37486   0.0904  0.40935     C
C      0.37486   0.0904  0.59065     C
C      0.37486   0.9096  0.40935     C
C      0.37486   0.9096  0.59065     C
C       0.3774      0.5     0.27     C
C       0.3774      0.5     0.73     C
C      0.37885  0.46482  0.17548     C
C      0.37885  0.46482  0.82452     C
C      0.37885  0.53518  0.17548     C
C      0.37885  0.53518  0.82452     C
C       0.3799   0.2621      0.0     C
C       0.3799   0.7379      0.0     C
C         0.38   0.0892   0.1161     C
C         0.38   0.0892   0.8839     C
C         0.38   0.9108   0.1161     C
C         0.38   0.9108   0.8839     C
H       0.3818   0.0637    0.162     H
H       0.3818   0.0637    0.838     H
H       0.3818   0.9363    0.162     H
H       0.3818   0.9363    0.838     H
C       0.3821    0.427   0.4777     C
C       0.3821    0.427   0.5223     C
C       0.3821    0.573   0.4777     C
C       0.3821    0.573   0.5223     C
C      0.38248  0.07251  0.43013     C
C      0.38248  0.07251  0.56987     C
C      0.38248  0.92749  0.43013     C
C      0.38248  0.92749  0.56987     C
C       0.3839   0.4108     0.12     C
C       0.3839   0.4108     0.88     C
C       0.3839   0.5892     0.12     C
C       0.3839   0.5892     0.88     C
H       0.3888   0.3423   0.1056     H
H       0.3888   0.3423   0.8944     H
H       0.3888   0.6577   0.1056     H
H       0.3888   0.6577   0.8944     H
H       0.3891    0.472   0.1899     H
H       0.3891    0.472   0.8101     H
H       0.3891    0.528   0.1899     H
H       0.3891    0.528   0.8101     H
C      0.38957  0.44397  0.15935     C
C      0.38957  0.44397  0.84065     C
C      0.38957  0.55603  0.15935     C
C      0.38957  0.55603  0.84065     C
C       0.3898      0.5   0.2958     C
C       0.3898      0.5   0.7042     C
H        0.391    0.428   0.4609     H
H        0.391    0.428   0.5391     H
H        0.391    0.572   0.4609     H
H        0.391    0.572   0.5391     H
C       0.3932   0.1047   0.1053     C
C       0.3932   0.1047   0.8947     C
C       0.3932   0.8953   0.1053     C
C       0.3932   0.8953   0.8947     C
H       0.3944   0.1577   0.1112     H
H       0.3944   0.1577   0.8888     H
H       0.3944   0.8423   0.1112     H
H       0.3944   0.8423   0.8888     H
C       0.3947   0.3953   0.1068     C
C       0.3947   0.3953   0.8932     C
C       0.3947   0.6047   0.1068     C
C       0.3947   0.6047   0.8932     C
C       0.3953   0.1068   0.3947     C
C       0.3953   0.1068   0.6053     C
C       0.3953   0.8932   0.3947     C
C       0.3953   0.8932   0.6053     C
C       0.3962   0.4354      0.5     C
C       0.3962   0.5646      0.5     C
C       0.3986      0.5   0.3145     C
C       0.3986      0.5   0.6855     C
H       0.4009   0.0703   0.4346     H
H       0.4009   0.0703   0.5654     H
H       0.4009   0.9297   0.4346     H
H       0.4009   0.9297   0.5654     H
C      0.40274  0.34737  0.09366     C
C      0.40274  0.34737  0.90634     C
C      0.40274  0.65263  0.09366     C
C      0.40274  0.65263  0.90634     C
C      0.40634  0.15263  0.09726     C
C      0.40634  0.15263  0.90274     C
C      0.40634  0.84737  0.09726     C
C      0.40634  0.84737  0.90274     C
H        0.407   0.4372   0.1629     H
H        0.407   0.4372   0.8371     H
H        0.407   0.5628   0.1629     H
H        0.407   0.5628   0.8371     H
C       0.4088      0.5   0.3412     C
C       0.4088      0.5   0.6588     C
C      0.40935  0.37486   0.0904     C
C      0.40935  0.37486   0.9096     C
C      0.40935  0.62514   0.0904     C
C      0.40935  0.62514   0.9096     C
C      0.40954  0.25494      0.0     C
C      0.40954  0.74506      0.0     C
C       0.4096  0.12514  0.09065     C
C       0.4096  0.12514  0.90935     C
C       0.4096  0.87486  0.09065     C
C       0.4096  0.87486  0.90935     C
C       0.4108     0.12   0.3839     C
C       0.4108     0.12   0.6161     C
C       0.4108     0.88   0.3839     C
C       0.4108     0.88   0.6161     C
H       0.4125   0.3091   0.0812     H
H       0.4125   0.3091   0.9188     H
H       0.4125   0.6909   0.0812     H
H       0.4125   0.6909   0.9188     H
H       0.4158    0.461   0.3469     H
H       0.4158    0.461   0.6531     H
H       0.4158    0.539   0.3469     H
H       0.4158    0.539   0.6531     H
C      0.41692   0.3275  0.07904     C
C      0.41692   0.3275  0.92096     C
C      0.41692   0.6725  0.07904     C
C      0.41692   0.6725  0.92096     C
C        0.417   0.4779   0.3556     C
C        0.417   0.4779   0.6444     C
C        0.417   0.5221   0.3556     C
C        0.417   0.5221   0.6444     C
H       0.4188   0.1909   0.0875     H
H       0.4188   0.1909   0.9125     H
H       0.4188   0.8091   0.0875     H
H       0.4188   0.8091   0.9125     H
O      0.42056  0.25233  0.02383     O
O      0.42056  0.25233  0.97617     O
O      0.42056  0.74767  0.02383     O
O      0.42056  0.74767  0.97617     O
C      0.42096   0.1725  0.08308     C
C      0.42096   0.1725  0.91692     C
C      0.42096   0.8275  0.08308     C
C      0.42096   0.8275  0.91692     C
C        0.424   0.4463      0.5     C
C        0.424   0.5537      0.5     C
C        0.427   0.4777   0.3821     C
C        0.427   0.4777   0.6179     C
C        0.427   0.5223   0.3821     C
C        0.427   0.5223   0.6179     C
C      0.42749  0.11752  0.06987     C
C      0.42749  0.11752  0.93013     C
C      0.42749  0.88248  0.06987     C
C      0.42749  0.88248  0.93013     C
H        0.428   0.4609    0.391     H
H        0.428   0.4609    0.609     H
H        0.428   0.5391    0.391     H
H        0.428   0.5391    0.609     H
H       0.4297   0.0991   0.0654     H
H       0.4297   0.0991   0.9346     H
H       0.4297   0.9009   0.0654     H
H       0.4297   0.9009   0.9346     H
C      0.43013  0.38248  0.07251     C
C      0.43013  0.38248  0.92749     C
C      0.43013  0.61752  0.07251     C
C      0.43013  0.61752  0.92749     C
O       0.4318   0.4568   0.4791     O
O       0.4318   0.4568   0.5209     O
O       0.4318   0.5432   0.4791     O
O       0.4318   0.5432   0.5209     O
C      0.43328  0.13788  0.37426     C
C      0.43328  0.13788  0.62574     C
C      0.43328  0.86212  0.37426     C
C      0.43328  0.86212  0.62574     C
H       0.4346   0.4009   0.0703     H
H       0.4346   0.4009   0.9297     H
H       0.4346   0.5991   0.0703     H
H       0.4346   0.5991   0.9297     H
C       0.4354      0.5   0.3962     C
C       0.4354      0.5   0.6038     C
H       0.4363   0.1182    0.338     H
H       0.4363   0.1182    0.662     H
H       0.4363   0.8818    0.338     H
H       0.4363   0.8818    0.662     H
H       0.4372   0.1629    0.407     H
H       0.4372   0.1629    0.593     H
H       0.4372   0.8371    0.407     H
H       0.4372   0.8371    0.593     H
C      0.43771  0.33511  0.06115     C
C      0.43771  0.33511  0.93885     C
C      0.43771  0.66489  0.06115     C
C      0.43771  0.66489  0.93885     C
C      0.43885  0.16489  0.06229     C
C      0.43885  0.16489  0.93771     C
C      0.43885  0.83511  0.06229     C
C      0.43885  0.83511  0.93771     C
C      0.44211   0.1374  0.05569     C
C      0.44211   0.1374  0.94431     C
C      0.44211   0.8626  0.05569     C
C      0.44211   0.8626  0.94431     C
C      0.44344  0.13253  0.34822     C
C      0.44344  0.13253  0.65178     C
C      0.44344  0.86747  0.34822     C
C      0.44344  0.86747  0.65178     C
C      0.44397  0.15935  0.38957     C
C      0.44397  0.15935  0.61043     C
C      0.44397  0.84065  0.38957     C
C      0.44397  0.84065  0.61043     C
C      0.44431   0.3626  0.05789     C
C      0.44431   0.3626  0.94211     C
C      0.44431   0.6374  0.05789     C
C      0.44431   0.6374  0.94211     C
C       0.4463      0.5    0.424     C
C       0.4463      0.5    0.576     C
O      0.44783  0.28932   0.0516     O
O      0.44783  0.28932   0.9484     O
O      0.44783  0.71068   0.0516     O
O      0.44783  0.71068   0.9484     O
O       0.4484  0.21068  0.05217     O
O       0.4484  0.21068  0.94783     O
O       0.4484  0.78932  0.05217     O
O       0.4484  0.78932  0.94783     O
C       0.4534   0.3148   0.0443     C
C       0.4534   0.3148   0.9557     C
C       0.4534   0.6852   0.0443     C
C       0.4534   0.6852   0.9557     C
H       0.4541   0.1323   0.0418     H
H       0.4541   0.1323   0.9582     H
H       0.4541   0.8677   0.0418     H
H       0.4541   0.8677   0.9582     H
C       0.4557   0.1852   0.0466     C
C       0.4557   0.1852   0.9534     C
C       0.4557   0.8148   0.0466     C
C       0.4557   0.8148   0.9534     C
O       0.4568   0.4791   0.4318     O
O       0.4568   0.4791   0.5682     O
O       0.4568   0.5209   0.4318     O
O       0.4568   0.5209   0.5682     O
O      0.45688      0.5  0.47721     O
O      0.45688      0.5  0.52279     O
H       0.4582   0.3677   0.0459     H
H       0.4582   0.3677   0.9541     H
H       0.4582   0.6323   0.0459     H
H       0.4582   0.6323   0.9541     H
H       0.4589   0.2362   0.1257     H
H       0.4589   0.2362   0.8743     H
H       0.4589   0.7638   0.1257     H
H       0.4589   0.7638   0.8743     H
H       0.4592   0.2223   0.1709     H
H       0.4592   0.2223   0.8291     H
H       0.4592   0.7777   0.1709     H
H       0.4592   0.7777   0.8291     H
O      0.45954  0.22192      0.0     O
O      0.45954  0.77808      0.0     O
H       0.4596   0.2024   0.2612     H
H       0.4596   0.2024   0.7388     H
H       0.4596   0.7976   0.2612     H
H       0.4596   0.7976   0.7388     H
H       0.4599   0.1917   0.3069     H
H       0.4599   0.1917   0.6931     H
H       0.4599   0.8083   0.3069     H
H       0.4599   0.8083   0.6931     H
H       0.4606   0.2215   0.3568     H
H       0.4606   0.2215   0.6432     H
H       0.4606   0.7785   0.3568     H
H       0.4606   0.7785   0.6432     H
H       0.4608   0.2659   0.3673     H
H       0.4608   0.2659   0.6327     H
H       0.4608   0.7341   0.3673     H
H       0.4608   0.7341   0.6327     H
H       0.4609    0.391    0.428     H
H       0.4609    0.391    0.572     H
H       0.4609    0.609    0.428     H
H       0.4609    0.609    0.572     H
H        0.461   0.3469   0.4158     H
H        0.461   0.3469   0.5842     H
H        0.461   0.6531   0.4158     H
H        0.461   0.6531   0.5842     H
Zr    0.464269     0.25 0.035731    Zr
Zr    0.464269     0.25 0.964269    Zr
Zr    0.464269     0.75 0.035731    Zr
Zr    0.464269     0.75 0.964269    Zr
C      0.46429  0.14866  0.33749     C
C      0.46429  0.14866  0.66251     C
C      0.46429  0.85134  0.33749     C
C      0.46429  0.85134  0.66251     C
C      0.46482  0.17548  0.37885     C
C      0.46482  0.17548  0.62115     C
C      0.46482  0.82452  0.37885     C
C      0.46482  0.82452  0.62115     C
O      0.46897   0.2717      0.0     O
O      0.46897   0.7283      0.0     O
H       0.4711   0.1451   0.3201     H
H       0.4711   0.1451   0.6799     H
H       0.4711   0.8549   0.3201     H
H       0.4711   0.8549   0.6799     H
O      0.47118  0.32316  0.02776     O
O      0.47118  0.32316  0.97224     O
O      0.47118  0.67684  0.02776     O
O      0.47118  0.67684  0.97224     O
H        0.472   0.1899   0.3891     H
H        0.472   0.1899   0.6109     H
H        0.472   0.8101   0.3891     H
H        0.472   0.8101   0.6109     H
O      0.47224  0.17684  0.02882     O
O      0.47224  0.17684  0.97118     O
Zr     0.47224  0.47224  0.47224    Zr
Zr     0.47224  0.47224  0.52776    Zr
Zr     0.47224  0.52776  0.47224    Zr
Zr     0.47224  0.52776  0.52776    Zr
O      0.47224  0.82316  0.02882     O
O      0.47224  0.82316  0.97118     O
C      0.47498  0.17014  0.35281     C
C      0.47498  0.17014  0.64719     C
C      0.47498  0.82986  0.35281     C
C      0.47498  0.82986  0.64719     C
C      0.47554   0.2339  0.13467     C
C      0.47554   0.2339  0.86533     C
C      0.47554   0.7661  0.13467     C
C      0.47554   0.7661  0.86533     C
C      0.47559   0.2264  0.16214     C
C      0.47559   0.2264  0.83786     C
C      0.47559   0.7736  0.16214     C
C      0.47559   0.7736  0.83786     C
O      0.47617  0.24767  0.07944     O
O      0.47617  0.24767  0.92056     O
O      0.47617  0.75233  0.07944     O
O      0.47617  0.75233  0.92056     O
C       0.4762   0.2005   0.2702     C
C       0.4762   0.2005   0.7298     C
C       0.4762   0.7995   0.2702     C
C       0.4762   0.7995   0.7298     C
C       0.4765   0.1938  0.29786     C
C       0.4765   0.1938  0.70214     C
C       0.4765   0.8062  0.29786     C
C       0.4765   0.8062  0.70214     C
O      0.47721  0.45688      0.5     O
O      0.47721  0.54312      0.5     O
C       0.4773   0.2564    0.368     C
C       0.4773   0.2564    0.632     C
C       0.4773   0.7436    0.368     C
C       0.4773   0.7436    0.632     C
C       0.4775   0.2299   0.3596     C
C       0.4775   0.2299   0.6404     C
C       0.4775   0.7701   0.3596     C
C       0.4775   0.7701   0.6404     C
C       0.4777   0.3821    0.427     C
C       0.4777   0.3821    0.573     C
C       0.4777   0.6179    0.427     C
C       0.4777   0.6179    0.573     C
C       0.4779   0.3556    0.417     C
C       0.4779   0.3556    0.583     C
C       0.4779   0.6444    0.417     C
C       0.4779   0.6444    0.583     C
O       0.4791   0.4318   0.4568     O
O       0.4791   0.4318   0.5432     O
O       0.4791   0.5682   0.4568     O
O       0.4791   0.5682   0.5432     O
C          0.5  0.18744  0.34345     C
C          0.5  0.18744  0.65655     C
C          0.5   0.1904   0.3123     C
C          0.5   0.1904   0.6877     C
Zr         0.5  0.19952      0.0    Zr
C          0.5   0.2043   0.2558     C
C          0.5   0.2043   0.7442     C
C          0.5   0.2103   0.2264     C
C          0.5   0.2103   0.7736     C
C          0.5   0.2148  0.35515     C
C          0.5   0.2148  0.64485     C
C          0.5   0.2158   0.2034     C
C          0.5   0.2158   0.7966     C
C          0.5   0.2249   0.1767     C
C          0.5   0.2249   0.8233     C
O          0.5   0.2283  0.03103     O
O          0.5   0.2283  0.96897     O
C          0.5   0.2379   0.1201     C
C          0.5   0.2379   0.8799     C
C          0.5  0.24506  0.09046     C
C          0.5  0.24506  0.90954     C
C          0.5     0.27   0.3774     C
C          0.5     0.27   0.6226     C
O          0.5  0.27808  0.04046     O
O          0.5  0.27808  0.95954     O
C          0.5   0.2958   0.3898     C
C          0.5   0.2958   0.6102     C
Zr         0.5  0.30048      0.0    Zr
C          0.5   0.3145   0.3986     C
C          0.5   0.3145   0.6014     C
C          0.5   0.3412   0.4088     C
C          0.5   0.3412   0.5912     C
C          0.5   0.3962   0.4354     C
C          0.5   0.3962   0.5646     C
C          0.5    0.424   0.4463     C
C          0.5    0.424   0.5537     C
O          0.5  0.47721  0.45688     O
O          0.5  0.47721  0.54312     O
O          0.5  0.52279  0.45688     O
O          0.5  0.52279  0.54312     O
C          0.5    0.576   0.4463     C
C          0.5    0.576   0.5537     C
C          0.5   0.6038   0.4354     C
C          0.5   0.6038   0.5646     C
C          0.5   0.6588   0.4088     C
C          0.5   0.6588   0.5912     C
C          0.5   0.6855   0.3986     C
C          0.5   0.6855   0.6014     C
Zr         0.5  0.69952      0.0    Zr
C          0.5   0.7042   0.3898     C
C          0.5   0.7042   0.6102     C
O          0.5  0.72192  0.04046     O
O          0.5  0.72192  0.95954     O
C          0.5     0.73   0.3774     C
C          0.5     0.73   0.6226     C
C          0.5  0.75494  0.09046     C
C          0.5  0.75494  0.90954     C
C          0.5   0.7621   0.1201     C
C          0.5   0.7621   0.8799     C
O          0.5   0.7717  0.03103     O
O          0.5   0.7717  0.96897     O
C          0.5   0.7751   0.1767     C
C          0.5   0.7751   0.8233     C
C          0.5   0.7842   0.2034     C
C          0.5   0.7842   0.7966     C
C          0.5   0.7852  0.35515     C
C          0.5   0.7852  0.64485     C
C          0.5   0.7897   0.2264     C
C          0.5   0.7897   0.7736     C
C          0.5   0.7957   0.2558     C
C          0.5   0.7957   0.7442     C
Zr         0.5  0.80048      0.0    Zr
C          0.5   0.8096   0.3123     C
C          0.5   0.8096   0.6877     C
C          0.5  0.81256  0.34345     C
C          0.5  0.81256  0.65655     C
O       0.5209   0.4318   0.4568     O
O       0.5209   0.4318   0.5432     O
O       0.5209   0.5682   0.4568     O
O       0.5209   0.5682   0.5432     O
C       0.5221   0.3556    0.417     C
C       0.5221   0.3556    0.583     C
C       0.5221   0.6444    0.417     C
C       0.5221   0.6444    0.583     C
C       0.5223   0.3821    0.427     C
C       0.5223   0.3821    0.573     C
C       0.5223   0.6179    0.427     C
C       0.5223   0.6179    0.573     C
C       0.5225   0.2299   0.3596     C
C       0.5225   0.2299   0.6404     C
C       0.5225   0.7701   0.3596     C
C       0.5225   0.7701   0.6404     C
C       0.5227   0.2564    0.368     C
C       0.5227   0.2564    0.632     C
C       0.5227   0.7436    0.368     C
C       0.5227   0.7436    0.632     C
O      0.52279  0.45688      0.5     O
O      0.52279  0.54312      0.5     O
C       0.5235   0.1938  0.29786     C
C       0.5235   0.1938  0.70214     C
C       0.5235   0.8062  0.29786     C
C       0.5235   0.8062  0.70214     C
C       0.5238   0.2005   0.2702     C
C       0.5238   0.2005   0.7298     C
C       0.5238   0.7995   0.2702     C
C       0.5238   0.7995   0.7298     C
O      0.52383  0.24767  0.07944     O
O      0.52383  0.24767  0.92056     O
O      0.52383  0.75233  0.07944     O
O      0.52383  0.75233  0.92056     O
C      0.52441   0.2264  0.16214     C
C      0.52441   0.2264  0.83786     C
C      0.52441   0.7736  0.16214     C
C      0.52441   0.7736  0.83786     C
C      0.52446   0.2339  0.13467     C
C      0.52446   0.2339  0.86533     C
C      0.52446   0.7661  0.13467     C
C      0.52446   0.7661  0.86533     C
C      0.52502  0.17014  0.35281     C
C      0.52502  0.17014  0.64719     C
C      0.52502  0.82986  0.35281     C
C      0.52502  0.82986  0.64719     C
O      0.52776  0.17684  0.02882     O
O      0.52776  0.17684  0.97118     O
Zr     0.52776  0.47224  0.47224    Zr
Zr     0.52776  0.47224  0.52776    Zr
Zr     0.52776  0.52776  0.47224    Zr
Zr     0.52776  0.52776  0.52776    Zr
O      0.52776  0.82316  0.02882     O
O      0.52776  0.82316  0.97118     O
H        0.528   0.1899   0.3891     H
H        0.528   0.1899   0.6109     H
H        0.528   0.8101   0.3891     H
H        0.528   0.8101   0.6109     H
O      0.52882  0.32316  0.02776     O
O      0.52882  0.32316  0.97224     O
O      0.52882  0.67684  0.02776     O
O      0.52882  0.67684  0.97224     O
H       0.5289   0.1451   0.3201     H
H       0.5289   0.1451   0.6799     H
H       0.5289   0.8549   0.3201     H
H       0.5289   0.8549   0.6799     H
O      0.53103   0.2717      0.0     O
O      0.53103   0.7283      0.0     O
C      0.53518  0.17548  0.37885     C
C      0.53518  0.17548  0.62115     C
C      0.53518  0.82452  0.37885     C
C      0.53518  0.82452  0.62115     C
C      0.53571  0.14866  0.33749     C
C      0.53571  0.14866  0.66251     C
C      0.53571  0.85134  0.33749     C
C      0.53571  0.85134  0.66251     C
Zr    0.535731     0.25 0.035731    Zr
Zr    0.535731     0.25 0.964269    Zr
Zr    0.535731     0.75 0.035731    Zr
Zr    0.535731     0.75 0.964269    Zr
H        0.539   0.3469   0.4158     H
H        0.539   0.3469   0.5842     H
H        0.539   0.6531   0.4158     H
H        0.539   0.6531   0.5842     H
H       0.5391    0.391    0.428     H
H       0.5391    0.391    0.572     H
H       0.5391    0.609    0.428     H
H       0.5391    0.609    0.572     H
H       0.5392   0.2659   0.3673     H
H       0.5392   0.2659   0.6327     H
H       0.5392   0.7341   0.3673     H
H       0.5392   0.7341   0.6327     H
H       0.5394   0.2215   0.3568     H
H       0.5394   0.2215   0.6432     H
H       0.5394   0.7785   0.3568     H
H       0.5394   0.7785   0.6432     H
H       0.5401   0.1917   0.3069     H
H       0.5401   0.1917   0.6931     H
H       0.5401   0.8083   0.3069     H
H       0.5401   0.8083   0.6931     H
H       0.5404   0.2024   0.2612     H
H       0.5404   0.2024   0.7388     H
H       0.5404   0.7976   0.2612     H
H       0.5404   0.7976   0.7388     H
O      0.54046  0.22192      0.0     O
O      0.54046  0.77808      0.0     O
H       0.5408   0.2223   0.1709     H
H       0.5408   0.2223   0.8291     H
H       0.5408   0.7777   0.1709     H
H       0.5408   0.7777   0.8291     H
H       0.5411   0.2362   0.1257     H
H       0.5411   0.2362   0.8743     H
H       0.5411   0.7638   0.1257     H
H       0.5411   0.7638   0.8743     H
H       0.5418   0.3677   0.0459     H
H       0.5418   0.3677   0.9541     H
H       0.5418   0.6323   0.0459     H
H       0.5418   0.6323   0.9541     H
O      0.54312      0.5  0.47721     O
O      0.54312      0.5  0.52279     O
O       0.5432   0.4791   0.4318     O
O       0.5432   0.4791   0.5682     O
O       0.5432   0.5209   0.4318     O
O       0.5432   0.5209   0.5682     O
C       0.5443   0.1852   0.0466     C
C       0.5443   0.1852   0.9534     C
C       0.5443   0.8148   0.0466     C
C       0.5443   0.8148   0.9534     C
H       0.5459   0.1323   0.0418     H
H       0.5459   0.1323   0.9582     H
H       0.5459   0.8677   0.0418     H
H       0.5459   0.8677   0.9582     H
C       0.5466   0.3148   0.0443     C
C       0.5466   0.3148   0.9557     C
C       0.5466   0.6852   0.0443     C
C       0.5466   0.6852   0.9557     C
O       0.5516  0.21068  0.05217     O
O       0.5516  0.21068  0.94783     O
O       0.5516  0.78932  0.05217     O
O       0.5516  0.78932  0.94783     O
O      0.55217  0.28932   0.0516     O
O      0.55217  0.28932   0.9484     O
O      0.55217  0.71068   0.0516     O
O      0.55217  0.71068   0.9484     O
C       0.5537      0.5    0.424     C
C       0.5537      0.5    0.576     C
C      0.55569   0.3626  0.05789     C
C      0.55569   0.3626  0.94211     C
C      0.55569   0.6374  0.05789     C
C      0.55569   0.6374  0.94211     C
C      0.55603  0.15935  0.38957     C
C      0.55603  0.15935  0.61043     C
C      0.55603  0.84065  0.38957     C
C      0.55603  0.84065  0.61043     C
C      0.55656  0.13253  0.34822     C
C      0.55656  0.13253  0.65178     C
C      0.55656  0.86747  0.34822     C
C      0.55656  0.86747  0.65178     C
C      0.55789   0.1374  0.05569     C
C      0.55789   0.1374  0.94431     C
C      0.55789   0.8626  0.05569     C
C      0.55789   0.8626  0.94431     C
C      0.56115  0.16489  0.06229     C
C      0.56115  0.16489  0.93771     C
C      0.56115  0.83511  0.06229     C
C      0.56115  0.83511  0.93771     C
C      0.56229  0.33511  0.06115     C
C      0.56229  0.33511  0.93885     C
C      0.56229  0.66489  0.06115     C
C      0.56229  0.66489  0.93885     C
H       0.5628   0.1629    0.407     H
H       0.5628   0.1629    0.593     H
H       0.5628   0.8371    0.407     H
H       0.5628   0.8371    0.593     H
H       0.5637   0.1182    0.338     H
H       0.5637   0.1182    0.662     H
H       0.5637   0.8818    0.338     H
H       0.5637   0.8818    0.662     H
C       0.5646      0.5   0.3962     C
C       0.5646      0.5   0.6038     C
H       0.5654   0.4009   0.0703     H
H       0.5654   0.4009   0.9297     H
H       0.5654   0.5991   0.0703     H
H       0.5654   0.5991   0.9297     H
C      0.56672  0.13788  0.37426     C
C      0.56672  0.13788  0.62574     C
C      0.56672  0.86212  0.37426     C
C      0.56672  0.86212  0.62574     C
O       0.5682   0.4568   0.4791     O
O       0.5682   0.4568   0.5209     O
O       0.5682   0.5432   0.4791     O
O       0.5682   0.5432   0.5209     O
C      0.56987  0.38248  0.07251     C
C      0.56987  0.38248  0.92749     C
C      0.56987  0.61752  0.07251     C
C      0.56987  0.61752  0.92749     C
H       0.5703   0.0991   0.0654     H
H       0.5703   0.0991   0.9346     H
H       0.5703   0.9009   0.0654     H
H       0.5703   0.9009   0.9346     H
H        0.572   0.4609    0.391     H
H        0.572   0.4609    0.609     H
H        0.572   0.5391    0.391     H
H        0.572   0.5391    0.609     H
C      0.57251  0.11752  0.06987     C
C      0.57251  0.11752  0.93013     C
C      0.57251  0.88248  0.06987     C
C      0.57251  0.88248  0.93013     C
C        0.573   0.4777   0.3821     C
C        0.573   0.4777   0.6179     C
C        0.573   0.5223   0.3821     C
C        0.573   0.5223   0.6179     C
C        0.576   0.4463      0.5     C
C        0.576   0.5537      0.5     C
C      0.57904   0.1725  0.08308     C
C      0.57904   0.1725  0.91692     C
C      0.57904   0.8275  0.08308     C
C      0.57904   0.8275  0.91692     C
O      0.57944  0.25233  0.02383     O
O      0.57944  0.25233  0.97617     O
O      0.57944  0.74767  0.02383     O
O      0.57944  0.74767  0.97617     O
H       0.5812   0.1909   0.0875     H
H       0.5812   0.1909   0.9125     H
H       0.5812   0.8091   0.0875     H
H       0.5812   0.8091   0.9125     H
C        0.583   0.4779   0.3556     C
C        0.583   0.4779   0.6444     C
C        0.583   0.5221   0.3556     C
C        0.583   0.5221   0.6444     C
C      0.58308   0.3275  0.07904     C
C      0.58308   0.3275  0.92096     C
C      0.58308   0.6725  0.07904     C
C      0.58308   0.6725  0.92096     C
H       0.5842    0.461   0.3469     H
H       0.5842    0.461   0.6531     H
H       0.5842    0.539   0.3469     H
H       0.5842    0.539   0.6531     H
H       0.5875   0.3091   0.0812     H
H       0.5875   0.3091   0.9188     H
H       0.5875   0.6909   0.0812     H
H       0.5875   0.6909   0.9188     H
C       0.5892     0.12   0.3839     C
C       0.5892     0.12   0.6161     C
C       0.5892     0.88   0.3839     C
C       0.5892     0.88   0.6161     C
C       0.5904  0.12514  0.09065     C
C       0.5904  0.12514  0.90935     C
C       0.5904  0.87486  0.09065     C
C       0.5904  0.87486  0.90935     C
C      0.59046  0.25494      0.0     C
C      0.59046  0.74506      0.0     C
C      0.59065  0.37486   0.0904     C
C      0.59065  0.37486   0.9096     C
C      0.59065  0.62514   0.0904     C
C      0.59065  0.62514   0.9096     C
C       0.5912      0.5   0.3412     C
C       0.5912      0.5   0.6588     C
H        0.593   0.4372   0.1629     H
H        0.593   0.4372   0.8371     H
H        0.593   0.5628   0.1629     H
H        0.593   0.5628   0.8371     H
C      0.59366  0.15263  0.09726     C
C      0.59366  0.15263  0.90274     C
C      0.59366  0.84737  0.09726     C
C      0.59366  0.84737  0.90274     C
C      0.59726  0.34737  0.09366     C
C      0.59726  0.34737  0.90634     C
C      0.59726  0.65263  0.09366     C
C      0.59726  0.65263  0.90634     C
H       0.5991   0.0703   0.4346     H
H       0.5991   0.0703   0.5654     H
H       0.5991   0.9297   0.4346     H
H       0.5991   0.9297   0.5654     H
C       0.6014      0.5   0.3145     C
C       0.6014      0.5   0.6855     C
C       0.6038   0.4354      0.5     C
C       0.6038   0.5646      0.5     C
C       0.6047   0.1068   0.3947     C
C       0.6047   0.1068   0.6053     C
C       0.6047   0.8932   0.3947     C
C       0.6047   0.8932   0.6053     C
C       0.6053   0.3953   0.1068     C
C       0.6053   0.3953   0.8932     C
C       0.6053   0.6047   0.1068     C
C       0.6053   0.6047   0.8932     C
H       0.6056   0.1577   0.1112     H
H       0.6056   0.1577   0.8888     H
H       0.6056   0.8423   0.1112     H
H       0.6056   0.8423   0.8888     H
C       0.6068   0.1047   0.1053     C
C       0.6068   0.1047   0.8947     C
C       0.6068   0.8953   0.1053     C
C       0.6068   0.8953   0.8947     C
H        0.609    0.428   0.4609     H
H        0.609    0.428   0.5391     H
H        0.609    0.572   0.4609     H
H        0.609    0.572   0.5391     H
C       0.6102      0.5   0.2958     C
C       0.6102      0.5   0.7042     C
C      0.61043  0.44397  0.15935     C
C      0.61043  0.44397  0.84065     C
C      0.61043  0.55603  0.15935     C
C      0.61043  0.55603  0.84065     C
H       0.6109    0.472   0.1899     H
H       0.6109    0.472   0.8101     H
H       0.6109    0.528   0.1899     H
H       0.6109    0.528   0.8101     H
H       0.6112   0.3423   0.1056     H
H       0.6112   0.3423   0.8944     H
H       0.6112   0.6577   0.1056     H
H       0.6112   0.6577   0.8944     H
C       0.6161   0.4108     0.12     C
C       0.6161   0.4108     0.88     C
C       0.6161   0.5892     0.12     C
C       0.6161   0.5892     0.88     C
C      0.61752  0.07251  0.43013     C
C      0.61752  0.07251  0.56987     C
C      0.61752  0.92749  0.43013     C
C      0.61752  0.92749  0.56987     C
C       0.6179    0.427   0.4777     C
C       0.6179    0.427   0.5223     C
C       0.6179    0.573   0.4777     C
C       0.6179    0.573   0.5223     C
H       0.6182   0.0637    0.162     H
H       0.6182   0.0637    0.838     H
H       0.6182   0.9363    0.162     H
H       0.6182   0.9363    0.838     H
C         0.62   0.0892   0.1161     C
C         0.62   0.0892   0.8839     C
C         0.62   0.9108   0.1161     C
C         0.62   0.9108   0.8839     C
C       0.6201   0.2621      0.0     C
C       0.6201   0.7379      0.0     C
C      0.62115  0.46482  0.17548     C
C      0.62115  0.46482  0.82452     C
C      0.62115  0.53518  0.17548     C
C      0.62115  0.53518  0.82452     C
C       0.6226      0.5     0.27     C
C       0.6226      0.5     0.73     C
C      0.62514   0.0904  0.40935     C
C      0.62514   0.0904  0.59065     C
C      0.62514   0.9096  0.40935     C
C      0.62514   0.9096  0.59065     C
H       0.6257   0.2638   0.0411     H
H       0.6257   0.2638   0.9589     H
H       0.6257   0.7362   0.0411     H
H       0.6257   0.7362   0.9589     H
C      0.62574  0.43328  0.13788     C
C      0.62574  0.43328  0.86212     C
C      0.62574  0.56672  0.13788     C
C      0.62574  0.56672  0.86212     C
C        0.632   0.4773   0.2564     C
C        0.632   0.4773   0.7436     C
C        0.632   0.5227   0.2564     C
C        0.632   0.5227   0.7436     C
H       0.6323   0.0459   0.4582     H
H       0.6323   0.0459   0.5418     H
H       0.6323   0.9541   0.4582     H
H       0.6323   0.9541   0.5418     H
C      0.63253  0.05656  0.15178     C
C      0.63253  0.05656  0.84822     C
C      0.63253  0.94344  0.15178     C
C      0.63253  0.94344  0.84822     C
H       0.6327   0.4608   0.2659     H
H       0.6327   0.4608   0.7341     H
H       0.6327   0.5392   0.2659     H
H       0.6327   0.5392   0.7341     H
C      0.63467   0.2661  0.02446     C
C      0.63467   0.2661  0.97554     C
C      0.63467   0.7339  0.02446     C
C      0.63467   0.7339  0.97554     C
C       0.6374  0.05789  0.44431     C
C       0.6374  0.05789  0.55569     C
C       0.6374  0.94211  0.44431     C
C       0.6374  0.94211  0.55569     C
C      0.63788  0.06672  0.12574     C
C      0.63788  0.06672  0.87426     C
C      0.63788  0.93328  0.12574     C
C      0.63788  0.93328  0.87426     C
C       0.6404   0.4775   0.2299     C
C       0.6404   0.4775   0.7701     C
C       0.6404   0.5225   0.2299     C
C       0.6404   0.5225   0.7701     C
H       0.6432   0.4606   0.2215     H
H       0.6432   0.4606   0.7785     H
H       0.6432   0.5394   0.2215     H
H       0.6432   0.5394   0.7785     H
C       0.6444    0.417   0.4779     C
C       0.6444    0.417   0.5221     C
C       0.6444    0.583   0.4779     C
C       0.6444    0.583   0.5221     C
C      0.64485      0.5   0.2148     C
C      0.64485      0.5   0.7852     C
H       0.6451   0.0289   0.1799     H
H       0.6451   0.0289   0.8201     H
H       0.6451   0.9711   0.1799     H
H       0.6451   0.9711   0.8201     H
C      0.64719  0.47498  0.17014     C
C      0.64719  0.47498  0.82986     C
C      0.64719  0.52502  0.17014     C
C      0.64719  0.52502  0.82986     C
C      0.64866  0.03571  0.16251     C
C      0.64866  0.03571  0.83749     C
C      0.64866  0.96429  0.16251     C
C      0.64866  0.96429  0.83749     C
C      0.65178  0.44344  0.13253     C
C      0.65178  0.44344  0.86747     C
C      0.65178  0.55656  0.13253     C
C      0.65178  0.55656  0.86747     C
C      0.65263  0.09366  0.40274     C
C      0.65263  0.09366  0.59726     C
C      0.65263  0.90634  0.40274     C
C      0.65263  0.90634  0.59726     C
H       0.6531   0.4158    0.461     H
H       0.6531   0.4158    0.539     H
H       0.6531   0.5842    0.461     H
H       0.6531   0.5842    0.539     H
C      0.65655      0.5  0.18744     C
C      0.65655      0.5  0.81256     C
H       0.6577   0.1056   0.3888     H
H       0.6577   0.1056   0.6112     H
H       0.6577   0.8944   0.3888     H
H       0.6577   0.8944   0.6112     H
C       0.6588   0.4088      0.5     C
C       0.6588   0.5912      0.5     C
C      0.65935  0.05603  0.11043     C
C      0.65935  0.05603  0.88957     C
C      0.65935  0.94397  0.11043     C
C      0.65935  0.94397  0.88957     C
H        0.662   0.4363   0.1182     H
H        0.662   0.4363   0.8818     H
H        0.662   0.5637   0.1182     H
H        0.662   0.5637   0.8818     H
C      0.66214   0.2736  0.02441     C
C      0.66214   0.2736  0.97559     C
C      0.66214   0.7264  0.02441     C
C      0.66214   0.7264  0.97559     C
C      0.66251  0.46429  0.14866     C
C      0.66251  0.46429  0.85134     C
C      0.66251  0.53571  0.14866     C
C      0.66251  0.53571  0.85134     C
H       0.6629   0.0628    0.093     H
H       0.6629   0.0628    0.907     H
H       0.6629   0.9372    0.093     H
H       0.6629   0.9372    0.907     H
C      0.66489  0.06115  0.43771     C
C      0.66489  0.06115  0.56229     C
C      0.66489  0.93885  0.43771     C
C      0.66489  0.93885  0.56229     C
C      0.67014  0.02502  0.14719     C
C      0.67014  0.02502  0.85281     C
C      0.67014  0.97498  0.14719     C
C      0.67014  0.97498  0.85281     C
H       0.6709   0.2777   0.0408     H
H       0.6709   0.2777   0.9592     H
H       0.6709   0.7223   0.0408     H
H       0.6709   0.7223   0.9592     H
C       0.6725  0.07904  0.41692     C
C       0.6725  0.07904  0.58308     C
C       0.6725  0.92096  0.41692     C
C       0.6725  0.92096  0.58308     C
C      0.67548  0.03518  0.12115     C
C      0.67548  0.03518  0.87885     C
C      0.67548  0.96482  0.12115     C
C      0.67548  0.96482  0.87885     C
C       0.6767   0.2751      0.0     C
C       0.6767   0.7249      0.0     C
O      0.67684  0.02776  0.47118     O
O      0.67684  0.02776  0.52882     O
O      0.67684  0.97224  0.47118     O
O      0.67684  0.97224  0.52882     O
H       0.6799   0.4711   0.1451     H
H       0.6799   0.4711   0.8549     H
H       0.6799   0.5289   0.1451     H
H       0.6799   0.5289   0.8549     H
C       0.6852   0.0443   0.4534     C
C       0.6852   0.0443   0.5466     C
C       0.6852   0.9557   0.4534     C
C       0.6852   0.9557   0.5466     C
C       0.6855   0.3986      0.5     C
C       0.6855   0.6014      0.5     C
C      0.68744      0.0  0.15655     C
C      0.68744      0.0  0.84345     C
C       0.6877      0.5   0.1904     C
C       0.6877      0.5   0.8096     C
H       0.6899    0.028   0.1109     H
H       0.6899    0.028   0.8891     H
H       0.6899    0.972   0.1109     H
H       0.6899    0.972   0.8891     H
C       0.6904      0.0   0.1877     C
C       0.6904      0.0   0.8123     C
H       0.6909   0.0812   0.4125     H
H       0.6909   0.0812   0.5875     H
H       0.6909   0.9188   0.4125     H
H       0.6909   0.9188   0.5875     H
H       0.6917   0.0401   0.1931     H
H       0.6917   0.0401   0.8069     H
H       0.6917   0.9599   0.1931     H
H       0.6917   0.9599   0.8069     H
H       0.6931   0.4599   0.1917     H
H       0.6931   0.4599   0.8083     H
H       0.6931   0.5401   0.1917     H
H       0.6931   0.5401   0.8083     H
C       0.6938   0.0235  0.20214     C
C       0.6938   0.0235  0.79786     C
C       0.6938   0.9765  0.20214     C
C       0.6938   0.9765  0.79786     C
Zr     0.69952      0.0      0.5    Zr
C       0.7005   0.0238   0.2298     C
C       0.7005   0.0238   0.7702     C
C       0.7005   0.9762   0.2298     C
C       0.7005   0.9762   0.7702     C
C      0.70214   0.4765   0.1938     C
C      0.70214   0.4765   0.8062     C
C      0.70214   0.5235   0.1938     C
C      0.70214   0.5235   0.8062     C
H       0.7024   0.0404   0.2388     H
H       0.7024   0.0404   0.7612     H
H       0.7024   0.9596   0.2388     H
H       0.7024   0.9596   0.7612     H
C       0.7034   0.2842      0.0     C
C       0.7034   0.7158      0.0     C
C       0.7042   0.3898      0.5     C
C       0.7042   0.6102      0.5     C
C       0.7043      0.0   0.2442     C
C       0.7043      0.0   0.7558     C
C       0.7103      0.0   0.2736     C
C       0.7103      0.0   0.7264     C
O      0.71068   0.0516  0.44783     O
O      0.71068   0.0516  0.55217     O
O      0.71068   0.9484  0.44783     O
O      0.71068   0.9484  0.55217     O
C       0.7148      0.0  0.14485     C
C       0.7148      0.0  0.85515     C
C       0.7158      0.0   0.2966     C
C       0.7158      0.0   0.7034     C
H       0.7215   0.0394   0.1432     H
H       0.7215   0.0394   0.8568     H
H       0.7215   0.9606   0.1432     H
H       0.7215   0.9606   0.8568     H
O      0.72192  0.04046      0.5     O
O      0.72192  0.95954      0.5     O
H       0.7223   0.0408   0.3291     H
H       0.7223   0.0408   0.6709     H
H       0.7223   0.9592   0.3291     H
H       0.7223   0.9592   0.6709     H
C       0.7249      0.0   0.3233     C
C       0.7249      0.0   0.6767     C
C       0.7264  0.02441  0.33786     C
C       0.7264  0.02441  0.66214     C
C       0.7264   0.2897      0.0     C
C       0.7264   0.7103      0.0     C
C       0.7264  0.97559  0.33786     C
C       0.7264  0.97559  0.66214     C
O       0.7283      0.0  0.46897     O
O       0.7283      0.0  0.53103     O
C       0.7298   0.4762   0.2005     C
C       0.7298   0.4762   0.7995     C
C       0.7298   0.5238   0.2005     C
C       0.7298   0.5238   0.7995     C
C       0.7299   0.0225   0.1404     C
C       0.7299   0.0225   0.8596     C
C       0.7299   0.9775   0.1404     C
C       0.7299   0.9775   0.8596     C
C         0.73   0.3774      0.5     C
C         0.73   0.6226      0.5     C
C       0.7339  0.02446  0.36533     C
C       0.7339  0.02446  0.63467     C
C       0.7339  0.97554  0.36533     C
C       0.7339  0.97554  0.63467     C
H       0.7341   0.3673   0.4608     H
H       0.7341   0.3673   0.5392     H
H       0.7341   0.6327   0.4608     H
H       0.7341   0.6327   0.5392     H
H       0.7362   0.0411   0.3743     H
H       0.7362   0.0411   0.6257     H
H       0.7362   0.9589   0.3743     H
H       0.7362   0.9589   0.6257     H
C       0.7379      0.0   0.3799     C
C       0.7379      0.0   0.6201     C
H       0.7388   0.4596   0.2024     H
H       0.7388   0.4596   0.7976     H
H       0.7388   0.5404   0.2024     H
H       0.7388   0.5404   0.7976     H
C       0.7436    0.368   0.4773     C
C       0.7436    0.368   0.5227     C
C       0.7436    0.632   0.4773     C
C       0.7436    0.632   0.5227     C
C       0.7442      0.5   0.2043     C
C       0.7442      0.5   0.7957     C
C      0.74506      0.0  0.40954     C
C      0.74506      0.0  0.59046     C
O      0.74767  0.02383  0.42056     O
O      0.74767  0.02383  0.57944     O
O      0.74767  0.97617  0.42056     O
O      0.74767  0.97617  0.57944     O
Zr        0.75 0.035731 0.464269    Zr
Zr        0.75 0.035731 0.535731    Zr
Zr        0.75 0.964269 0.464269    Zr
Zr        0.75 0.964269 0.535731    Zr
O      0.75233  0.07944  0.47617     O
O      0.75233  0.07944  0.52383     O
O      0.75233  0.92056  0.47617     O
O      0.75233  0.92056  0.52383     O
C      0.75494  0.09046      0.5     C
C      0.75494  0.90954      0.5     C
C       0.7558   0.2957      0.0     C
C       0.7558   0.7043      0.0     C
C       0.7564   0.0227    0.132     C
C       0.7564   0.0227    0.868     C
C       0.7564   0.9773    0.132     C
C       0.7564   0.9773    0.868     C
H       0.7612   0.2976   0.0404     H
H       0.7612   0.2976   0.9596     H
H       0.7612   0.7024   0.0404     H
H       0.7612   0.7024   0.9596     H
C       0.7621   0.1201      0.5     C
C       0.7621   0.8799      0.5     C
H       0.7638   0.1257   0.4589     H
H       0.7638   0.1257   0.5411     H
H       0.7638   0.8743   0.4589     H
H       0.7638   0.8743   0.5411     H
H       0.7659   0.0392   0.1327     H
H       0.7659   0.0392   0.8673     H
H       0.7659   0.9608   0.1327     H
H       0.7659   0.9608   0.8673     H
C       0.7661  0.13467  0.47554     C
C       0.7661  0.13467  0.52446     C
C       0.7661  0.86533  0.47554     C
C       0.7661  0.86533  0.52446     C
C         0.77      0.0   0.1226     C
C         0.77      0.0   0.8774     C
C       0.7701   0.3596   0.4775     C
C       0.7701   0.3596   0.5225     C
C       0.7701   0.6404   0.4775     C
C       0.7701   0.6404   0.5225     C
C       0.7702   0.2995   0.0238     C
C       0.7702   0.2995   0.9762     C
C       0.7702   0.7005   0.0238     C
C       0.7702   0.7005   0.9762     C
O       0.7717  0.03103      0.5     O
O       0.7717  0.96897      0.5     O
C       0.7736  0.16214  0.47559     C
C       0.7736  0.16214  0.52441     C
C       0.7736      0.5   0.2103     C
C       0.7736      0.5   0.7897     C
C       0.7736  0.83786  0.47559     C
C       0.7736  0.83786  0.52441     C
C       0.7751   0.1767      0.5     C
C       0.7751   0.8233      0.5     C
H       0.7777   0.1709   0.4592     H
H       0.7777   0.1709   0.5408     H
H       0.7777   0.8291   0.4592     H
H       0.7777   0.8291   0.5408     H
O      0.77808      0.0  0.45954     O
O      0.77808      0.0  0.54046     O
H       0.7785   0.3568   0.4606     H
H       0.7785   0.3568   0.5394     H
H       0.7785   0.6432   0.4606     H
H       0.7785   0.6432   0.5394     H
C       0.7842   0.2034      0.5     C
C       0.7842   0.7966      0.5     C
C       0.7852  0.35515      0.5     C
C       0.7852  0.64485      0.5     C
O      0.78932  0.05217   0.4484     O
O      0.78932  0.05217   0.5516     O
O      0.78932  0.94783   0.4484     O
O      0.78932  0.94783   0.5516     O
C       0.7897   0.2264      0.5     C
C       0.7897   0.7736      0.5     C
C       0.7957   0.2558      0.5     C
C       0.7957   0.7442      0.5     C
C       0.7958      0.0   0.1102     C
C       0.7958      0.0   0.8898     C
C       0.7966      0.5   0.2158     C
C       0.7966      0.5   0.7842     C
H       0.7976   0.2612   0.4596     H
H       0.7976   0.2612   0.5404     H
H       0.7976   0.7388   0.4596     H
H       0.7976   0.7388   0.5404     H
C      0.79786   0.3062   0.0235     C
C      0.79786   0.3062   0.9765     C
C      0.79786   0.6938   0.0235     C
C      0.79786   0.6938   0.9765     C
C       0.7995   0.2702   0.4762     C
C       0.7995   0.2702   0.5238     C
C       0.7995   0.7298   0.4762     C
C       0.7995   0.7298   0.5238     C
Zr     0.80048      0.0      0.5    Zr
C       0.8062  0.29786   0.4765     C
C       0.8062  0.29786   0.5235     C
C       0.8062  0.70214   0.4765     C
C       0.8062  0.70214   0.5235     C
H       0.8069   0.3083   0.0401     H
H       0.8069   0.3083   0.9599     H
H       0.8069   0.6917   0.0401     H
H       0.8069   0.6917   0.9599     H
H       0.8083   0.3069   0.4599     H
H       0.8083   0.3069   0.5401     H
H       0.8083   0.6931   0.4599     H
H       0.8083   0.6931   0.5401     H
H       0.8091   0.0875   0.4188     H
H       0.8091   0.0875   0.5812     H
H       0.8091   0.9125   0.4188     H
H       0.8091   0.9125   0.5812     H
C       0.8096   0.3123      0.5     C
C       0.8096   0.6877      0.5     C
H       0.8101   0.3891    0.472     H
H       0.8101   0.3891    0.528     H
H       0.8101   0.6109    0.472     H
H       0.8101   0.6109    0.528     H
C       0.8123   0.3096      0.0     C
C       0.8123   0.6904      0.0     C
C      0.81256  0.34345      0.5     C
C      0.81256  0.65655      0.5     C
C       0.8145      0.0   0.1014     C
C       0.8145      0.0   0.8986     C
C       0.8148   0.0466   0.4557     C
C       0.8148   0.0466   0.5443     C
C       0.8148   0.9534   0.4557     C
C       0.8148   0.9534   0.5443     C
H       0.8201   0.3549   0.0289     H
H       0.8201   0.3549   0.9711     H
H       0.8201   0.6451   0.0289     H
H       0.8201   0.6451   0.9711     H
O      0.82316  0.02882  0.47224     O
O      0.82316  0.02882  0.52776     O
O      0.82316  0.97118  0.47224     O
O      0.82316  0.97118  0.52776     O
C       0.8233      0.5   0.2249     C
C       0.8233      0.5   0.7751     C
C      0.82452  0.37885  0.46482     C
C      0.82452  0.37885  0.53518     C
C      0.82452  0.62115  0.46482     C
C      0.82452  0.62115  0.53518     C
C       0.8275  0.08308  0.42096     C
C       0.8275  0.08308  0.57904     C
C       0.8275  0.91692  0.42096     C
C       0.8275  0.91692  0.57904     C
H       0.8291   0.4592   0.2223     H
H       0.8291   0.4592   0.7777     H
H       0.8291   0.5408   0.2223     H
H       0.8291   0.5408   0.7777     H
C      0.82986  0.35281  0.47498     C
C      0.82986  0.35281  0.52502     C
C      0.82986  0.64719  0.47498     C
C      0.82986  0.64719  0.52502     C
C      0.83511  0.06229  0.43885     C
C      0.83511  0.06229  0.56115     C
C      0.83511  0.93771  0.43885     C
C      0.83511  0.93771  0.56115     C
H       0.8371    0.407   0.4372     H
H       0.8371    0.407   0.5628     H
H       0.8371    0.593   0.4372     H
H       0.8371    0.593   0.5628     H
C      0.83749  0.35134  0.03571     C
C      0.83749  0.35134  0.96429     C
C      0.83749  0.64866  0.03571     C
C      0.83749  0.64866  0.96429     C
C      0.83786  0.47559   0.2264     C
C      0.83786  0.47559   0.7736     C
C      0.83786  0.52441   0.2264     C
C      0.83786  0.52441   0.7736     C
H        0.838   0.3818   0.0637     H
H        0.838   0.3818   0.9363     H
H        0.838   0.6182   0.0637     H
H        0.838   0.6182   0.9363     H
C      0.84065  0.38957  0.44397     C
C      0.84065  0.38957  0.55603     C
C      0.84065  0.61043  0.44397     C
C      0.84065  0.61043  0.55603     C
C       0.8412      0.0   0.0912     C
C       0.8412      0.0   0.9088     C
H       0.8423   0.1112   0.3944     H
H       0.8423   0.1112   0.6056     H
H       0.8423   0.8888   0.3944     H
H       0.8423   0.8888   0.6056     H
C      0.84345  0.31256      0.0     C
C      0.84345  0.68744      0.0     C
H       0.8469    0.039   0.0842     H
H       0.8469    0.039   0.9158     H
H       0.8469    0.961   0.0842     H
H       0.8469    0.961   0.9158     H
C      0.84737  0.09726  0.40634     C
C      0.84737  0.09726  0.59366     C
C      0.84737  0.90274  0.40634     C
C      0.84737  0.90274  0.59366     C
C      0.84822  0.36747  0.05656     C
C      0.84822  0.36747  0.94344     C
C      0.84822  0.63253  0.05656     C
C      0.84822  0.63253  0.94344     C
C      0.85134  0.33749  0.46429     C
C      0.85134  0.33749  0.53571     C
C      0.85134  0.66251  0.46429     C
C      0.85134  0.66251  0.53571     C
C      0.85281  0.32986  0.02502     C
C      0.85281  0.32986  0.97498     C
C      0.85281  0.67014  0.02502     C
C      0.85281  0.67014  0.97498     C
H       0.8549   0.3201   0.4711     H
H       0.8549   0.3201   0.5289     H
H       0.8549   0.6799   0.4711     H
H       0.8549   0.6799   0.5289     H
C      0.85515   0.2852      0.0     C
C      0.85515   0.7148      0.0     C
C       0.8556   0.0221    0.083     C
C       0.8556   0.0221    0.917     C
C       0.8556   0.9779    0.083     C
C       0.8556   0.9779    0.917     C
H       0.8568   0.2785   0.0394     H
H       0.8568   0.2785   0.9606     H
H       0.8568   0.7215   0.0394     H
H       0.8568   0.7215   0.9606     H
C       0.8596   0.2701   0.0225     C
C       0.8596   0.2701   0.9775     C
C       0.8596   0.7299   0.0225     C
C       0.8596   0.7299   0.9775     C
C      0.86212  0.37426  0.43328     C
C      0.86212  0.37426  0.56672     C
C      0.86212  0.62574  0.43328     C
C      0.86212  0.62574  0.56672     C
C       0.8626  0.05569  0.44211     C
C       0.8626  0.05569  0.55789     C
C       0.8626  0.94431  0.44211     C
C       0.8626  0.94431  0.55789     C
C      0.86533  0.47554   0.2339     C
C      0.86533  0.47554   0.7661     C
C      0.86533  0.52446   0.2339     C
C      0.86533  0.52446   0.7661     C
H       0.8673   0.2341   0.0392     H
H       0.8673   0.2341   0.9608     H
H       0.8673   0.7659   0.0392     H
H       0.8673   0.7659   0.9608     H
C      0.86747  0.34822  0.44344     C
C      0.86747  0.34822  0.55656     C
C      0.86747  0.65178  0.44344     C
C      0.86747  0.65178  0.55656     C
H       0.8677   0.0418   0.4541     H
H       0.8677   0.0418   0.5459     H
H       0.8677   0.9582   0.4541     H
H       0.8677   0.9582   0.5459     H
C        0.868   0.2436   0.0227     C
C        0.868   0.2436   0.9773     C
C        0.868   0.7564   0.0227     C
C        0.868   0.7564   0.9773     C
C      0.87426  0.36212  0.06672     C
C      0.87426  0.36212  0.93328     C
C      0.87426  0.63788  0.06672     C
C      0.87426  0.63788  0.93328     C
H       0.8743   0.4589   0.2362     H
H       0.8743   0.4589   0.7638     H
H       0.8743   0.5411   0.2362     H
H       0.8743   0.5411   0.7638     H
C      0.87486  0.09065   0.4096     C
C      0.87486  0.09065   0.5904     C
C      0.87486  0.90935   0.4096     C
C      0.87486  0.90935   0.5904     C
C       0.8774     0.23      0.0     C
C       0.8774     0.77      0.0     C
C      0.87885  0.32452  0.03518     C
C      0.87885  0.32452  0.96482     C
C      0.87885  0.67548  0.03518     C
C      0.87885  0.67548  0.96482     C
C       0.8799      0.5   0.2379     C
C       0.8799      0.5   0.7621     C
C         0.88   0.3839   0.4108     C
C         0.88   0.3839   0.5892     C
C         0.88   0.6161   0.4108     C
C         0.88   0.6161   0.5892     C
H       0.8818    0.338   0.4363     H
H       0.8818    0.338   0.5637     H
H       0.8818    0.662   0.4363     H
H       0.8818    0.662   0.5637     H
C       0.8821   0.0223    0.073     C
C       0.8821   0.0223    0.927     C
C       0.8821   0.9777    0.073     C
C       0.8821   0.9777    0.927     C
C      0.88248  0.06987  0.42749     C
C      0.88248  0.06987  0.57251     C
C      0.88248  0.93013  0.42749     C
C      0.88248  0.93013  0.57251     C
C       0.8839     0.38   0.0892     C
C       0.8839     0.38   0.9108     C
C       0.8839     0.62   0.0892     C
C       0.8839     0.62   0.9108     C
H       0.8888   0.3944   0.1577     H
H       0.8888   0.3944   0.8423     H
H       0.8888   0.6056   0.1577     H
H       0.8888   0.6056   0.8423     H
H       0.8891   0.3101    0.028     H
H       0.8891   0.3101    0.972     H
H       0.8891   0.6899    0.028     H
H       0.8891   0.6899    0.972     H
C      0.88957  0.34065  0.05603     C
C      0.88957  0.34065  0.94397     C
C      0.88957  0.65935  0.05603     C
C      0.88957  0.65935  0.94397     C
C       0.8898   0.2042      0.0     C
C       0.8898   0.7958      0.0     C
H        0.891   0.0391    0.072     H
H        0.891   0.0391    0.928     H
H        0.891   0.9609    0.072     H
H        0.891   0.9609    0.928     H
C       0.8932   0.3947   0.3953     C
C       0.8932   0.3947   0.6047     C
C       0.8932   0.6053   0.3953     C
C       0.8932   0.6053   0.6047     C
H       0.8944   0.3888   0.3423     H
H       0.8944   0.3888   0.6577     H
H       0.8944   0.6112   0.3423     H
H       0.8944   0.6112   0.6577     H
C       0.8947   0.3932   0.1047     C
C       0.8947   0.3932   0.8953     C
C       0.8947   0.6068   0.1047     C
C       0.8947   0.6068   0.8953     C
C       0.8953   0.1053   0.3932     C
C       0.8953   0.1053   0.6068     C
C       0.8953   0.8947   0.3932     C
C       0.8953   0.8947   0.6068     C
C       0.8962      0.0   0.0646     C
C       0.8962      0.0   0.9354     C
C       0.8986   0.1855      0.0     C
C       0.8986   0.8145      0.0     C
H       0.9009   0.0654   0.4297     H
H       0.9009   0.0654   0.5703     H
H       0.9009   0.9346   0.4297     H
H       0.9009   0.9346   0.5703     H
C      0.90274  0.40634  0.15263     C
C      0.90274  0.40634  0.84737     C
C      0.90274  0.59366  0.15263     C
C      0.90274  0.59366  0.84737     C
C      0.90634  0.40274  0.34737     C
C      0.90634  0.40274  0.65263     C
C      0.90634  0.59726  0.34737     C
C      0.90634  0.59726  0.65263     C
H        0.907   0.3371   0.0628     H
H        0.907   0.3371   0.9372     H
H        0.907   0.6629   0.0628     H
H        0.907   0.6629   0.9372     H
C       0.9088   0.1588      0.0     C
C       0.9088   0.8412      0.0     C
C      0.90935   0.4096  0.12514     C
C      0.90935   0.4096  0.87486     C
C      0.90935   0.5904  0.12514     C
C      0.90935   0.5904  0.87486     C
C      0.90954      0.5  0.24506     C
C      0.90954      0.5  0.75494     C
C       0.9096  0.40935  0.37486     C
C       0.9096  0.40935  0.62514     C
C       0.9096  0.59065  0.37486     C
C       0.9096  0.59065  0.62514     C
C       0.9108   0.1161     0.38     C
C       0.9108   0.1161     0.62     C
C       0.9108   0.8839     0.38     C
C       0.9108   0.8839     0.62     C
H       0.9125   0.4188   0.1909     H
H       0.9125   0.4188   0.8091     H
H       0.9125   0.5812   0.1909     H
H       0.9125   0.5812   0.8091     H
H       0.9158   0.1531    0.039     H
H       0.9158   0.1531    0.961     H
H       0.9158   0.8469    0.039     H
H       0.9158   0.8469    0.961     H
C      0.91692  0.42096   0.1725     C
C      0.91692  0.42096   0.8275     C
C      0.91692  0.57904   0.1725     C
C      0.91692  0.57904   0.8275     C
C        0.917   0.1444   0.0221     C
C        0.917   0.1444   0.9779     C
C        0.917   0.8556   0.0221     C
C        0.917   0.8556   0.9779     C
H       0.9188   0.4125   0.3091     H
H       0.9188   0.4125   0.6909     H
H       0.9188   0.5875   0.3091     H
H       0.9188   0.5875   0.6909     H
O      0.92056  0.47617  0.24767     O
O      0.92056  0.47617  0.75233     O
O      0.92056  0.52383  0.24767     O
O      0.92056  0.52383  0.75233     O
C      0.92096  0.41692   0.3275     C
C      0.92096  0.41692   0.6725     C
C      0.92096  0.58308   0.3275     C
C      0.92096  0.58308   0.6725     C
C        0.924      0.0   0.0537     C
C        0.924      0.0   0.9463     C
C        0.927   0.1179   0.0223     C
C        0.927   0.1179   0.9777     C
C        0.927   0.8821   0.0223     C
C        0.927   0.8821   0.9777     C
C      0.92749  0.43013  0.38248     C
C      0.92749  0.43013  0.61752     C
C      0.92749  0.56987  0.38248     C
C      0.92749  0.56987  0.61752     C
H        0.928    0.109   0.0391     H
H        0.928    0.109   0.9609     H
H        0.928    0.891   0.0391     H
H        0.928    0.891   0.9609     H
H       0.9297   0.4346   0.4009     H
H       0.9297   0.4346   0.5991     H
H       0.9297   0.5654   0.4009     H
H       0.9297   0.5654   0.5991     H
C      0.93013  0.42749  0.11752     C
C      0.93013  0.42749  0.88248     C
C      0.93013  0.57251  0.11752     C
C      0.93013  0.57251  0.88248     C
O       0.9318   0.0209   0.0432     O
O       0.9318   0.0209   0.9568     O
O       0.9318   0.9791   0.0432     O
O       0.9318   0.9791   0.9568     O
C      0.93328  0.12574  0.36212     C
C      0.93328  0.12574  0.63788     C
C      0.93328  0.87426  0.36212     C
C      0.93328  0.87426  0.63788     C
H       0.9346   0.4297   0.0991     H
H       0.9346   0.4297   0.9009     H
H       0.9346   0.5703   0.0991     H
H       0.9346   0.5703   0.9009     H
C       0.9354   0.1038      0.0     C
C       0.9354   0.8962      0.0     C
H       0.9363    0.162   0.3818     H
H       0.9363    0.162   0.6182     H
H       0.9363    0.838   0.3818     H
H       0.9363    0.838   0.6182     H
H       0.9372    0.093   0.3371     H
H       0.9372    0.093   0.6629     H
H       0.9372    0.907   0.3371     H
H       0.9372    0.907   0.6629     H
C      0.93771  0.43885  0.16489     C
C      0.93771  0.43885  0.83511     C
C      0.93771  0.56115  0.16489     C
C      0.93771  0.56115  0.83511     C
C      0.93885  0.43771  0.33511     C
C      0.93885  0.43771  0.66489     C
C      0.93885  0.56229  0.33511     C
C      0.93885  0.56229  0.66489     C
C      0.94211  0.44431   0.3626     C
C      0.94211  0.44431   0.6374     C
C      0.94211  0.55569   0.3626     C
C      0.94211  0.55569   0.6374     C
C      0.94344  0.15178  0.36747     C
C      0.94344  0.15178  0.63253     C
C      0.94344  0.84822  0.36747     C
C      0.94344  0.84822  0.63253     C
C      0.94397  0.11043  0.34065     C
C      0.94397  0.11043  0.65935     C
C      0.94397  0.88957  0.34065     C
C      0.94397  0.88957  0.65935     C
C      0.94431  0.44211   0.1374     C
C      0.94431  0.44211   0.8626     C
C      0.94431  0.55789   0.1374     C
C      0.94431  0.55789   0.8626     C
C       0.9463    0.076      0.0     C
C       0.9463    0.924      0.0     C
O      0.94783   0.4484  0.21068     O
O      0.94783   0.4484  0.78932     O
O      0.94783   0.5516  0.21068     O
O      0.94783   0.5516  0.78932     O
O       0.9484  0.44783  0.28932     O
O       0.9484  0.44783  0.71068     O
O       0.9484  0.55217  0.28932     O
O       0.9484  0.55217  0.71068     O
C       0.9534   0.4557   0.1852     C
C       0.9534   0.4557   0.8148     C
C       0.9534   0.5443   0.1852     C
C       0.9534   0.5443   0.8148     C
H       0.9541   0.4582   0.3677     H
H       0.9541   0.4582   0.6323     H
H       0.9541   0.5418   0.3677     H
H       0.9541   0.5418   0.6323     H
C       0.9557   0.4534   0.3148     C
C       0.9557   0.4534   0.6852     C
C       0.9557   0.5466   0.3148     C
C       0.9557   0.5466   0.6852     C
O       0.9568   0.0682   0.0209     O
O       0.9568   0.0682   0.9791     O
O       0.9568   0.9318   0.0209     O
O       0.9568   0.9318   0.9791     O
O      0.95688  0.02279      0.0     O
O      0.95688  0.97721      0.0     O
H       0.9582   0.4541   0.1323     H
H       0.9582   0.4541   0.8677     H
H       0.9582   0.5459   0.1323     H
H       0.9582   0.5459   0.8677     H
H       0.9589   0.3743   0.2638     H
H       0.9589   0.3743   0.7362     H
H       0.9589   0.6257   0.2638     H
H       0.9589   0.6257   0.7362     H
H       0.9592   0.3291   0.2777     H
H       0.9592   0.3291   0.7223     H
H       0.9592   0.6709   0.2777     H
H       0.9592   0.6709   0.7223     H
O      0.95954      0.5  0.27808     O
O      0.95954      0.5  0.72192     O
H       0.9596   0.2388   0.2976     H
H       0.9596   0.2388   0.7024     H
H       0.9596   0.7612   0.2976     H
H       0.9596   0.7612   0.7024     H
H       0.9599   0.1931   0.3083     H
H       0.9599   0.1931   0.6917     H
H       0.9599   0.8069   0.3083     H
H       0.9599   0.8069   0.6917     H
H       0.9606   0.1432   0.2785     H
H       0.9606   0.1432   0.7215     H
H       0.9606   0.8568   0.2785     H
H       0.9606   0.8568   0.7215     H
H       0.9608   0.1327   0.2341     H
H       0.9608   0.1327   0.7659     H
H       0.9608   0.8673   0.2341     H
H       0.9608   0.8673   0.7659     H
H       0.9609    0.072    0.109     H
H       0.9609    0.072    0.891     H
H       0.9609    0.928    0.109     H
H       0.9609    0.928    0.891     H
H        0.961   0.0842   0.1531     H
H        0.961   0.0842   0.8469     H
H        0.961   0.9158   0.1531     H
H        0.961   0.9158   0.8469     H
Zr    0.964269 0.464269     0.25    Zr
Zr    0.964269 0.464269     0.75    Zr
Zr    0.964269 0.535731     0.25    Zr
Zr    0.964269 0.535731     0.75    Zr
C      0.96429  0.16251  0.35134     C
C      0.96429  0.16251  0.64866     C
C      0.96429  0.83749  0.35134     C
C      0.96429  0.83749  0.64866     C
C      0.96482  0.12115  0.32452     C
C      0.96482  0.12115  0.67548     C
C      0.96482  0.87885  0.32452     C
C      0.96482  0.87885  0.67548     C
O      0.96897      0.5   0.2283     O
O      0.96897      0.5   0.7717     O
H       0.9711   0.1799   0.3549     H
H       0.9711   0.1799   0.6451     H
H       0.9711   0.8201   0.3549     H
H       0.9711   0.8201   0.6451     H
O      0.97118  0.47224  0.17684     O
O      0.97118  0.47224  0.82316     O
O      0.97118  0.52776  0.17684     O
O      0.97118  0.52776  0.82316     O
H        0.972   0.1109   0.3101     H
H        0.972   0.1109   0.6899     H
H        0.972   0.8891   0.3101     H
H        0.972   0.8891   0.6899     H
Zr     0.97224  0.02776  0.02776    Zr
Zr     0.97224  0.02776  0.97224    Zr
O      0.97224  0.47118  0.32316     O
O      0.97224  0.47118  0.67684     O
O      0.97224  0.52882  0.32316     O
O      0.97224  0.52882  0.67684     O
Zr     0.97224  0.97224  0.02776    Zr
Zr     0.97224  0.97224  0.97224    Zr
C      0.97498  0.14719  0.32986     C
C      0.97498  0.14719  0.67014     C
C      0.97498  0.85281  0.32986     C
C      0.97498  0.85281  0.67014     C
C      0.97554  0.36533   0.2661     C
C      0.97554  0.36533   0.7339     C
C      0.97554  0.63467   0.2661     C
C      0.97554  0.63467   0.7339     C
C      0.97559  0.33786   0.2736     C
C      0.97559  0.33786   0.7264     C
C      0.97559  0.66214   0.2736     C
C      0.97559  0.66214   0.7264     C
O      0.97617  0.42056  0.25233     O
O      0.97617  0.42056  0.74767     O
O      0.97617  0.57944  0.25233     O
O      0.97617  0.57944  0.74767     O
C       0.9762   0.2298   0.2995     C
C       0.9762   0.2298   0.7005     C
C       0.9762   0.7702   0.2995     C
C       0.9762   0.7702   0.7005     C
C       0.9765  0.20214   0.3062     C
C       0.9765  0.20214   0.6938     C
C       0.9765  0.79786   0.3062     C
C       0.9765  0.79786   0.6938     C
O      0.97721      0.0  0.04312     O
O      0.97721      0.0  0.95688     O
C       0.9773    0.132   0.2436     C
C       0.9773    0.132   0.7564     C
C       0.9773    0.868   0.2436     C
C       0.9773    0.868   0.7564     C
C       0.9775   0.1404   0.2701     C
C       0.9775   0.1404   0.7299     C
C       0.9775   0.8596   0.2701     C
C       0.9775   0.8596   0.7299     C
C       0.9777    0.073   0.1179     C
C       0.9777    0.073   0.8821     C
C       0.9777    0.927   0.1179     C
C       0.9777    0.927   0.8821     C
C       0.9779    0.083   0.1444     C
C       0.9779    0.083   0.8556     C
C       0.9779    0.917   0.1444     C
C       0.9779    0.917   0.8556     C
O       0.9791   0.0432   0.0682     O
O       0.9791   0.0432   0.9318     O
O       0.9791   0.9568   0.0682     O
O       0.9791   0.9568   0.9318     O
