data_I
_chemical_name_common  '/Users/gianmarcoterrones/Research/MOFs/MOF_structures/water_stability_work_extra_structs/cleaned_from_CoRE/ATEJOA_clean'
_cell_length_a  9.54120
_cell_length_b 12.84200
_cell_length_c 14.45500
_cell_angle_alpha 116.31600
_cell_angle_beta  109.19900
_cell_angle_gamma 90.15000
_space_group_name_H-M_alt      'P 1'


loop_
_space_group_symop_operation_xyz
  'x, y, z' 

loop_
_atom_site_label
_atom_site_fract_x
_atom_site_fract_y
_atom_site_fract_z
_atom_site_type_symbol
O        0.013   0.3531    0.305     O
H       0.0154   0.9017   0.7412     H
O       0.0162   0.4529   0.2983     O
H       0.0198   0.3512   0.7474     H
C        0.038   0.7063    0.577     C
C        0.046   0.3768   0.5766     C
O       0.0798    0.301   0.4082     O
O         0.08   0.6039   0.4077     O
O        0.085   0.6224    0.514     O
O       0.0862   0.3954   0.5206     O
C        0.096    0.315    0.726     C
C       0.1007   0.9155   0.7278     C
C        0.129    0.314   0.6409     C
C       0.1363   0.8281   0.6436     C
H       0.1714   0.2362   0.8309     H
H       0.1793   0.0857   0.8521     H
C        0.194    0.252     0.78     C
C       0.1984   0.0267   0.7931     C
H       0.2218   0.1836   0.6593     H
Gd     0.23128  0.48142  0.46269    Gd
O        0.242   0.5128   0.6495     O
O       0.2451   0.6362   0.6477     O
C        0.252    0.256    0.625     C
C       0.2625     0.85   0.6205     C
H       0.2625   0.9813   0.6592     H
H       0.2742   0.6587   0.2562     H
H       0.2762    0.247   0.5652     H
H       0.2776   0.2738   0.5632     H
H       0.2796   0.0955   0.2536     H
H       0.2829   0.8036   0.5731     H
O        0.284   0.3478   0.2988     O
O        0.289   0.4549   0.3038     O
C        0.302    0.223    0.757     C
C       0.3227   0.2194   0.6787     C
H       0.3227    0.731   0.1496     H
O        0.328   0.3005   0.4047     O
C       0.3283   0.0493   0.7684     C
O       0.3287   0.6051   0.4077     O
H       0.3309   0.9096   0.1677     H
C       0.3481   0.5992    0.697     C
C       0.3559   0.2696   0.6196     C
C       0.3565   0.9602   0.6803     C
C        0.367    0.861    0.626     C
C       0.3727   0.6878   0.2708     C
C        0.378    0.082    0.274     C
H       0.3904   0.5172   0.8425     H
H        0.402   0.1845   0.6612     H
C        0.402   0.7333   0.2092     C
O       0.4044   0.5161   0.6518     O
O       0.4046   0.6363    0.648     O
C        0.408    0.974    0.219     C
C       0.4118   0.6613   0.8235     C
N       0.4147   0.1639   0.8279     N
C       0.4232   0.5984   0.8813     C
O       0.4277   0.3912   0.5135     O
O        0.432   0.6252   0.5188     O
H       0.4354   0.9757   0.6583     H
C       0.4502   0.2158   0.7673     C
C        0.456    0.036    0.761     C
H       0.4579   0.8248   0.8428     H
C       0.4595   0.7829   0.8816     C
C       0.4619   0.6285   0.4198     C
C        0.467   0.2961   0.4211     C
H       0.4692    0.075   0.9654     H
C        0.472   0.2219   0.9438     C
C       0.4832   0.6545   0.9969     C
C        0.484    0.167    0.356     C
C       0.4904    0.157    0.003     C
H       0.4935   0.6107   0.0348     H
C       0.4936   0.6851   0.3572     C
C       0.5064   0.3149   0.6428     C
H       0.5065   0.3893   0.9652     H
C       0.5096    0.843    0.997     C
C        0.516    0.833    0.644     C
C       0.5168   0.3455   0.0031     C
C        0.528   0.7781   0.0562     C
H       0.5308    0.925   0.0346     H
C        0.533   0.7039   0.5789     C
C       0.5381   0.3715   0.5802     C
C       0.5405   0.2171   0.1184     C
H       0.5421   0.1752   0.1572     H
C        0.544    0.964    0.239     C
C       0.5498   0.7842   0.2327     C
H       0.5646   0.0243   0.3417     H
O        0.568   0.3748   0.4812     O
O       0.5723   0.6088   0.4865     O
C       0.5768   0.4016   0.1187     C
N       0.5853   0.8361   0.1721     N
C       0.5882   0.3387   0.1765     C
C        0.592    0.026    0.781     C
O       0.5954   0.3637    0.352     O
O       0.5956   0.4839   0.3482     O
C        0.598   0.2667   0.7908     C
H        0.598   0.8155   0.3388     H
H       0.6096   0.4828   0.1575     H
C        0.622    0.918    0.726     C
C       0.6273   0.3122   0.7292     C
C        0.633    0.139    0.374     C
C       0.6435   0.0398   0.3197     C
C       0.6441   0.7304   0.3804     C
C       0.6519   0.4008    0.303     C
H       0.6691   0.0904   0.8323     H
O       0.6713   0.3949   0.5923     O
C       0.6717   0.9507   0.2316     C
O        0.672   0.6995   0.5953     O
H       0.6773    0.269   0.8504     H
C       0.6773   0.7806   0.3213     C
C        0.698    0.777    0.243     C
O        0.711   0.5451   0.6962     O
O        0.716   0.6522   0.7012     O
H       0.7162   0.2107   0.4362     H
H       0.7204   0.9045   0.7464     H
H       0.7224   0.7262   0.4368     H
H       0.7238    0.753   0.4348     H
H       0.7258   0.3413   0.7438     H
H       0.7375   0.0187   0.3408     H
C       0.7375     0.15   0.3795     C
C        0.748    0.744    0.375     C
O       0.7549   0.3638   0.3523     O
O        0.758   0.4872   0.3505     O
Gd     0.76872  0.51858  0.53731    Gd
H       0.7782   0.8164   0.3407     H
C       0.8016   0.9733   0.2069     C
C        0.806    0.748     0.22     C
H       0.8207   0.9143   0.1479     H
H       0.8286   0.7638   0.1691     H
C       0.8637   0.1719   0.3564     C
C        0.871    0.686   0.3591     C
C       0.8993   0.0845   0.2722     C
C        0.904    0.685    0.274     C
O       0.9138   0.6046   0.4794     O
O        0.915   0.3776    0.486     O
O         0.92   0.3961   0.5923     O
O       0.9202    0.699   0.5918     O
C        0.954   0.6232   0.4234     C
C        0.962   0.2937    0.423     C
H       0.9802   0.6488   0.2526     H
O       0.9838   0.5471   0.7017     O
H       0.9846   0.0983   0.2588     H
O        0.987   0.6469    0.695     O
