data_image0
_cell_length_a       41.021
_cell_length_b       14.365
_cell_length_c       20.259
_cell_angle_alpha    90
_cell_angle_beta     108.59
_cell_angle_gamma    90

_symmetry_space_group_name_H-M    "P 1"
_symmetry_int_tables_number       1

loop_
  _symmetry_equiv_pos_as_xyz
  'x, y, z'

loop_
  _atom_site_label
  _atom_site_occupancy
  _atom_site_fract_x
  _atom_site_fract_y
  _atom_site_fract_z
  _atom_site_thermal_displace_type
  _atom_site_B_iso_or_equiv
  _atom_site_type_symbol
  Zn1      1.0000 0.58216  0.96559  0.62187  Biso   1.000  Zn
  Zn2      1.0000 0.22332  0.15442  0.82918  Biso   1.000  Zn
  O1       1.0000 0.61575  0.96980  0.56945  Biso   1.000  O
  O2       1.0000 0.56647  0.97050  0.48373  Biso   1.000  O
  O3       1.0000 0.61503  0.01410  0.21731  Biso   1.000  O
  O4       1.0000 0.56775  0.03890  0.24531  Biso   1.000  O
  O5       1.0000 0.22315  0.11280  0.91918  Biso   1.000  O
  O6       1.0000 0.22549  0.96290  0.89650  Biso   1.000  O
  O7       1.0000 0.28380  0.21520  0.15590  Biso   1.000  O
  O8       1.0000 0.27471  0.13750  0.24250  Biso   1.000  O
  N1       1.0000 0.55283  0.07960  0.60480  Biso   1.000  N
  N2       1.0000 0.51687  0.18890  0.61307  Biso   1.000  N
  N3       1.0000 0.27135  0.14770  0.82259  Biso   1.000  N
  N4       1.0000 0.31616  0.17880  0.78970  Biso   1.000  N
  N5       1.0000 0.43214  0.83140  0.88490  Biso   1.000  N
  N6       1.0000 0.43049  0.68740  0.84890  Biso   1.000  N
  N7       1.0000 0.30718  0.40820  0.25563  Biso   1.000  N
  N8       1.0000 0.33616  0.43880  0.36567  Biso   1.000  N
  C1       1.0000 0.59825  0.96970  0.50500  Biso   1.000  C
  C2       1.0000 0.61762  0.96820  0.45300  Biso   1.000  C
  C3       1.0000 0.65187  0.94130  0.47250  Biso   1.000  C
  H1       1.0000 0.66350  0.92460  0.51890  Biso   1.000  H
  C4       1.0000 0.66907  0.93910  0.42270  Biso   1.000  C
  H2       1.0000 0.69230  0.92090  0.43560  Biso   1.000  H
  C5       1.0000 0.65190  0.96370  0.35500  Biso   1.000  C
  H3       1.0000 0.66340  0.96170  0.32170  Biso   1.000  H
  C6       1.0000 0.61786  0.99130  0.33510  Biso   1.000  C
  C7       1.0000 0.60127  0.99290  0.38500  Biso   1.000  C
  H4       1.0000 0.57810  0.01150  0.37190  Biso   1.000  H
  C8       1.0000 0.59864  0.01660  0.26150  Biso   1.000  C
  C9       1.0000 0.53044  0.10540  0.63500  Biso   1.000  C
  H5       1.0000 0.52460  0.06940  0.66830  Biso   1.000  H
  C10      1.0000 0.53223  0.21940  0.56600  Biso   1.000  C
  H6       1.0000 0.52820  0.27610  0.54150  Biso   1.000  H
  C11      1.0000 0.55430  0.15140  0.56180  Biso   1.000  C
  H7       1.0000 0.56850  0.15330  0.53350  Biso   1.000  H
  C12      1.0000 0.48961  0.23580  0.63060  Biso   1.000  C
  C13      1.0000 0.46654  0.18440  0.65120  Biso   1.000  C
  H8       1.0000 0.46900  0.11950  0.65600  Biso   1.000  H
  C14      1.0000 0.43928  0.22920  0.66510  Biso   1.000  C
  H9       1.0000 0.42360  0.19410  0.68000  Biso   1.000  H
  C15      1.0000 0.43505  0.32390  0.65750  Biso   1.000  C
  C16      1.0000 0.45906  0.37360  0.63670  Biso   1.000  C
  H10      1.0000 0.45660  0.43850  0.63130  Biso   1.000  H
  C17      1.0000 0.48647  0.33070  0.62380  Biso   1.000  C
  H11      1.0000 0.50270  0.36580  0.61060  Biso   1.000  H
  C18      1.0000 0.40199  0.37580  0.65940  Biso   1.000  C
  C19      1.0000 0.37903  0.31790  0.69190  Biso   1.000  C
  C20      1.0000 0.39315  0.27600  0.75690  Biso   1.000  C
  H12      1.0000 0.41710  0.27850  0.77910  Biso   1.000  H
  C21      1.0000 0.37269  0.23090  0.78920  Biso   1.000  C
  H13      1.0000 0.38260  0.20400  0.83340  Biso   1.000  H
  C22      1.0000 0.33754  0.22540  0.75640  Biso   1.000  C
  C23      1.0000 0.32285  0.26750  0.69250  Biso   1.000  C
  H14      1.0000 0.29900  0.26430  0.67020  Biso   1.000  H
  C24      1.0000 0.34368  0.31440  0.66170  Biso   1.000  C
  H15      1.0000 0.33350  0.34480  0.61890  Biso   1.000  H
  C25      1.0000 0.28412  0.20530  0.78770  Biso   1.000  C
  H16      1.0000 0.27270  0.25830  0.76420  Biso   1.000  H
  C26      1.0000 0.29574  0.07970  0.84820  Biso   1.000  C
  H17      1.0000 0.29350  0.02830  0.87510  Biso   1.000  H
  C27      1.0000 0.32368  0.09890  0.82810  Biso   1.000  C
  H18      1.0000 0.34410  0.06420  0.83870  Biso   1.000  H
  C28      1.0000 0.42569  0.77630  0.83070  Biso   1.000  C
  H19      1.0000 0.41850  0.79730  0.78430  Biso   1.000  H
  C29      1.0000 0.44028  0.68400  0.91960  Biso   1.000  C
  H20      1.0000 0.44550  0.63060  0.94790  Biso   1.000  H
  C30      1.0000 0.44088  0.77330  0.94070  Biso   1.000  C
  H21      1.0000 0.44650  0.79250  0.98740  Biso   1.000  H
  C31      1.0000 0.42423  0.61030  0.80080  Biso   1.000  C
  C32      1.0000 0.44913  0.54460  0.80610  Biso   1.000  C
  H22      1.0000 0.47050  0.54860  0.84130  Biso   1.000  H
  C33      1.0000 0.44214  0.47220  0.75850  Biso   1.000  C
  H23      1.0000 0.45930  0.42760  0.76180  Biso   1.000  H
  C34      1.0000 0.41119  0.46300  0.70680  Biso   1.000  C
  C35      1.0000 0.38624  0.52940  0.70420  Biso   1.000  C
  H24      1.0000 0.36450  0.52390  0.67030  Biso   1.000  H
  C36      1.0000 0.39262  0.60350  0.75040  Biso   1.000  C
  H25      1.0000 0.37560  0.64850  0.74720  Biso   1.000  H
  C37      1.0000 0.38352  0.39760  0.58220  Biso   1.000  C
  C38      1.0000 0.36979  0.32430  0.53710  Biso   1.000  C
  H26      1.0000 0.37090  0.26390  0.55550  Biso   1.000  H
  C39      1.0000 0.35463  0.33650  0.46680  Biso   1.000  C
  H27      1.0000 0.34560  0.28510  0.43810  Biso   1.000  H
  C40      1.0000 0.35262  0.42420  0.43820  Biso   1.000  C
  C41      1.0000 0.36698  0.49740  0.48060  Biso   1.000  C
  H28      1.0000 0.36670  0.55720  0.46150  Biso   1.000  H
  C42      1.0000 0.38216  0.48370  0.55230  Biso   1.000  C
  H29      1.0000 0.39170  0.53500  0.58080  Biso   1.000  H
  C43      1.0000 0.32159  0.37290  0.31830  Biso   1.000  C
  H30      1.0000 0.32170  0.30900  0.32860  Biso   1.000  H
  C44      1.0000 0.31273  0.50270  0.26430  Biso   1.000  C
  H31      1.0000 0.30520  0.54740  0.22880  Biso   1.000  H
  C45      1.0000 0.33060  0.52180  0.33150  Biso   1.000  C
  H32      1.0000 0.33780  0.58080  0.35070  Biso   1.000  H
  C46      1.0000 0.22762  0.02750  0.93750  Biso   1.000  C
  C47      1.0000 0.23681  0.00960  0.01340  Biso   1.000  C
  C48      1.0000 0.23346  0.92180  0.03830  Biso   1.000  C
  H33      1.0000 0.22480  0.87270  0.00700  Biso   1.000  H
  C49      1.0000 0.24289  0.90590  0.10980  Biso   1.000  C
  H34      1.0000 0.24050  0.84620  0.12660  Biso   1.000  H
  C50      1.0000 0.25568  0.97710  0.15550  Biso   1.000  C
  H35      1.0000 0.26200  0.96590  0.20360  Biso   1.000  H
  C51      1.0000 0.25941  0.06630  0.13150  Biso   1.000  C
  C52      1.0000 0.24950  0.08150  0.06020  Biso   1.000  C
  H36      1.0000 0.25140  0.14160  0.04330  Biso   1.000  H
  C53      1.0000 0.27406  0.14460  0.18130  Biso   1.000  C
  Zn3      1.0000 0.08216  0.46559  0.62187  Biso   1.000  Zn
  Zn4      1.0000 0.72332  0.65442  0.82918  Biso   1.000  Zn
  O9       1.0000 0.11575  0.46980  0.56945  Biso   1.000  O
  O10      1.0000 0.06647  0.47050  0.48373  Biso   1.000  O
  O11      1.0000 0.11503  0.51410  0.21731  Biso   1.000  O
  O12      1.0000 0.06775  0.53890  0.24531  Biso   1.000  O
  O13      1.0000 0.72315  0.61280  0.91918  Biso   1.000  O
  O14      1.0000 0.72549  0.46290  0.89650  Biso   1.000  O
  O15      1.0000 0.78380  0.71520  0.15590  Biso   1.000  O
  O16      1.0000 0.77471  0.63750  0.24250  Biso   1.000  O
  N9       1.0000 0.05283  0.57960  0.60480  Biso   1.000  N
  N10      1.0000 0.01687  0.68890  0.61307  Biso   1.000  N
  N11      1.0000 0.77135  0.64770  0.82259  Biso   1.000  N
  N12      1.0000 0.81616  0.67880  0.78970  Biso   1.000  N
  N13      1.0000 0.93214  0.33140  0.88490  Biso   1.000  N
  N14      1.0000 0.93049  0.18740  0.84890  Biso   1.000  N
  N15      1.0000 0.80718  0.90820  0.25563  Biso   1.000  N
  N16      1.0000 0.83616  0.93880  0.36567  Biso   1.000  N
  C54      1.0000 0.09825  0.46970  0.50500  Biso   1.000  C
  C55      1.0000 0.11762  0.46820  0.45300  Biso   1.000  C
  C56      1.0000 0.15187  0.44130  0.47250  Biso   1.000  C
  H37      1.0000 0.16350  0.42460  0.51890  Biso   1.000  H
  C57      1.0000 0.16907  0.43910  0.42270  Biso   1.000  C
  H38      1.0000 0.19230  0.42090  0.43560  Biso   1.000  H
  C58      1.0000 0.15190  0.46370  0.35500  Biso   1.000  C
  H39      1.0000 0.16340  0.46170  0.32170  Biso   1.000  H
  C59      1.0000 0.11786  0.49130  0.33510  Biso   1.000  C
  C60      1.0000 0.10127  0.49290  0.38500  Biso   1.000  C
  H40      1.0000 0.07810  0.51150  0.37190  Biso   1.000  H
  C61      1.0000 0.09864  0.51660  0.26150  Biso   1.000  C
  C62      1.0000 0.03044  0.60540  0.63500  Biso   1.000  C
  H41      1.0000 0.02460  0.56940  0.66830  Biso   1.000  H
  C63      1.0000 0.03223  0.71940  0.56600  Biso   1.000  C
  H42      1.0000 0.02820  0.77610  0.54150  Biso   1.000  H
  C64      1.0000 0.05430  0.65140  0.56180  Biso   1.000  C
  H43      1.0000 0.06850  0.65330  0.53350  Biso   1.000  H
  C65      1.0000 0.98961  0.73580  0.63060  Biso   1.000  C
  C66      1.0000 0.96654  0.68440  0.65120  Biso   1.000  C
  H44      1.0000 0.96900  0.61950  0.65600  Biso   1.000  H
  C67      1.0000 0.93928  0.72920  0.66510  Biso   1.000  C
  H45      1.0000 0.92360  0.69410  0.68000  Biso   1.000  H
  C68      1.0000 0.93505  0.82390  0.65750  Biso   1.000  C
  C69      1.0000 0.95906  0.87360  0.63670  Biso   1.000  C
  H46      1.0000 0.95660  0.93850  0.63130  Biso   1.000  H
  C70      1.0000 0.98647  0.83070  0.62380  Biso   1.000  C
  H47      1.0000 0.00270  0.86580  0.61060  Biso   1.000  H
  C71      1.0000 0.90199  0.87580  0.65940  Biso   1.000  C
  C72      1.0000 0.87903  0.81790  0.69190  Biso   1.000  C
  C73      1.0000 0.89315  0.77600  0.75690  Biso   1.000  C
  H48      1.0000 0.91710  0.77850  0.77910  Biso   1.000  H
  C74      1.0000 0.87269  0.73090  0.78920  Biso   1.000  C
  H49      1.0000 0.88260  0.70400  0.83340  Biso   1.000  H
  C75      1.0000 0.83754  0.72540  0.75640  Biso   1.000  C
  C76      1.0000 0.82285  0.76750  0.69250  Biso   1.000  C
  H50      1.0000 0.79900  0.76430  0.67020  Biso   1.000  H
  C77      1.0000 0.84368  0.81440  0.66170  Biso   1.000  C
  H51      1.0000 0.83350  0.84480  0.61890  Biso   1.000  H
  C78      1.0000 0.78412  0.70530  0.78770  Biso   1.000  C
  H52      1.0000 0.77270  0.75830  0.76420  Biso   1.000  H
  C79      1.0000 0.79574  0.57970  0.84820  Biso   1.000  C
  H53      1.0000 0.79350  0.52830  0.87510  Biso   1.000  H
  C80      1.0000 0.82368  0.59890  0.82810  Biso   1.000  C
  H54      1.0000 0.84410  0.56420  0.83870  Biso   1.000  H
  C81      1.0000 0.92569  0.27630  0.83070  Biso   1.000  C
  H55      1.0000 0.91850  0.29730  0.78430  Biso   1.000  H
  C82      1.0000 0.94028  0.18400  0.91960  Biso   1.000  C
  H56      1.0000 0.94550  0.13060  0.94790  Biso   1.000  H
  C83      1.0000 0.94088  0.27330  0.94070  Biso   1.000  C
  H57      1.0000 0.94650  0.29250  0.98740  Biso   1.000  H
  C84      1.0000 0.92423  0.11030  0.80080  Biso   1.000  C
  C85      1.0000 0.94913  0.04460  0.80610  Biso   1.000  C
  H58      1.0000 0.97050  0.04860  0.84130  Biso   1.000  H
  C86      1.0000 0.94214  0.97220  0.75850  Biso   1.000  C
  H59      1.0000 0.95930  0.92760  0.76180  Biso   1.000  H
  C87      1.0000 0.91119  0.96300  0.70680  Biso   1.000  C
  C88      1.0000 0.88624  0.02940  0.70420  Biso   1.000  C
  H60      1.0000 0.86450  0.02390  0.67030  Biso   1.000  H
  C89      1.0000 0.89262  0.10350  0.75040  Biso   1.000  C
  H61      1.0000 0.87560  0.14850  0.74720  Biso   1.000  H
  C90      1.0000 0.88352  0.89760  0.58220  Biso   1.000  C
  C91      1.0000 0.86979  0.82430  0.53710  Biso   1.000  C
  H62      1.0000 0.87090  0.76390  0.55550  Biso   1.000  H
  C92      1.0000 0.85463  0.83650  0.46680  Biso   1.000  C
  H63      1.0000 0.84560  0.78510  0.43810  Biso   1.000  H
  C93      1.0000 0.85262  0.92420  0.43820  Biso   1.000  C
  C94      1.0000 0.86698  0.99740  0.48060  Biso   1.000  C
  H64      1.0000 0.86670  0.05720  0.46150  Biso   1.000  H
  C95      1.0000 0.88216  0.98370  0.55230  Biso   1.000  C
  H65      1.0000 0.89170  0.03500  0.58080  Biso   1.000  H
  C96      1.0000 0.82159  0.87290  0.31830  Biso   1.000  C
  H66      1.0000 0.82170  0.80900  0.32860  Biso   1.000  H
  C97      1.0000 0.81273  0.00270  0.26430  Biso   1.000  C
  H67      1.0000 0.80520  0.04740  0.22880  Biso   1.000  H
  C98      1.0000 0.83060  0.02180  0.33150  Biso   1.000  C
  H68      1.0000 0.83780  0.08080  0.35070  Biso   1.000  H
  C99      1.0000 0.72762  0.52750  0.93750  Biso   1.000  C
  C100     1.0000 0.73681  0.50960  0.01340  Biso   1.000  C
  C101     1.0000 0.73346  0.42180  0.03830  Biso   1.000  C
  H69      1.0000 0.72480  0.37270  0.00700  Biso   1.000  H
  C102     1.0000 0.74289  0.40590  0.10980  Biso   1.000  C
  H70      1.0000 0.74050  0.34620  0.12660  Biso   1.000  H
  C103     1.0000 0.75568  0.47710  0.15550  Biso   1.000  C
  H71      1.0000 0.76200  0.46590  0.20360  Biso   1.000  H
  C104     1.0000 0.75941  0.56630  0.13150  Biso   1.000  C
  C105     1.0000 0.74950  0.58150  0.06020  Biso   1.000  C
  H72      1.0000 0.75140  0.64160  0.04330  Biso   1.000  H
  C106     1.0000 0.77406  0.64460  0.18130  Biso   1.000  C
  Zn5      1.0000 0.41784  0.96559  0.87813  Biso   1.000  Zn
  Zn6      1.0000 0.77668  0.15442  0.67082  Biso   1.000  Zn
  O17      1.0000 0.38425  0.96980  0.93055  Biso   1.000  O
  O18      1.0000 0.43353  0.97050  0.01627  Biso   1.000  O
  O19      1.0000 0.38497  0.01410  0.28269  Biso   1.000  O
  O20      1.0000 0.43225  0.03890  0.25469  Biso   1.000  O
  O21      1.0000 0.77685  0.11280  0.58082  Biso   1.000  O
  O22      1.0000 0.77451  0.96290  0.60350  Biso   1.000  O
  O23      1.0000 0.71620  0.21520  0.34410  Biso   1.000  O
  O24      1.0000 0.72529  0.13750  0.25750  Biso   1.000  O
  N17      1.0000 0.44717  0.07960  0.89520  Biso   1.000  N
  N18      1.0000 0.48313  0.18890  0.88693  Biso   1.000  N
  N19      1.0000 0.72865  0.14770  0.67741  Biso   1.000  N
  N20      1.0000 0.68384  0.17880  0.71030  Biso   1.000  N
  N21      1.0000 0.56786  0.83140  0.61510  Biso   1.000  N
  N22      1.0000 0.56951  0.68740  0.65110  Biso   1.000  N
  N23      1.0000 0.69282  0.40820  0.24437  Biso   1.000  N
  N24      1.0000 0.66384  0.43880  0.13433  Biso   1.000  N
  C107     1.0000 0.40175  0.96970  0.99500  Biso   1.000  C
  C108     1.0000 0.38238  0.96820  0.04700  Biso   1.000  C
  C109     1.0000 0.34813  0.94130  0.02750  Biso   1.000  C
  H73      1.0000 0.33650  0.92460  0.98110  Biso   1.000  H
  C110     1.0000 0.33093  0.93910  0.07730  Biso   1.000  C
  H74      1.0000 0.30770  0.92090  0.06440  Biso   1.000  H
  C111     1.0000 0.34810  0.96370  0.14500  Biso   1.000  C
  H75      1.0000 0.33660  0.96170  0.17830  Biso   1.000  H
  C112     1.0000 0.38214  0.99130  0.16490  Biso   1.000  C
  C113     1.0000 0.39873  0.99290  0.11500  Biso   1.000  C
  H76      1.0000 0.42190  0.01150  0.12810  Biso   1.000  H
  C114     1.0000 0.40136  0.01660  0.23850  Biso   1.000  C
  C115     1.0000 0.46956  0.10540  0.86500  Biso   1.000  C
  H77      1.0000 0.47540  0.06940  0.83170  Biso   1.000  H
  C116     1.0000 0.46777  0.21940  0.93400  Biso   1.000  C
  H78      1.0000 0.47180  0.27610  0.95850  Biso   1.000  H
  C117     1.0000 0.44570  0.15140  0.93820  Biso   1.000  C
  H79      1.0000 0.43150  0.15330  0.96650  Biso   1.000  H
  C118     1.0000 0.51039  0.23580  0.86940  Biso   1.000  C
  C119     1.0000 0.53346  0.18440  0.84880  Biso   1.000  C
  H80      1.0000 0.53100  0.11950  0.84400  Biso   1.000  H
  C120     1.0000 0.56072  0.22920  0.83490  Biso   1.000  C
  H81      1.0000 0.57640  0.19410  0.82000  Biso   1.000  H
  C121     1.0000 0.56495  0.32390  0.84250  Biso   1.000  C
  C122     1.0000 0.54094  0.37360  0.86330  Biso   1.000  C
  H82      1.0000 0.54340  0.43850  0.86870  Biso   1.000  H
  C123     1.0000 0.51353  0.33070  0.87620  Biso   1.000  C
  H83      1.0000 0.49730  0.36580  0.88940  Biso   1.000  H
  C124     1.0000 0.59801  0.37580  0.84060  Biso   1.000  C
  C125     1.0000 0.62097  0.31790  0.80810  Biso   1.000  C
  C126     1.0000 0.60685  0.27600  0.74310  Biso   1.000  C
  H84      1.0000 0.58290  0.27850  0.72090  Biso   1.000  H
  C127     1.0000 0.62731  0.23090  0.71080  Biso   1.000  C
  H85      1.0000 0.61740  0.20400  0.66660  Biso   1.000  H
  C128     1.0000 0.66246  0.22540  0.74360  Biso   1.000  C
  C129     1.0000 0.67715  0.26750  0.80750  Biso   1.000  C
  H86      1.0000 0.70100  0.26430  0.82980  Biso   1.000  H
  C130     1.0000 0.65632  0.31440  0.83830  Biso   1.000  C
  H87      1.0000 0.66650  0.34480  0.88110  Biso   1.000  H
  C131     1.0000 0.71588  0.20530  0.71230  Biso   1.000  C
  H88      1.0000 0.72730  0.25830  0.73580  Biso   1.000  H
  C132     1.0000 0.70426  0.07970  0.65180  Biso   1.000  C
  H89      1.0000 0.70650  0.02830  0.62490  Biso   1.000  H
  C133     1.0000 0.67632  0.09890  0.67190  Biso   1.000  C
  H90      1.0000 0.65590  0.06420  0.66130  Biso   1.000  H
  C134     1.0000 0.57431  0.77630  0.66930  Biso   1.000  C
  H91      1.0000 0.58150  0.79730  0.71570  Biso   1.000  H
  C135     1.0000 0.55972  0.68400  0.58040  Biso   1.000  C
  H92      1.0000 0.55450  0.63060  0.55210  Biso   1.000  H
  C136     1.0000 0.55912  0.77330  0.55930  Biso   1.000  C
  H93      1.0000 0.55350  0.79250  0.51260  Biso   1.000  H
  C137     1.0000 0.57577  0.61030  0.69920  Biso   1.000  C
  C138     1.0000 0.55087  0.54460  0.69390  Biso   1.000  C
  H94      1.0000 0.52950  0.54860  0.65870  Biso   1.000  H
  C139     1.0000 0.55786  0.47220  0.74150  Biso   1.000  C
  H95      1.0000 0.54070  0.42760  0.73820  Biso   1.000  H
  C140     1.0000 0.58881  0.46300  0.79320  Biso   1.000  C
  C141     1.0000 0.61376  0.52940  0.79580  Biso   1.000  C
  H96      1.0000 0.63550  0.52390  0.82970  Biso   1.000  H
  C142     1.0000 0.60738  0.60350  0.74960  Biso   1.000  C
  H97      1.0000 0.62440  0.64850  0.75280  Biso   1.000  H
  C143     1.0000 0.61648  0.39760  0.91780  Biso   1.000  C
  C144     1.0000 0.63021  0.32430  0.96290  Biso   1.000  C
  H98      1.0000 0.62910  0.26390  0.94450  Biso   1.000  H
  C145     1.0000 0.64537  0.33650  0.03320  Biso   1.000  C
  H99      1.0000 0.65440  0.28510  0.06190  Biso   1.000  H
  C146     1.0000 0.64738  0.42420  0.06180  Biso   1.000  C
  C147     1.0000 0.63302  0.49740  0.01940  Biso   1.000  C
  H100     1.0000 0.63330  0.55720  0.03850  Biso   1.000  H
  C148     1.0000 0.61784  0.48370  0.94770  Biso   1.000  C
  H101     1.0000 0.60830  0.53500  0.91920  Biso   1.000  H
  C149     1.0000 0.67841  0.37290  0.18170  Biso   1.000  C
  H102     1.0000 0.67830  0.30900  0.17140  Biso   1.000  H
  C150     1.0000 0.68727  0.50270  0.23570  Biso   1.000  C
  H103     1.0000 0.69480  0.54740  0.27120  Biso   1.000  H
  C151     1.0000 0.66940  0.52180  0.16850  Biso   1.000  C
  H104     1.0000 0.66220  0.58080  0.14930  Biso   1.000  H
  C152     1.0000 0.77238  0.02750  0.56250  Biso   1.000  C
  C153     1.0000 0.76319  0.00960  0.48660  Biso   1.000  C
  C154     1.0000 0.76654  0.92180  0.46170  Biso   1.000  C
  H105     1.0000 0.77520  0.87270  0.49300  Biso   1.000  H
  C155     1.0000 0.75711  0.90590  0.39020  Biso   1.000  C
  H106     1.0000 0.75950  0.84620  0.37340  Biso   1.000  H
  C156     1.0000 0.74432  0.97710  0.34450  Biso   1.000  C
  H107     1.0000 0.73800  0.96590  0.29640  Biso   1.000  H
  C157     1.0000 0.74059  0.06630  0.36850  Biso   1.000  C
  C158     1.0000 0.75050  0.08150  0.43980  Biso   1.000  C
  H108     1.0000 0.74860  0.14160  0.45670  Biso   1.000  H
  C159     1.0000 0.72594  0.14460  0.31870  Biso   1.000  C
  Zn7      1.0000 0.91784  0.46559  0.87813  Biso   1.000  Zn
  Zn8      1.0000 0.27668  0.65442  0.67082  Biso   1.000  Zn
  O25      1.0000 0.88425  0.46980  0.93055  Biso   1.000  O
  O26      1.0000 0.93353  0.47050  0.01627  Biso   1.000  O
  O27      1.0000 0.88497  0.51410  0.28269  Biso   1.000  O
  O28      1.0000 0.93225  0.53890  0.25469  Biso   1.000  O
  O29      1.0000 0.27685  0.61280  0.58082  Biso   1.000  O
  O30      1.0000 0.27451  0.46290  0.60350  Biso   1.000  O
  O31      1.0000 0.21620  0.71520  0.34410  Biso   1.000  O
  O32      1.0000 0.22529  0.63750  0.25750  Biso   1.000  O
  N25      1.0000 0.94717  0.57960  0.89520  Biso   1.000  N
  N26      1.0000 0.98313  0.68890  0.88693  Biso   1.000  N
  N27      1.0000 0.22865  0.64770  0.67741  Biso   1.000  N
  N28      1.0000 0.18384  0.67880  0.71030  Biso   1.000  N
  N29      1.0000 0.06786  0.33140  0.61510  Biso   1.000  N
  N30      1.0000 0.06951  0.18740  0.65110  Biso   1.000  N
  N31      1.0000 0.19282  0.90820  0.24437  Biso   1.000  N
  N32      1.0000 0.16384  0.93880  0.13433  Biso   1.000  N
  C160     1.0000 0.90175  0.46970  0.99500  Biso   1.000  C
  C161     1.0000 0.88238  0.46820  0.04700  Biso   1.000  C
  C162     1.0000 0.84813  0.44130  0.02750  Biso   1.000  C
  H109     1.0000 0.83650  0.42460  0.98110  Biso   1.000  H
  C163     1.0000 0.83093  0.43910  0.07730  Biso   1.000  C
  H110     1.0000 0.80770  0.42090  0.06440  Biso   1.000  H
  C164     1.0000 0.84810  0.46370  0.14500  Biso   1.000  C
  H111     1.0000 0.83660  0.46170  0.17830  Biso   1.000  H
  C165     1.0000 0.88214  0.49130  0.16490  Biso   1.000  C
  C166     1.0000 0.89873  0.49290  0.11500  Biso   1.000  C
  H112     1.0000 0.92190  0.51150  0.12810  Biso   1.000  H
  C167     1.0000 0.90136  0.51660  0.23850  Biso   1.000  C
  C168     1.0000 0.96956  0.60540  0.86500  Biso   1.000  C
  H113     1.0000 0.97540  0.56940  0.83170  Biso   1.000  H
  C169     1.0000 0.96777  0.71940  0.93400  Biso   1.000  C
  H114     1.0000 0.97180  0.77610  0.95850  Biso   1.000  H
  C170     1.0000 0.94570  0.65140  0.93820  Biso   1.000  C
  H115     1.0000 0.93150  0.65330  0.96650  Biso   1.000  H
  C171     1.0000 0.01039  0.73580  0.86940  Biso   1.000  C
  C172     1.0000 0.03346  0.68440  0.84880  Biso   1.000  C
  H116     1.0000 0.03100  0.61950  0.84400  Biso   1.000  H
  C173     1.0000 0.06072  0.72920  0.83490  Biso   1.000  C
  H117     1.0000 0.07640  0.69410  0.82000  Biso   1.000  H
  C174     1.0000 0.06495  0.82390  0.84250  Biso   1.000  C
  C175     1.0000 0.04094  0.87360  0.86330  Biso   1.000  C
  H118     1.0000 0.04340  0.93850  0.86870  Biso   1.000  H
  C176     1.0000 0.01353  0.83070  0.87620  Biso   1.000  C
  H119     1.0000 0.99730  0.86580  0.88940  Biso   1.000  H
  C177     1.0000 0.09801  0.87580  0.84060  Biso   1.000  C
  C178     1.0000 0.12097  0.81790  0.80810  Biso   1.000  C
  C179     1.0000 0.10685  0.77600  0.74310  Biso   1.000  C
  H120     1.0000 0.08290  0.77850  0.72090  Biso   1.000  H
  C180     1.0000 0.12731  0.73090  0.71080  Biso   1.000  C
  H121     1.0000 0.11740  0.70400  0.66660  Biso   1.000  H
  C181     1.0000 0.16246  0.72540  0.74360  Biso   1.000  C
  C182     1.0000 0.17715  0.76750  0.80750  Biso   1.000  C
  H122     1.0000 0.20100  0.76430  0.82980  Biso   1.000  H
  C183     1.0000 0.15632  0.81440  0.83830  Biso   1.000  C
  H123     1.0000 0.16650  0.84480  0.88110  Biso   1.000  H
  C184     1.0000 0.21588  0.70530  0.71230  Biso   1.000  C
  H124     1.0000 0.22730  0.75830  0.73580  Biso   1.000  H
  C185     1.0000 0.20426  0.57970  0.65180  Biso   1.000  C
  H125     1.0000 0.20650  0.52830  0.62490  Biso   1.000  H
  C186     1.0000 0.17632  0.59890  0.67190  Biso   1.000  C
  H126     1.0000 0.15590  0.56420  0.66130  Biso   1.000  H
  C187     1.0000 0.07431  0.27630  0.66930  Biso   1.000  C
  H127     1.0000 0.08150  0.29730  0.71570  Biso   1.000  H
  C188     1.0000 0.05972  0.18400  0.58040  Biso   1.000  C
  H128     1.0000 0.05450  0.13060  0.55210  Biso   1.000  H
  C189     1.0000 0.05912  0.27330  0.55930  Biso   1.000  C
  H129     1.0000 0.05350  0.29250  0.51260  Biso   1.000  H
  C190     1.0000 0.07577  0.11030  0.69920  Biso   1.000  C
  C191     1.0000 0.05087  0.04460  0.69390  Biso   1.000  C
  H130     1.0000 0.02950  0.04860  0.65870  Biso   1.000  H
  C192     1.0000 0.05786  0.97220  0.74150  Biso   1.000  C
  H131     1.0000 0.04070  0.92760  0.73820  Biso   1.000  H
  C193     1.0000 0.08881  0.96300  0.79320  Biso   1.000  C
  C194     1.0000 0.11376  0.02940  0.79580  Biso   1.000  C
  H132     1.0000 0.13550  0.02390  0.82970  Biso   1.000  H
  C195     1.0000 0.10738  0.10350  0.74960  Biso   1.000  C
  H133     1.0000 0.12440  0.14850  0.75280  Biso   1.000  H
  C196     1.0000 0.11648  0.89760  0.91780  Biso   1.000  C
  C197     1.0000 0.13021  0.82430  0.96290  Biso   1.000  C
  H134     1.0000 0.12910  0.76390  0.94450  Biso   1.000  H
  C198     1.0000 0.14537  0.83650  0.03320  Biso   1.000  C
  H135     1.0000 0.15440  0.78510  0.06190  Biso   1.000  H
  C199     1.0000 0.14738  0.92420  0.06180  Biso   1.000  C
  C200     1.0000 0.13302  0.99740  0.01940  Biso   1.000  C
  H136     1.0000 0.13330  0.05720  0.03850  Biso   1.000  H
  C201     1.0000 0.11784  0.98370  0.94770  Biso   1.000  C
  H137     1.0000 0.10830  0.03500  0.91920  Biso   1.000  H
  C202     1.0000 0.17841  0.87290  0.18170  Biso   1.000  C
  H138     1.0000 0.17830  0.80900  0.17140  Biso   1.000  H
  C203     1.0000 0.18727  0.00270  0.23570  Biso   1.000  C
  H139     1.0000 0.19480  0.04740  0.27120  Biso   1.000  H
  C204     1.0000 0.16940  0.02180  0.16850  Biso   1.000  C
  H140     1.0000 0.16220  0.08080  0.14930  Biso   1.000  H
  C205     1.0000 0.27238  0.52750  0.56250  Biso   1.000  C
  C206     1.0000 0.26319  0.50960  0.48660  Biso   1.000  C
  C207     1.0000 0.26654  0.42180  0.46170  Biso   1.000  C
  H141     1.0000 0.27520  0.37270  0.49300  Biso   1.000  H
  C208     1.0000 0.25711  0.40590  0.39020  Biso   1.000  C
  H142     1.0000 0.25950  0.34620  0.37340  Biso   1.000  H
  C209     1.0000 0.24432  0.47710  0.34450  Biso   1.000  C
  H143     1.0000 0.23800  0.46590  0.29640  Biso   1.000  H
  C210     1.0000 0.24059  0.56630  0.36850  Biso   1.000  C
  C211     1.0000 0.25050  0.58150  0.43980  Biso   1.000  C
  H144     1.0000 0.24860  0.64160  0.45670  Biso   1.000  H
  C212     1.0000 0.22594  0.64460  0.31870  Biso   1.000  C
  Zn9      1.0000 0.41784  0.03441  0.37813  Biso   1.000  Zn
  Zn10     1.0000 0.77668  0.84558  0.17082  Biso   1.000  Zn
  O33      1.0000 0.38425  0.03020  0.43055  Biso   1.000  O
  O34      1.0000 0.43353  0.02950  0.51627  Biso   1.000  O
  O35      1.0000 0.38497  0.98590  0.78269  Biso   1.000  O
  O36      1.0000 0.43225  0.96110  0.75469  Biso   1.000  O
  O37      1.0000 0.77685  0.88720  0.08082  Biso   1.000  O
  O38      1.0000 0.77451  0.03710  0.10350  Biso   1.000  O
  O39      1.0000 0.71620  0.78480  0.84410  Biso   1.000  O
  O40      1.0000 0.72529  0.86250  0.75750  Biso   1.000  O
  N33      1.0000 0.44717  0.92040  0.39520  Biso   1.000  N
  N34      1.0000 0.48313  0.81110  0.38693  Biso   1.000  N
  N35      1.0000 0.72865  0.85230  0.17741  Biso   1.000  N
  N36      1.0000 0.68384  0.82120  0.21030  Biso   1.000  N
  N37      1.0000 0.56786  0.16860  0.11510  Biso   1.000  N
  N38      1.0000 0.56951  0.31260  0.15110  Biso   1.000  N
  N39      1.0000 0.69282  0.59180  0.74437  Biso   1.000  N
  N40      1.0000 0.66384  0.56120  0.63433  Biso   1.000  N
  C213     1.0000 0.40175  0.03030  0.49500  Biso   1.000  C
  C214     1.0000 0.38238  0.03180  0.54700  Biso   1.000  C
  C215     1.0000 0.34813  0.05870  0.52750  Biso   1.000  C
  H145     1.0000 0.33650  0.07540  0.48110  Biso   1.000  H
  C216     1.0000 0.33093  0.06090  0.57730  Biso   1.000  C
  H146     1.0000 0.30770  0.07910  0.56440  Biso   1.000  H
  C217     1.0000 0.34810  0.03630  0.64500  Biso   1.000  C
  H147     1.0000 0.33660  0.03830  0.67830  Biso   1.000  H
  C218     1.0000 0.38214  0.00870  0.66490  Biso   1.000  C
  C219     1.0000 0.39873  0.00710  0.61500  Biso   1.000  C
  H148     1.0000 0.42190  0.98850  0.62810  Biso   1.000  H
  C220     1.0000 0.40136  0.98340  0.73850  Biso   1.000  C
  C221     1.0000 0.46956  0.89460  0.36500  Biso   1.000  C
  H149     1.0000 0.47540  0.93060  0.33170  Biso   1.000  H
  C222     1.0000 0.46777  0.78060  0.43400  Biso   1.000  C
  H150     1.0000 0.47180  0.72390  0.45850  Biso   1.000  H
  C223     1.0000 0.44570  0.84860  0.43820  Biso   1.000  C
  H151     1.0000 0.43150  0.84670  0.46650  Biso   1.000  H
  C224     1.0000 0.51039  0.76420  0.36940  Biso   1.000  C
  C225     1.0000 0.53346  0.81560  0.34880  Biso   1.000  C
  H152     1.0000 0.53100  0.88050  0.34400  Biso   1.000  H
  C226     1.0000 0.56072  0.77080  0.33490  Biso   1.000  C
  H153     1.0000 0.57640  0.80590  0.32000  Biso   1.000  H
  C227     1.0000 0.56495  0.67610  0.34250  Biso   1.000  C
  C228     1.0000 0.54094  0.62640  0.36330  Biso   1.000  C
  H154     1.0000 0.54340  0.56150  0.36870  Biso   1.000  H
  C229     1.0000 0.51353  0.66930  0.37620  Biso   1.000  C
  H155     1.0000 0.49730  0.63420  0.38940  Biso   1.000  H
  C230     1.0000 0.59801  0.62420  0.34060  Biso   1.000  C
  C231     1.0000 0.62097  0.68210  0.30810  Biso   1.000  C
  C232     1.0000 0.60685  0.72400  0.24310  Biso   1.000  C
  H156     1.0000 0.58290  0.72150  0.22090  Biso   1.000  H
  C233     1.0000 0.62731  0.76910  0.21080  Biso   1.000  C
  H157     1.0000 0.61740  0.79600  0.16660  Biso   1.000  H
  C234     1.0000 0.66246  0.77460  0.24360  Biso   1.000  C
  C235     1.0000 0.67715  0.73250  0.30750  Biso   1.000  C
  H158     1.0000 0.70100  0.73570  0.32980  Biso   1.000  H
  C236     1.0000 0.65632  0.68560  0.33830  Biso   1.000  C
  H159     1.0000 0.66650  0.65520  0.38110  Biso   1.000  H
  C237     1.0000 0.71588  0.79470  0.21230  Biso   1.000  C
  H160     1.0000 0.72730  0.74170  0.23580  Biso   1.000  H
  C238     1.0000 0.70426  0.92030  0.15180  Biso   1.000  C
  H161     1.0000 0.70650  0.97170  0.12490  Biso   1.000  H
  C239     1.0000 0.67632  0.90110  0.17190  Biso   1.000  C
  H162     1.0000 0.65590  0.93580  0.16130  Biso   1.000  H
  C240     1.0000 0.57431  0.22370  0.16930  Biso   1.000  C
  H163     1.0000 0.58150  0.20270  0.21570  Biso   1.000  H
  C241     1.0000 0.55972  0.31600  0.08040  Biso   1.000  C
  H164     1.0000 0.55450  0.36940  0.05210  Biso   1.000  H
  C242     1.0000 0.55912  0.22670  0.05930  Biso   1.000  C
  H165     1.0000 0.55350  0.20750  0.01260  Biso   1.000  H
  C243     1.0000 0.57577  0.38970  0.19920  Biso   1.000  C
  C244     1.0000 0.55087  0.45540  0.19390  Biso   1.000  C
  H166     1.0000 0.52950  0.45140  0.15870  Biso   1.000  H
  C245     1.0000 0.55786  0.52780  0.24150  Biso   1.000  C
  H167     1.0000 0.54070  0.57240  0.23820  Biso   1.000  H
  C246     1.0000 0.58881  0.53700  0.29320  Biso   1.000  C
  C247     1.0000 0.61376  0.47060  0.29580  Biso   1.000  C
  H168     1.0000 0.63550  0.47610  0.32970  Biso   1.000  H
  C248     1.0000 0.60738  0.39650  0.24960  Biso   1.000  C
  H169     1.0000 0.62440  0.35150  0.25280  Biso   1.000  H
  C249     1.0000 0.61648  0.60240  0.41780  Biso   1.000  C
  C250     1.0000 0.63021  0.67570  0.46290  Biso   1.000  C
  H170     1.0000 0.62910  0.73610  0.44450  Biso   1.000  H
  C251     1.0000 0.64537  0.66350  0.53320  Biso   1.000  C
  H171     1.0000 0.65440  0.71490  0.56190  Biso   1.000  H
  C252     1.0000 0.64738  0.57580  0.56180  Biso   1.000  C
  C253     1.0000 0.63302  0.50260  0.51940  Biso   1.000  C
  H172     1.0000 0.63330  0.44280  0.53850  Biso   1.000  H
  C254     1.0000 0.61784  0.51630  0.44770  Biso   1.000  C
  H173     1.0000 0.60830  0.46500  0.41920  Biso   1.000  H
  C255     1.0000 0.67841  0.62710  0.68170  Biso   1.000  C
  H174     1.0000 0.67830  0.69100  0.67140  Biso   1.000  H
  C256     1.0000 0.68727  0.49730  0.73570  Biso   1.000  C
  H175     1.0000 0.69480  0.45260  0.77120  Biso   1.000  H
  C257     1.0000 0.66940  0.47820  0.66850  Biso   1.000  C
  H176     1.0000 0.66220  0.41920  0.64930  Biso   1.000  H
  C258     1.0000 0.77238  0.97250  0.06250  Biso   1.000  C
  C259     1.0000 0.76319  0.99040  0.98660  Biso   1.000  C
  C260     1.0000 0.76654  0.07820  0.96170  Biso   1.000  C
  H177     1.0000 0.77520  0.12730  0.99300  Biso   1.000  H
  C261     1.0000 0.75711  0.09410  0.89020  Biso   1.000  C
  H178     1.0000 0.75950  0.15380  0.87340  Biso   1.000  H
  C262     1.0000 0.74432  0.02290  0.84450  Biso   1.000  C
  H179     1.0000 0.73800  0.03410  0.79640  Biso   1.000  H
  C263     1.0000 0.74059  0.93370  0.86850  Biso   1.000  C
  C264     1.0000 0.75050  0.91850  0.93980  Biso   1.000  C
  H180     1.0000 0.74860  0.85840  0.95670  Biso   1.000  H
  C265     1.0000 0.72594  0.85540  0.81870  Biso   1.000  C
  Zn11     1.0000 0.91784  0.53441  0.37813  Biso   1.000  Zn
  Zn12     1.0000 0.27668  0.34558  0.17082  Biso   1.000  Zn
  O41      1.0000 0.88425  0.53020  0.43055  Biso   1.000  O
  O42      1.0000 0.93353  0.52950  0.51627  Biso   1.000  O
  O43      1.0000 0.88497  0.48590  0.78269  Biso   1.000  O
  O44      1.0000 0.93225  0.46110  0.75469  Biso   1.000  O
  O45      1.0000 0.27685  0.38720  0.08082  Biso   1.000  O
  O46      1.0000 0.27451  0.53710  0.10350  Biso   1.000  O
  O47      1.0000 0.21620  0.28480  0.84410  Biso   1.000  O
  O48      1.0000 0.22529  0.36250  0.75750  Biso   1.000  O
  N41      1.0000 0.94717  0.42040  0.39520  Biso   1.000  N
  N42      1.0000 0.98313  0.31110  0.38693  Biso   1.000  N
  N43      1.0000 0.22865  0.35230  0.17741  Biso   1.000  N
  N44      1.0000 0.18384  0.32120  0.21030  Biso   1.000  N
  N45      1.0000 0.06786  0.66860  0.11510  Biso   1.000  N
  N46      1.0000 0.06951  0.81260  0.15110  Biso   1.000  N
  N47      1.0000 0.19282  0.09180  0.74437  Biso   1.000  N
  N48      1.0000 0.16384  0.06120  0.63433  Biso   1.000  N
  C266     1.0000 0.90175  0.53030  0.49500  Biso   1.000  C
  C267     1.0000 0.88238  0.53180  0.54700  Biso   1.000  C
  C268     1.0000 0.84813  0.55870  0.52750  Biso   1.000  C
  H181     1.0000 0.83650  0.57540  0.48110  Biso   1.000  H
  C269     1.0000 0.83093  0.56090  0.57730  Biso   1.000  C
  H182     1.0000 0.80770  0.57910  0.56440  Biso   1.000  H
  C270     1.0000 0.84810  0.53630  0.64500  Biso   1.000  C
  H183     1.0000 0.83660  0.53830  0.67830  Biso   1.000  H
  C271     1.0000 0.88214  0.50870  0.66490  Biso   1.000  C
  C272     1.0000 0.89873  0.50710  0.61500  Biso   1.000  C
  H184     1.0000 0.92190  0.48850  0.62810  Biso   1.000  H
  C273     1.0000 0.90136  0.48340  0.73850  Biso   1.000  C
  C274     1.0000 0.96956  0.39460  0.36500  Biso   1.000  C
  H185     1.0000 0.97540  0.43060  0.33170  Biso   1.000  H
  C275     1.0000 0.96777  0.28060  0.43400  Biso   1.000  C
  H186     1.0000 0.97180  0.22390  0.45850  Biso   1.000  H
  C276     1.0000 0.94570  0.34860  0.43820  Biso   1.000  C
  H187     1.0000 0.93150  0.34670  0.46650  Biso   1.000  H
  C277     1.0000 0.01039  0.26420  0.36940  Biso   1.000  C
  C278     1.0000 0.03346  0.31560  0.34880  Biso   1.000  C
  H188     1.0000 0.03100  0.38050  0.34400  Biso   1.000  H
  C279     1.0000 0.06072  0.27080  0.33490  Biso   1.000  C
  H189     1.0000 0.07640  0.30590  0.32000  Biso   1.000  H
  C280     1.0000 0.06495  0.17610  0.34250  Biso   1.000  C
  C281     1.0000 0.04094  0.12640  0.36330  Biso   1.000  C
  H190     1.0000 0.04340  0.06150  0.36870  Biso   1.000  H
  C282     1.0000 0.01353  0.16930  0.37620  Biso   1.000  C
  H191     1.0000 0.99730  0.13420  0.38940  Biso   1.000  H
  C283     1.0000 0.09801  0.12420  0.34060  Biso   1.000  C
  C284     1.0000 0.12097  0.18210  0.30810  Biso   1.000  C
  C285     1.0000 0.10685  0.22400  0.24310  Biso   1.000  C
  H192     1.0000 0.08290  0.22150  0.22090  Biso   1.000  H
  C286     1.0000 0.12731  0.26910  0.21080  Biso   1.000  C
  H193     1.0000 0.11740  0.29600  0.16660  Biso   1.000  H
  C287     1.0000 0.16246  0.27460  0.24360  Biso   1.000  C
  C288     1.0000 0.17715  0.23250  0.30750  Biso   1.000  C
  H194     1.0000 0.20100  0.23570  0.32980  Biso   1.000  H
  C289     1.0000 0.15632  0.18560  0.33830  Biso   1.000  C
  H195     1.0000 0.16650  0.15520  0.38110  Biso   1.000  H
  C290     1.0000 0.21588  0.29470  0.21230  Biso   1.000  C
  H196     1.0000 0.22730  0.24170  0.23580  Biso   1.000  H
  C291     1.0000 0.20426  0.42030  0.15180  Biso   1.000  C
  H197     1.0000 0.20650  0.47170  0.12490  Biso   1.000  H
  C292     1.0000 0.17632  0.40110  0.17190  Biso   1.000  C
  H198     1.0000 0.15590  0.43580  0.16130  Biso   1.000  H
  C293     1.0000 0.07431  0.72370  0.16930  Biso   1.000  C
  H199     1.0000 0.08150  0.70270  0.21570  Biso   1.000  H
  C294     1.0000 0.05972  0.81600  0.08040  Biso   1.000  C
  H200     1.0000 0.05450  0.86940  0.05210  Biso   1.000  H
  C295     1.0000 0.05912  0.72670  0.05930  Biso   1.000  C
  H201     1.0000 0.05350  0.70750  0.01260  Biso   1.000  H
  C296     1.0000 0.07577  0.88970  0.19920  Biso   1.000  C
  C297     1.0000 0.05087  0.95540  0.19390  Biso   1.000  C
  H202     1.0000 0.02950  0.95140  0.15870  Biso   1.000  H
  C298     1.0000 0.05786  0.02780  0.24150  Biso   1.000  C
  H203     1.0000 0.04070  0.07240  0.23820  Biso   1.000  H
  C299     1.0000 0.08881  0.03700  0.29320  Biso   1.000  C
  C300     1.0000 0.11376  0.97060  0.29580  Biso   1.000  C
  H204     1.0000 0.13550  0.97610  0.32970  Biso   1.000  H
  C301     1.0000 0.10738  0.89650  0.24960  Biso   1.000  C
  H205     1.0000 0.12440  0.85150  0.25280  Biso   1.000  H
  C302     1.0000 0.11648  0.10240  0.41780  Biso   1.000  C
  C303     1.0000 0.13021  0.17570  0.46290  Biso   1.000  C
  H206     1.0000 0.12910  0.23610  0.44450  Biso   1.000  H
  C304     1.0000 0.14537  0.16350  0.53320  Biso   1.000  C
  H207     1.0000 0.15440  0.21490  0.56190  Biso   1.000  H
  C305     1.0000 0.14738  0.07580  0.56180  Biso   1.000  C
  C306     1.0000 0.13302  0.00260  0.51940  Biso   1.000  C
  H208     1.0000 0.13330  0.94280  0.53850  Biso   1.000  H
  C307     1.0000 0.11784  0.01630  0.44770  Biso   1.000  C
  H209     1.0000 0.10830  0.96500  0.41920  Biso   1.000  H
  C308     1.0000 0.17841  0.12710  0.68170  Biso   1.000  C
  H210     1.0000 0.17830  0.19100  0.67140  Biso   1.000  H
  C309     1.0000 0.18727  0.99730  0.73570  Biso   1.000  C
  H211     1.0000 0.19480  0.95260  0.77120  Biso   1.000  H
  C310     1.0000 0.16940  0.97820  0.66850  Biso   1.000  C
  H212     1.0000 0.16220  0.91920  0.64930  Biso   1.000  H
  C311     1.0000 0.27238  0.47250  0.06250  Biso   1.000  C
  C312     1.0000 0.26319  0.49040  0.98660  Biso   1.000  C
  C313     1.0000 0.26654  0.57820  0.96170  Biso   1.000  C
  H213     1.0000 0.27520  0.62730  0.99300  Biso   1.000  H
  C314     1.0000 0.25711  0.59410  0.89020  Biso   1.000  C
  H214     1.0000 0.25950  0.65380  0.87340  Biso   1.000  H
  C315     1.0000 0.24432  0.52290  0.84450  Biso   1.000  C
  H215     1.0000 0.23800  0.53410  0.79640  Biso   1.000  H
  C316     1.0000 0.24059  0.43370  0.86850  Biso   1.000  C
  C317     1.0000 0.25050  0.41850  0.93980  Biso   1.000  C
  H216     1.0000 0.24860  0.35840  0.95670  Biso   1.000  H
  C318     1.0000 0.22594  0.35540  0.81870  Biso   1.000  C
  Zn13     1.0000 0.58216  0.03441  0.12187  Biso   1.000  Zn
  Zn14     1.0000 0.22332  0.84558  0.32918  Biso   1.000  Zn
  O49      1.0000 0.61575  0.03020  0.06945  Biso   1.000  O
  O50      1.0000 0.56647  0.02950  0.98373  Biso   1.000  O
  O51      1.0000 0.61503  0.98590  0.71731  Biso   1.000  O
  O52      1.0000 0.56775  0.96110  0.74531  Biso   1.000  O
  O53      1.0000 0.22315  0.88720  0.41918  Biso   1.000  O
  O54      1.0000 0.22549  0.03710  0.39650  Biso   1.000  O
  O55      1.0000 0.28380  0.78480  0.65590  Biso   1.000  O
  O56      1.0000 0.27471  0.86250  0.74250  Biso   1.000  O
  N49      1.0000 0.55283  0.92040  0.10480  Biso   1.000  N
  N50      1.0000 0.51687  0.81110  0.11307  Biso   1.000  N
  N51      1.0000 0.27135  0.85230  0.32259  Biso   1.000  N
  N52      1.0000 0.31616  0.82120  0.28970  Biso   1.000  N
  N53      1.0000 0.43214  0.16860  0.38490  Biso   1.000  N
  N54      1.0000 0.43049  0.31260  0.34890  Biso   1.000  N
  N55      1.0000 0.30718  0.59180  0.75563  Biso   1.000  N
  N56      1.0000 0.33616  0.56120  0.86567  Biso   1.000  N
  C319     1.0000 0.59825  0.03030  0.00500  Biso   1.000  C
  C320     1.0000 0.61762  0.03180  0.95300  Biso   1.000  C
  C321     1.0000 0.65187  0.05870  0.97250  Biso   1.000  C
  H217     1.0000 0.66350  0.07540  0.01890  Biso   1.000  H
  C322     1.0000 0.66907  0.06090  0.92270  Biso   1.000  C
  H218     1.0000 0.69230  0.07910  0.93560  Biso   1.000  H
  C323     1.0000 0.65190  0.03630  0.85500  Biso   1.000  C
  H219     1.0000 0.66340  0.03830  0.82170  Biso   1.000  H
  C324     1.0000 0.61786  0.00870  0.83510  Biso   1.000  C
  C325     1.0000 0.60127  0.00710  0.88500  Biso   1.000  C
  H220     1.0000 0.57810  0.98850  0.87190  Biso   1.000  H
  C326     1.0000 0.59864  0.98340  0.76150  Biso   1.000  C
  C327     1.0000 0.53044  0.89460  0.13500  Biso   1.000  C
  H221     1.0000 0.52460  0.93060  0.16830  Biso   1.000  H
  C328     1.0000 0.53223  0.78060  0.06600  Biso   1.000  C
  H222     1.0000 0.52820  0.72390  0.04150  Biso   1.000  H
  C329     1.0000 0.55430  0.84860  0.06180  Biso   1.000  C
  H223     1.0000 0.56850  0.84670  0.03350  Biso   1.000  H
  C330     1.0000 0.48961  0.76420  0.13060  Biso   1.000  C
  C331     1.0000 0.46654  0.81560  0.15120  Biso   1.000  C
  H224     1.0000 0.46900  0.88050  0.15600  Biso   1.000  H
  C332     1.0000 0.43928  0.77080  0.16510  Biso   1.000  C
  H225     1.0000 0.42360  0.80590  0.18000  Biso   1.000  H
  C333     1.0000 0.43505  0.67610  0.15750  Biso   1.000  C
  C334     1.0000 0.45906  0.62640  0.13670  Biso   1.000  C
  H226     1.0000 0.45660  0.56150  0.13130  Biso   1.000  H
  C335     1.0000 0.48647  0.66930  0.12380  Biso   1.000  C
  H227     1.0000 0.50270  0.63420  0.11060  Biso   1.000  H
  C336     1.0000 0.40199  0.62420  0.15940  Biso   1.000  C
  C337     1.0000 0.37903  0.68210  0.19190  Biso   1.000  C
  C338     1.0000 0.39315  0.72400  0.25690  Biso   1.000  C
  H228     1.0000 0.41710  0.72150  0.27910  Biso   1.000  H
  C339     1.0000 0.37269  0.76910  0.28920  Biso   1.000  C
  H229     1.0000 0.38260  0.79600  0.33340  Biso   1.000  H
  C340     1.0000 0.33754  0.77460  0.25640  Biso   1.000  C
  C341     1.0000 0.32285  0.73250  0.19250  Biso   1.000  C
  H230     1.0000 0.29900  0.73570  0.17020  Biso   1.000  H
  C342     1.0000 0.34368  0.68560  0.16170  Biso   1.000  C
  H231     1.0000 0.33350  0.65520  0.11890  Biso   1.000  H
  C343     1.0000 0.28412  0.79470  0.28770  Biso   1.000  C
  H232     1.0000 0.27270  0.74170  0.26420  Biso   1.000  H
  C344     1.0000 0.29574  0.92030  0.34820  Biso   1.000  C
  H233     1.0000 0.29350  0.97170  0.37510  Biso   1.000  H
  C345     1.0000 0.32368  0.90110  0.32810  Biso   1.000  C
  H234     1.0000 0.34410  0.93580  0.33870  Biso   1.000  H
  C346     1.0000 0.42569  0.22370  0.33070  Biso   1.000  C
  H235     1.0000 0.41850  0.20270  0.28430  Biso   1.000  H
  C347     1.0000 0.44028  0.31600  0.41960  Biso   1.000  C
  H236     1.0000 0.44550  0.36940  0.44790  Biso   1.000  H
  C348     1.0000 0.44088  0.22670  0.44070  Biso   1.000  C
  H237     1.0000 0.44650  0.20750  0.48740  Biso   1.000  H
  C349     1.0000 0.42423  0.38970  0.30080  Biso   1.000  C
  C350     1.0000 0.44913  0.45540  0.30610  Biso   1.000  C
  H238     1.0000 0.47050  0.45140  0.34130  Biso   1.000  H
  C351     1.0000 0.44214  0.52780  0.25850  Biso   1.000  C
  H239     1.0000 0.45930  0.57240  0.26180  Biso   1.000  H
  C352     1.0000 0.41119  0.53700  0.20680  Biso   1.000  C
  C353     1.0000 0.38624  0.47060  0.20420  Biso   1.000  C
  H240     1.0000 0.36450  0.47610  0.17030  Biso   1.000  H
  C354     1.0000 0.39262  0.39650  0.25040  Biso   1.000  C
  H241     1.0000 0.37560  0.35150  0.24720  Biso   1.000  H
  C355     1.0000 0.38352  0.60240  0.08220  Biso   1.000  C
  C356     1.0000 0.36979  0.67570  0.03710  Biso   1.000  C
  H242     1.0000 0.37090  0.73610  0.05550  Biso   1.000  H
  C357     1.0000 0.35463  0.66350  0.96680  Biso   1.000  C
  H243     1.0000 0.34560  0.71490  0.93810  Biso   1.000  H
  C358     1.0000 0.35262  0.57580  0.93820  Biso   1.000  C
  C359     1.0000 0.36698  0.50260  0.98060  Biso   1.000  C
  H244     1.0000 0.36670  0.44280  0.96150  Biso   1.000  H
  C360     1.0000 0.38216  0.51630  0.05230  Biso   1.000  C
  H245     1.0000 0.39170  0.46500  0.08080  Biso   1.000  H
  C361     1.0000 0.32159  0.62710  0.81830  Biso   1.000  C
  H246     1.0000 0.32170  0.69100  0.82860  Biso   1.000  H
  C362     1.0000 0.31273  0.49730  0.76430  Biso   1.000  C
  H247     1.0000 0.30520  0.45260  0.72880  Biso   1.000  H
  C363     1.0000 0.33060  0.47820  0.83150  Biso   1.000  C
  H248     1.0000 0.33780  0.41920  0.85070  Biso   1.000  H
  C364     1.0000 0.22762  0.97250  0.43750  Biso   1.000  C
  C365     1.0000 0.23681  0.99040  0.51340  Biso   1.000  C
  C366     1.0000 0.23346  0.07820  0.53830  Biso   1.000  C
  H249     1.0000 0.22480  0.12730  0.50700  Biso   1.000  H
  C367     1.0000 0.24289  0.09410  0.60980  Biso   1.000  C
  H250     1.0000 0.24050  0.15380  0.62660  Biso   1.000  H
  C368     1.0000 0.25568  0.02290  0.65550  Biso   1.000  C
  H251     1.0000 0.26200  0.03410  0.70360  Biso   1.000  H
  C369     1.0000 0.25941  0.93370  0.63150  Biso   1.000  C
  C370     1.0000 0.24950  0.91850  0.56020  Biso   1.000  C
  H252     1.0000 0.25140  0.85840  0.54330  Biso   1.000  H
  C371     1.0000 0.27406  0.85540  0.68130  Biso   1.000  C
  Zn15     1.0000 0.08216  0.53441  0.12187  Biso   1.000  Zn
  Zn16     1.0000 0.72332  0.34558  0.32918  Biso   1.000  Zn
  O57      1.0000 0.11575  0.53020  0.06945  Biso   1.000  O
  O58      1.0000 0.06647  0.52950  0.98373  Biso   1.000  O
  O59      1.0000 0.11503  0.48590  0.71731  Biso   1.000  O
  O60      1.0000 0.06775  0.46110  0.74531  Biso   1.000  O
  O61      1.0000 0.72315  0.38720  0.41918  Biso   1.000  O
  O62      1.0000 0.72549  0.53710  0.39650  Biso   1.000  O
  O63      1.0000 0.78380  0.28480  0.65590  Biso   1.000  O
  O64      1.0000 0.77471  0.36250  0.74250  Biso   1.000  O
  N57      1.0000 0.05283  0.42040  0.10480  Biso   1.000  N
  N58      1.0000 0.01687  0.31110  0.11307  Biso   1.000  N
  N59      1.0000 0.77135  0.35230  0.32259  Biso   1.000  N
  N60      1.0000 0.81616  0.32120  0.28970  Biso   1.000  N
  N61      1.0000 0.93214  0.66860  0.38490  Biso   1.000  N
  N62      1.0000 0.93049  0.81260  0.34890  Biso   1.000  N
  N63      1.0000 0.80718  0.09180  0.75563  Biso   1.000  N
  N64      1.0000 0.83616  0.06120  0.86567  Biso   1.000  N
  C372     1.0000 0.09825  0.53030  0.00500  Biso   1.000  C
  C373     1.0000 0.11762  0.53180  0.95300  Biso   1.000  C
  C374     1.0000 0.15187  0.55870  0.97250  Biso   1.000  C
  H253     1.0000 0.16350  0.57540  0.01890  Biso   1.000  H
  C375     1.0000 0.16907  0.56090  0.92270  Biso   1.000  C
  H254     1.0000 0.19230  0.57910  0.93560  Biso   1.000  H
  C376     1.0000 0.15190  0.53630  0.85500  Biso   1.000  C
  H255     1.0000 0.16340  0.53830  0.82170  Biso   1.000  H
  C377     1.0000 0.11786  0.50870  0.83510  Biso   1.000  C
  C378     1.0000 0.10127  0.50710  0.88500  Biso   1.000  C
  H256     1.0000 0.07810  0.48850  0.87190  Biso   1.000  H
  C379     1.0000 0.09864  0.48340  0.76150  Biso   1.000  C
  C380     1.0000 0.03044  0.39460  0.13500  Biso   1.000  C
  H257     1.0000 0.02460  0.43060  0.16830  Biso   1.000  H
  C381     1.0000 0.03223  0.28060  0.06600  Biso   1.000  C
  H258     1.0000 0.02820  0.22390  0.04150  Biso   1.000  H
  C382     1.0000 0.05430  0.34860  0.06180  Biso   1.000  C
  H259     1.0000 0.06850  0.34670  0.03350  Biso   1.000  H
  C383     1.0000 0.98961  0.26420  0.13060  Biso   1.000  C
  C384     1.0000 0.96654  0.31560  0.15120  Biso   1.000  C
  H260     1.0000 0.96900  0.38050  0.15600  Biso   1.000  H
  C385     1.0000 0.93928  0.27080  0.16510  Biso   1.000  C
  H261     1.0000 0.92360  0.30590  0.18000  Biso   1.000  H
  C386     1.0000 0.93505  0.17610  0.15750  Biso   1.000  C
  C387     1.0000 0.95906  0.12640  0.13670  Biso   1.000  C
  H262     1.0000 0.95660  0.06150  0.13130  Biso   1.000  H
  C388     1.0000 0.98647  0.16930  0.12380  Biso   1.000  C
  H263     1.0000 0.00270  0.13420  0.11060  Biso   1.000  H
  C389     1.0000 0.90199  0.12420  0.15940  Biso   1.000  C
  C390     1.0000 0.87903  0.18210  0.19190  Biso   1.000  C
  C391     1.0000 0.89315  0.22400  0.25690  Biso   1.000  C
  H264     1.0000 0.91710  0.22150  0.27910  Biso   1.000  H
  C392     1.0000 0.87269  0.26910  0.28920  Biso   1.000  C
  H265     1.0000 0.88260  0.29600  0.33340  Biso   1.000  H
  C393     1.0000 0.83754  0.27460  0.25640  Biso   1.000  C
  C394     1.0000 0.82285  0.23250  0.19250  Biso   1.000  C
  H266     1.0000 0.79900  0.23570  0.17020  Biso   1.000  H
  C395     1.0000 0.84368  0.18560  0.16170  Biso   1.000  C
  H267     1.0000 0.83350  0.15520  0.11890  Biso   1.000  H
  C396     1.0000 0.78412  0.29470  0.28770  Biso   1.000  C
  H268     1.0000 0.77270  0.24170  0.26420  Biso   1.000  H
  C397     1.0000 0.79574  0.42030  0.34820  Biso   1.000  C
  H269     1.0000 0.79350  0.47170  0.37510  Biso   1.000  H
  C398     1.0000 0.82368  0.40110  0.32810  Biso   1.000  C
  H270     1.0000 0.84410  0.43580  0.33870  Biso   1.000  H
  C399     1.0000 0.92569  0.72370  0.33070  Biso   1.000  C
  H271     1.0000 0.91850  0.70270  0.28430  Biso   1.000  H
  C400     1.0000 0.94028  0.81600  0.41960  Biso   1.000  C
  H272     1.0000 0.94550  0.86940  0.44790  Biso   1.000  H
  C401     1.0000 0.94088  0.72670  0.44070  Biso   1.000  C
  H273     1.0000 0.94650  0.70750  0.48740  Biso   1.000  H
  C402     1.0000 0.92423  0.88970  0.30080  Biso   1.000  C
  C403     1.0000 0.94913  0.95540  0.30610  Biso   1.000  C
  H274     1.0000 0.97050  0.95140  0.34130  Biso   1.000  H
  C404     1.0000 0.94214  0.02780  0.25850  Biso   1.000  C
  H275     1.0000 0.95930  0.07240  0.26180  Biso   1.000  H
  C405     1.0000 0.91119  0.03700  0.20680  Biso   1.000  C
  C406     1.0000 0.88624  0.97060  0.20420  Biso   1.000  C
  H276     1.0000 0.86450  0.97610  0.17030  Biso   1.000  H
  C407     1.0000 0.89262  0.89650  0.25040  Biso   1.000  C
  H277     1.0000 0.87560  0.85150  0.24720  Biso   1.000  H
  C408     1.0000 0.88352  0.10240  0.08220  Biso   1.000  C
  C409     1.0000 0.86979  0.17570  0.03710  Biso   1.000  C
  H278     1.0000 0.87090  0.23610  0.05550  Biso   1.000  H
  C410     1.0000 0.85463  0.16350  0.96680  Biso   1.000  C
  H279     1.0000 0.84560  0.21490  0.93810  Biso   1.000  H
  C411     1.0000 0.85262  0.07580  0.93820  Biso   1.000  C
  C412     1.0000 0.86698  0.00260  0.98060  Biso   1.000  C
  H280     1.0000 0.86670  0.94280  0.96150  Biso   1.000  H
  C413     1.0000 0.88216  0.01630  0.05230  Biso   1.000  C
  H281     1.0000 0.89170  0.96500  0.08080  Biso   1.000  H
  C414     1.0000 0.82159  0.12710  0.81830  Biso   1.000  C
  H282     1.0000 0.82170  0.19100  0.82860  Biso   1.000  H
  C415     1.0000 0.81273  0.99730  0.76430  Biso   1.000  C
  H283     1.0000 0.80520  0.95260  0.72880  Biso   1.000  H
  C416     1.0000 0.83060  0.97820  0.83150  Biso   1.000  C
  H284     1.0000 0.83780  0.91920  0.85070  Biso   1.000  H
  C417     1.0000 0.72762  0.47250  0.43750  Biso   1.000  C
  C418     1.0000 0.73681  0.49040  0.51340  Biso   1.000  C
  C419     1.0000 0.73346  0.57820  0.53830  Biso   1.000  C
  H285     1.0000 0.72480  0.62730  0.50700  Biso   1.000  H
  C420     1.0000 0.74289  0.59410  0.60980  Biso   1.000  C
  H286     1.0000 0.74050  0.65380  0.62660  Biso   1.000  H
  C421     1.0000 0.75568  0.52290  0.65550  Biso   1.000  C
  H287     1.0000 0.76200  0.53410  0.70360  Biso   1.000  H
  C422     1.0000 0.75941  0.43370  0.63150  Biso   1.000  C
  C423     1.0000 0.74950  0.41850  0.56020  Biso   1.000  C
  H288     1.0000 0.75140  0.35840  0.54330  Biso   1.000  H
  C424     1.0000 0.77406  0.35540  0.68130  Biso   1.000  C
