data_I
_chemical_name_common  'CAU-10//CAU-10_index_func/cif/functionalized_CAU-10_OH_index_[6, 141, 281, 146, 2, 285, 109, 40, 34, 253, 184, 137, 247, 178, 103, 150]'
_cell_length_a 21.55700
_cell_length_b 21.55700
_cell_length_c 10.38400
_cell_angle_alpha 90.00000
_cell_angle_beta  90.00000
_cell_angle_gamma 90.00000
_space_group_name_H-M_alt      'P 1'


loop_
_space_group_symop_operation_xyz
  'x, y, z' 

loop_
_atom_site_label
_atom_site_fract_x
_atom_site_fract_y
_atom_site_fract_z
_atom_site_type_symbol
C       0.0023   0.2173 0.8842999999999999     C
C     0.0033000000000000004   0.6582   0.5944     C
H     0.0052450000000000005 0.234032 0.9823509999999999     H
C     0.007118000000000001   0.7072 0.34129999999999994     C
H     0.012588 0.7299740000000001 0.24791399999999997     H
C     0.014115000000000003   0.8274   0.6274     C
C     0.045013   0.1834 0.6843999999999999     C
C     0.05151000000000001   0.2033 0.8102999999999999     C
C     0.052011   0.3022 0.40029999999999993     C
C     0.05261300000000001   0.3323   0.5253     C
C      0.05641   0.7933   0.8173     C
C     0.056511000000000006 0.6852160000000002 0.41129999999999994     C
C     0.06091300000000001   0.6552   0.5323     C
C      0.06811 0.8184000000000001   0.6923     C
H     0.08651100000000002 0.17475900000000003 0.626478     H
H     0.09656700000000001 0.347239 0.566012     H
H     0.10240800000000001 0.632666 0.569968     H
O     0.11020000000000002   0.2652 0.24229999999999996     O
C     0.11211100000000002 0.702916 0.3302999999999999     C
O       0.1123 0.7552000000000001   0.9813     O
C      0.11361 0.204818   0.8793     C
H     0.113979 0.829366  0.65423     H
C     0.116613   0.2933   0.3524     C
O       0.1172 0.7393000000000001 0.23329999999999998     O
C     0.11730000000000002 0.7949130000000001 0.8873999999999999     C
O       0.1262 0.24130000000000001   0.9743     O
H     0.132666 0.897592 0.319968     H
H     0.152761 0.09656700000000001 0.316012     H
C       0.1552 0.939113   0.2823     C
O     0.157513   0.6803 0.38359999999999994     O
C       0.1582   0.9973   0.3444     C
O     0.158813   0.1943   0.8095     O
O     0.164311   0.3193   0.3915     O
C       0.1683 0.05261300000000001 0.27529999999999993     C
O     0.16911100000000004 0.8152000000000001   0.8484     O
H     0.170634 0.613979 0.9042299999999999     H
C     0.17340000000000003 0.514115 0.8773999999999998     C
H     0.17475900000000003 0.413489 0.8764779999999999     H
O       0.1803 0.842513   0.1336     O
O       0.1813 0.164311   0.1415     O
Al    0.181711  0.25441 0.12219999999999999    Al
C       0.1824  0.56811   0.9423     C
Al    0.182613 0.7530130000000002 0.10229999999999999    Al
C       0.1834 0.45501300000000006 0.9343999999999999     C
O       0.1852 0.669111   0.0984     O
C     0.185216 0.943511   0.1613     C
O       0.1943 0.341213 0.05949999999999999     O
C     0.19820000000000002 0.052011   0.1503     C
C     0.20291600000000004 0.8879110000000001   0.0803     C
C       0.2033  0.44851   0.0603     C
C     0.204818 0.38641000000000003 0.12929999999999997     C
C     0.20511300000000002   0.6173   0.1374     C
C       0.2072 0.992918   0.0913     C
C       0.2073 0.116613   0.1024     C
C       0.2073  0.55641   0.0673     C
C       0.2173 0.4983000000000001   0.1343     C
H     0.229974 0.9874120000000001 0.997914     H
O       0.2303   0.2452   0.9814     O
H     0.234032 0.49475500000000006 0.232351     H
O       0.2352 0.11020000000000002   0.9923     O
O       0.2393 0.8832000000000001 0.9832999999999998     O
O     0.24130000000000001   0.3742 0.22429999999999997     O
O       0.2452   0.2703 0.23139999999999997     O
O       0.2452   0.6123   0.2313     O
Al    0.24561000000000002 0.181711   0.8722    Al
O     0.24630000000000002 0.7503000000000001 0.21959999999999996     O
Al    0.247013 0.682613 0.35229999999999995    Al
O       0.2503   0.7453 0.46959999999999996     O
O       0.2503   0.7543 0.9695999999999999     O
Al    0.25301300000000004 0.8174130000000001   0.8523    Al
O       0.2543 0.7503000000000001 0.7195999999999999     O
Al     0.25441 0.318311 0.3721999999999999    Al
O       0.2552   0.2303   0.7314     O
O       0.2552 0.8883000000000001 0.7312999999999998     O
O       0.2593   0.1262   0.7243     O
O       0.2613   0.6172 0.48329999999999995     O
O       0.2652   0.3902   0.4923     O
H     0.265968 0.0052450000000000005 0.732351     H
H     0.27002600000000004 0.512588 0.49791399999999997     H
O       0.2703   0.2552 0.48139999999999994     O
C       0.2833   0.0023   0.6343     C
C       0.2932 0.5071180000000001 0.5912999999999999     C
C       0.2933 0.383413 0.6023999999999999     C
C       0.2933  0.94361   0.5673     C
C     0.294913 0.8833000000000001   0.6374     C
C     0.295218  0.11361   0.6293     C
C     0.297116 0.6121110000000001 0.5802999999999999     C
C       0.2973 0.05151000000000001   0.5603     C
C       0.3022 0.448011 0.6502999999999999     C
O       0.3063 0.158813   0.5595     O
C     0.314816 0.556511 0.6612999999999999     C
O     0.31520000000000004 0.8309110000000001 0.5983999999999999     O
C     0.31740000000000007 0.045013 0.43439999999999995     C
Al    0.317413 0.747013   0.6023    Al
Al    0.318311 0.24561000000000002   0.6222    Al
C       0.3184 0.9319100000000001   0.4423     C
O       0.3193 0.33571100000000004 0.6414999999999998     O
O       0.3203 0.657513 0.6335999999999999     O
H     0.32524100000000006 0.08651100000000002 0.3764779999999999     H
C       0.3274 0.985915   0.3774     C
H     0.329366 0.886021  0.40423     H
O     0.330911   0.6852   0.3484     O
C       0.3323 0.447413   0.7753     C
O     0.33571100000000004   0.1813   0.8915     O
O     0.341213   0.3063   0.3095     O
C       0.3422   0.5033   0.8444     C
O     0.342513 0.8203000000000001   0.8836     O
C     0.34520000000000006 0.560913   0.7823     C
H     0.347239 0.403433 0.8160119999999998     H
H     0.367334 0.602408 0.819968     H
O       0.3742   0.2593 0.47429999999999994     O
O       0.3832   0.7613   0.7333     O
C     0.38330000000000003 0.705113 0.38739999999999997     C
C     0.383413   0.2073 0.8523999999999999     C
H     0.38602100000000006 0.670634  0.15423     H
C     0.38641000000000003 0.295218 0.37929999999999997     C
C     0.38791100000000006 0.7971160000000002   0.8303     C
O     0.38830000000000003   0.7452   0.4813     O
O       0.3902   0.2352 0.7422999999999998     O
H     0.39759200000000006 0.8673340000000002 0.06996799999999999     H
H     0.403433 0.152761 0.066012     H
H     0.413489 0.32524100000000006 0.126478     H
C     0.43191000000000007 0.6824000000000001   0.1923     C
C     0.439113   0.8452 0.032299999999999995     C
C     0.44351100000000004 0.8148160000000001   0.9113     C
C      0.44361   0.7073 0.31729999999999997     C
C     0.447413   0.1683 0.025299999999999996     C
C     0.448011 0.19820000000000002   0.9003     C
C      0.44851   0.2973   0.3103     C
C     0.45501300000000006 0.31740000000000007 0.18439999999999998     C
C     0.48591500000000004 0.6734000000000001   0.1274     C
H     0.487412 0.770026 0.747914     H
C     0.4929180000000001   0.7932   0.8413     C
H     0.49475500000000006 0.265968 0.482351     H
C     0.4973000000000001   0.8422   0.0944     C
C     0.4983000000000001   0.2833 0.3842999999999999     C
C       0.5023 0.7173000000000002 0.3842999999999999     C
C       0.5033   0.1582   0.0944     C
H     0.505245 0.734032 0.482351     H
C     0.5071180000000001   0.2072   0.8413     C
H     0.512588 0.229974 0.747914     H
C     0.514115   0.3274   0.1274     C
C     0.545013   0.6834 0.18439999999999998     C
C      0.55151   0.7033   0.3103     C
C     0.552011   0.8022   0.9003     C
C     0.552613   0.8323 0.025299999999999996     C
C      0.55641   0.2933 0.31729999999999997     C
C     0.556511 0.185216   0.9113     C
C     0.560913   0.1552 0.032299999999999995     C
C      0.56811   0.3184   0.1923     C
H     0.5865110000000001 0.674759 0.126478     H
H     0.596567 0.8472390000000001 0.066012     H
H     0.602408 0.132666 0.06996799999999999     H
O     0.6102000000000001 0.7652000000000001 0.7422999999999998     O
C     0.6121110000000001 0.20291600000000004   0.8303     C
O       0.6123   0.2552   0.4813     O
C      0.61361 0.704818 0.37929999999999997     C
H     0.613979 0.329366  0.15423     H
C     0.616613   0.7933 0.8523999999999999     C
O       0.6172   0.2393   0.7333     O
C       0.6173 0.294913 0.38739999999999997     C
O       0.6262   0.7413 0.47429999999999994     O
H     0.632666 0.39759200000000006 0.819968     H
H     0.6527610000000001 0.596567 0.8160119999999998     H
C       0.6552 0.439113   0.7823     C
O     0.657513   0.1803   0.8836     O
C       0.6582 0.4973000000000001   0.8444     C
O     0.658813   0.6943   0.3095     O
O     0.664311   0.8193   0.8915     O
C       0.6683 0.552613   0.7753     C
O     0.669111 0.31520000000000004   0.3484     O
H     0.670634 0.113979  0.40423     H
C     0.6734000000000001 0.014115000000000003   0.3774     C
H     0.674759 0.913489 0.3764779999999999     H
O       0.6803 0.342513 0.6335999999999999     O
O       0.6813 0.664311 0.6414999999999998     O
Al    0.681711  0.75441   0.6222    Al
C     0.6824000000000001  0.06811   0.4423     C
Al    0.682613 0.25301300000000004   0.6023    Al
C       0.6834 0.9550130000000001 0.43439999999999995     C
O       0.6852 0.16911100000000004 0.5983999999999999     O
C     0.6852160000000002 0.44351100000000004 0.6612999999999999     C
O       0.6943 0.841213   0.5595     O
C       0.6982 0.552011 0.6502999999999999     C
C     0.702916 0.38791100000000006 0.5802999999999999     C
C       0.7033  0.94851   0.5603     C
C     0.704818 0.8864100000000001   0.6293     C
C     0.705113 0.11730000000000002   0.6374     C
C       0.7072 0.4929180000000001 0.5912999999999999     C
C       0.7073  0.05641   0.5673     C
C       0.7073 0.616613 0.6023999999999999     C
C     0.7173000000000002   0.9983   0.6343     C
H     0.7299740000000001 0.487412 0.49791399999999997     H
O       0.7303   0.7452 0.48139999999999994     O
H     0.734032 0.994755 0.732351     H
O       0.7352 0.6102000000000001   0.4923     O
O     0.7393000000000001   0.3832 0.48329999999999995     O
O       0.7413   0.8742   0.7243     O
O       0.7452   0.1123 0.7312999999999998     O
O       0.7452 0.7703000000000001   0.7314     O
O       0.7453   0.2503 0.7195999999999999     O
Al    0.7456100000000001 0.681711 0.3721999999999999    Al
Al    0.747013 0.182613   0.8523    Al
O     0.7503000000000001 0.24630000000000002 0.9695999999999999     O
O     0.7503000000000001   0.2543 0.46959999999999996     O
Al    0.7530130000000002 0.317413 0.35229999999999995    Al
O       0.7543   0.2503 0.21959999999999996     O
Al     0.75441 0.8183110000000001   0.8722    Al
O     0.7552000000000001 0.38830000000000003   0.2313     O
O     0.7552000000000001   0.7303 0.23139999999999997     O
O       0.7593   0.6262 0.22429999999999997     O
O       0.7613   0.1172 0.9832999999999998     O
O     0.7652000000000001   0.8902   0.9923     O
H     0.765968 0.505245 0.232351     H
H     0.770026 0.012588 0.997914     H
O     0.7703000000000001 0.7552000000000001   0.9814     O
C     0.7833000000000001   0.5023   0.1343     C
C       0.7932 0.007118000000000001   0.0913     C
C       0.7933  0.44361   0.0673     C
C       0.7933 0.8834130000000001   0.1024     C
C     0.7949130000000001 0.38330000000000003   0.1374     C
C     0.795218  0.61361 0.12929999999999997     C
C     0.7971160000000002 0.11211100000000002   0.0803     C
C     0.7973000000000001  0.55151   0.0603     C
C       0.8022 0.9480110000000002   0.1503     C
O       0.8063 0.658813 0.05949999999999999     O
C     0.8148160000000001 0.056511000000000006   0.1613     C
O     0.8152000000000001 0.330911   0.0984     O
C     0.8174000000000001 0.545013 0.9343999999999999     C
Al    0.8174130000000001 0.247013 0.10229999999999999    Al
Al    0.8183110000000001 0.7456100000000001 0.12219999999999999    Al
C     0.8184000000000001 0.43191000000000007   0.9423     C
O       0.8193 0.8357110000000001   0.1415     O
O     0.8203000000000001 0.157513   0.1336     O
H     0.825241 0.5865110000000001 0.8764779999999999     H
C       0.8274 0.48591500000000004 0.8773999999999998     C
H     0.829366 0.38602100000000006 0.9042299999999999     H
O     0.8309110000000001   0.1852   0.8484     O
C       0.8323 0.947413 0.27529999999999993     C
O     0.8357110000000001   0.6813   0.3915     O
O     0.841213   0.8063   0.8095     O
C       0.8422 0.0033000000000000004   0.3444     C
O     0.842513   0.3203 0.38359999999999994     O
C       0.8452 0.06091300000000001   0.2823     C
H     0.8472390000000001 0.903433 0.316012     H
H     0.8673340000000002 0.10240800000000001 0.319968     H
O       0.8742   0.7593   0.9743     O
O     0.8832000000000001   0.2613 0.23329999999999998     O
C     0.8833000000000001 0.20511300000000002 0.8873999999999999     C
C     0.8834130000000001   0.7073   0.3524     C
H     0.886021 0.170634  0.65423     H
C     0.8864100000000001 0.795218   0.8793     C
C     0.8879110000000001 0.297116 0.3302999999999999     C
O     0.8883000000000001   0.2452   0.9813     O
O       0.8902   0.7352 0.24229999999999996     O
H     0.897592 0.367334 0.569968     H
H     0.903433 0.6527610000000001 0.566012     H
H     0.913489 0.825241 0.626478     H
C     0.9319100000000001   0.1824   0.6923     C
C     0.939113 0.34520000000000006   0.5323     C
C     0.943511 0.314816 0.41129999999999994     C
C      0.94361   0.2073   0.8173     C
C     0.947413   0.6683   0.5253     C
C     0.9480110000000002   0.6982 0.40029999999999993     C
C      0.94851 0.7973000000000001 0.8102999999999999     C
C     0.9550130000000001 0.8174000000000001 0.6843999999999999     C
C     0.985915 0.17340000000000003   0.6274     C
H     0.9874120000000001 0.27002600000000004 0.24791399999999997     H
C     0.992918   0.2932 0.34129999999999994     C
H     0.994755 0.765968 0.9823509999999999     H
C       0.9973   0.3422   0.5944     C
C       0.9983 0.7833000000000001 0.8842999999999999     C
O     1.019317742764828 0.8467561998299828 0.5032146968802669     O
H     0.9731161117024123 0.849655156238509 0.47865461304263396     H
O     0.5001491199797207 0.8490402671746939 0.22446421062606875     O
H     0.45379754656017657 0.8552682879119122 0.24477287698198158     H
O     -0.019273576902952876 0.15404343978870982 0.5032123847496692     O
H     0.026930791167233174 0.15114763351121566 0.4786728982815907     H
O     0.5015884175716885 0.15115930750810505 0.22450406407558027     O
H     0.45461485542567814 0.15554717562890683 0.2402032762165263     H
O     0.0015884175716886712 0.6511593075081051 0.7245040640755803     O
H     -0.04538514457432174 0.655547175628907 0.7402032762165265     H
O     1.0001491199797203 0.3490402671746941 0.7244642106260688     O
H     0.9537975465601761 0.3552682879119125 0.7447728769819811     H
O     0.3490447310754295 0.5015878252411317 0.9745490894342538     O
H     0.3551823683231845 0.5481193578909412 0.993129220090847     H
O     0.15404380017001712 0.5193177427648276 -0.24678530311973304     O
H     0.15185157438465424 0.5668878300095691 -0.2548891724102616     H
O     0.15116389603484617 1.0001481356050494 1.4744192732715757     O
H     0.15564585061299585 1.0472407667822514 1.4883691270723352     H
O     0.8490447310754292 0.0015878252411317306 0.47454908943425383     O
H     0.8551823683231842 0.0481193578909414 0.49312922009084686     H
O     0.6540438001700173 0.01931774276482742 0.25321469688026704     O
H     0.6518515743846545 0.06688783000956888 0.2451108275897383     H
O     0.4807264230970476 0.6540434397887099 0.003212384749669247     O
H     0.4331573248333337 0.6518479690826916 -0.004912690060682822     H
O     0.84675656021129 0.4807264230970476 -0.24678761525033105     O
H     0.8496523664887841 0.5269307911672336 -0.2713271017184091     H
O     0.6511638960348463 0.5001481356050499 0.9744192732715757     O
H     0.655645850612996 0.547240766782252 0.9883691270723347     H
O     0.34675656021129025 -0.019273576902952876 0.25321238474966934     O
H     0.3496523664887844 0.026930791167233164 0.22867289828159076     H
O     0.5193177427648276 0.34675619982998296 0.003214696880267125     O
H     0.473116111702412 0.34965515623850907 -0.02134538695736563     H
