data_I
_chemical_name_common  'CAU-10//CAU-10_index_func/cif/functionalized_CAU-10_NO2_index_[6, 141, 281, 146, 2, 285, 109, 40, 34, 253, 184, 137, 247, 178, 103, 150]'
_cell_length_a 21.55700
_cell_length_b 21.55700
_cell_length_c 10.38400
_cell_angle_alpha 90.00000
_cell_angle_beta  90.00000
_cell_angle_gamma 90.00000
_space_group_name_H-M_alt      'P 1'


loop_
_space_group_symop_operation_xyz
  'x, y, z' 

loop_
_atom_site_label
_atom_site_fract_x
_atom_site_fract_y
_atom_site_fract_z
_atom_site_type_symbol
C       0.0023   0.2173 0.8842999999999999     C
C     0.0033000000000000004   0.6582   0.5944     C
H     0.0052450000000000005 0.234032 0.9823509999999999     H
C     0.007118000000000001   0.7072 0.34129999999999994     C
H     0.012588 0.7299740000000001 0.24791399999999997     H
C     0.014115000000000003   0.8274   0.6274     C
C     0.045013   0.1834 0.6843999999999999     C
C     0.05151000000000001   0.2033 0.8102999999999999     C
C     0.052011   0.3022 0.40029999999999993     C
C     0.05261300000000001   0.3323   0.5253     C
C      0.05641   0.7933   0.8173     C
C     0.056511000000000006 0.6852160000000002 0.41129999999999994     C
C     0.06091300000000001   0.6552   0.5323     C
C      0.06811 0.8184000000000001   0.6923     C
H     0.08651100000000002 0.17475900000000003 0.626478     H
H     0.09656700000000001 0.347239 0.566012     H
H     0.10240800000000001 0.632666 0.569968     H
O     0.11020000000000002   0.2652 0.24229999999999996     O
C     0.11211100000000002 0.702916 0.3302999999999999     C
O       0.1123 0.7552000000000001   0.9813     O
C      0.11361 0.204818   0.8793     C
H     0.113979 0.829366  0.65423     H
C     0.116613   0.2933   0.3524     C
O       0.1172 0.7393000000000001 0.23329999999999998     O
C     0.11730000000000002 0.7949130000000001 0.8873999999999999     C
O       0.1262 0.24130000000000001   0.9743     O
H     0.132666 0.897592 0.319968     H
H     0.152761 0.09656700000000001 0.316012     H
C       0.1552 0.939113   0.2823     C
O     0.157513   0.6803 0.38359999999999994     O
C       0.1582   0.9973   0.3444     C
O     0.158813   0.1943   0.8095     O
O     0.164311   0.3193   0.3915     O
C       0.1683 0.05261300000000001 0.27529999999999993     C
O     0.16911100000000004 0.8152000000000001   0.8484     O
H     0.170634 0.613979 0.9042299999999999     H
C     0.17340000000000003 0.514115 0.8773999999999998     C
H     0.17475900000000003 0.413489 0.8764779999999999     H
O       0.1803 0.842513   0.1336     O
O       0.1813 0.164311   0.1415     O
Al    0.181711  0.25441 0.12219999999999999    Al
C       0.1824  0.56811   0.9423     C
Al    0.182613 0.7530130000000002 0.10229999999999999    Al
C       0.1834 0.45501300000000006 0.9343999999999999     C
O       0.1852 0.669111   0.0984     O
C     0.185216 0.943511   0.1613     C
O       0.1943 0.341213 0.05949999999999999     O
C     0.19820000000000002 0.052011   0.1503     C
C     0.20291600000000004 0.8879110000000001   0.0803     C
C       0.2033  0.44851   0.0603     C
C     0.204818 0.38641000000000003 0.12929999999999997     C
C     0.20511300000000002   0.6173   0.1374     C
C       0.2072 0.992918   0.0913     C
C       0.2073 0.116613   0.1024     C
C       0.2073  0.55641   0.0673     C
C       0.2173 0.4983000000000001   0.1343     C
H     0.229974 0.9874120000000001 0.997914     H
O       0.2303   0.2452   0.9814     O
H     0.234032 0.49475500000000006 0.232351     H
O       0.2352 0.11020000000000002   0.9923     O
O       0.2393 0.8832000000000001 0.9832999999999998     O
O     0.24130000000000001   0.3742 0.22429999999999997     O
O       0.2452   0.2703 0.23139999999999997     O
O       0.2452   0.6123   0.2313     O
Al    0.24561000000000002 0.181711   0.8722    Al
O     0.24630000000000002 0.7503000000000001 0.21959999999999996     O
Al    0.247013 0.682613 0.35229999999999995    Al
O       0.2503   0.7453 0.46959999999999996     O
O       0.2503   0.7543 0.9695999999999999     O
Al    0.25301300000000004 0.8174130000000001   0.8523    Al
O       0.2543 0.7503000000000001 0.7195999999999999     O
Al     0.25441 0.318311 0.3721999999999999    Al
O       0.2552   0.2303   0.7314     O
O       0.2552 0.8883000000000001 0.7312999999999998     O
O       0.2593   0.1262   0.7243     O
O       0.2613   0.6172 0.48329999999999995     O
O       0.2652   0.3902   0.4923     O
H     0.265968 0.0052450000000000005 0.732351     H
H     0.27002600000000004 0.512588 0.49791399999999997     H
O       0.2703   0.2552 0.48139999999999994     O
C       0.2833   0.0023   0.6343     C
C       0.2932 0.5071180000000001 0.5912999999999999     C
C       0.2933 0.383413 0.6023999999999999     C
C       0.2933  0.94361   0.5673     C
C     0.294913 0.8833000000000001   0.6374     C
C     0.295218  0.11361   0.6293     C
C     0.297116 0.6121110000000001 0.5802999999999999     C
C       0.2973 0.05151000000000001   0.5603     C
C       0.3022 0.448011 0.6502999999999999     C
O       0.3063 0.158813   0.5595     O
C     0.314816 0.556511 0.6612999999999999     C
O     0.31520000000000004 0.8309110000000001 0.5983999999999999     O
C     0.31740000000000007 0.045013 0.43439999999999995     C
Al    0.317413 0.747013   0.6023    Al
Al    0.318311 0.24561000000000002   0.6222    Al
C       0.3184 0.9319100000000001   0.4423     C
O       0.3193 0.33571100000000004 0.6414999999999998     O
O       0.3203 0.657513 0.6335999999999999     O
H     0.32524100000000006 0.08651100000000002 0.3764779999999999     H
C       0.3274 0.985915   0.3774     C
H     0.329366 0.886021  0.40423     H
O     0.330911   0.6852   0.3484     O
C       0.3323 0.447413   0.7753     C
O     0.33571100000000004   0.1813   0.8915     O
O     0.341213   0.3063   0.3095     O
C       0.3422   0.5033   0.8444     C
O     0.342513 0.8203000000000001   0.8836     O
C     0.34520000000000006 0.560913   0.7823     C
H     0.347239 0.403433 0.8160119999999998     H
H     0.367334 0.602408 0.819968     H
O       0.3742   0.2593 0.47429999999999994     O
O       0.3832   0.7613   0.7333     O
C     0.38330000000000003 0.705113 0.38739999999999997     C
C     0.383413   0.2073 0.8523999999999999     C
H     0.38602100000000006 0.670634  0.15423     H
C     0.38641000000000003 0.295218 0.37929999999999997     C
C     0.38791100000000006 0.7971160000000002   0.8303     C
O     0.38830000000000003   0.7452   0.4813     O
O       0.3902   0.2352 0.7422999999999998     O
H     0.39759200000000006 0.8673340000000002 0.06996799999999999     H
H     0.403433 0.152761 0.066012     H
H     0.413489 0.32524100000000006 0.126478     H
C     0.43191000000000007 0.6824000000000001   0.1923     C
C     0.439113   0.8452 0.032299999999999995     C
C     0.44351100000000004 0.8148160000000001   0.9113     C
C      0.44361   0.7073 0.31729999999999997     C
C     0.447413   0.1683 0.025299999999999996     C
C     0.448011 0.19820000000000002   0.9003     C
C      0.44851   0.2973   0.3103     C
C     0.45501300000000006 0.31740000000000007 0.18439999999999998     C
C     0.48591500000000004 0.6734000000000001   0.1274     C
H     0.487412 0.770026 0.747914     H
C     0.4929180000000001   0.7932   0.8413     C
H     0.49475500000000006 0.265968 0.482351     H
C     0.4973000000000001   0.8422   0.0944     C
C     0.4983000000000001   0.2833 0.3842999999999999     C
C       0.5023 0.7173000000000002 0.3842999999999999     C
C       0.5033   0.1582   0.0944     C
H     0.505245 0.734032 0.482351     H
C     0.5071180000000001   0.2072   0.8413     C
H     0.512588 0.229974 0.747914     H
C     0.514115   0.3274   0.1274     C
C     0.545013   0.6834 0.18439999999999998     C
C      0.55151   0.7033   0.3103     C
C     0.552011   0.8022   0.9003     C
C     0.552613   0.8323 0.025299999999999996     C
C      0.55641   0.2933 0.31729999999999997     C
C     0.556511 0.185216   0.9113     C
C     0.560913   0.1552 0.032299999999999995     C
C      0.56811   0.3184   0.1923     C
H     0.5865110000000001 0.674759 0.126478     H
H     0.596567 0.8472390000000001 0.066012     H
H     0.602408 0.132666 0.06996799999999999     H
O     0.6102000000000001 0.7652000000000001 0.7422999999999998     O
C     0.6121110000000001 0.20291600000000004   0.8303     C
O       0.6123   0.2552   0.4813     O
C      0.61361 0.704818 0.37929999999999997     C
H     0.613979 0.329366  0.15423     H
C     0.616613   0.7933 0.8523999999999999     C
O       0.6172   0.2393   0.7333     O
C       0.6173 0.294913 0.38739999999999997     C
O       0.6262   0.7413 0.47429999999999994     O
H     0.632666 0.39759200000000006 0.819968     H
H     0.6527610000000001 0.596567 0.8160119999999998     H
C       0.6552 0.439113   0.7823     C
O     0.657513   0.1803   0.8836     O
C       0.6582 0.4973000000000001   0.8444     C
O     0.658813   0.6943   0.3095     O
O     0.664311   0.8193   0.8915     O
C       0.6683 0.552613   0.7753     C
O     0.669111 0.31520000000000004   0.3484     O
H     0.670634 0.113979  0.40423     H
C     0.6734000000000001 0.014115000000000003   0.3774     C
H     0.674759 0.913489 0.3764779999999999     H
O       0.6803 0.342513 0.6335999999999999     O
O       0.6813 0.664311 0.6414999999999998     O
Al    0.681711  0.75441   0.6222    Al
C     0.6824000000000001  0.06811   0.4423     C
Al    0.682613 0.25301300000000004   0.6023    Al
C       0.6834 0.9550130000000001 0.43439999999999995     C
O       0.6852 0.16911100000000004 0.5983999999999999     O
C     0.6852160000000002 0.44351100000000004 0.6612999999999999     C
O       0.6943 0.841213   0.5595     O
C       0.6982 0.552011 0.6502999999999999     C
C     0.702916 0.38791100000000006 0.5802999999999999     C
C       0.7033  0.94851   0.5603     C
C     0.704818 0.8864100000000001   0.6293     C
C     0.705113 0.11730000000000002   0.6374     C
C       0.7072 0.4929180000000001 0.5912999999999999     C
C       0.7073  0.05641   0.5673     C
C       0.7073 0.616613 0.6023999999999999     C
C     0.7173000000000002   0.9983   0.6343     C
H     0.7299740000000001 0.487412 0.49791399999999997     H
O       0.7303   0.7452 0.48139999999999994     O
H     0.734032 0.994755 0.732351     H
O       0.7352 0.6102000000000001   0.4923     O
O     0.7393000000000001   0.3832 0.48329999999999995     O
O       0.7413   0.8742   0.7243     O
O       0.7452   0.1123 0.7312999999999998     O
O       0.7452 0.7703000000000001   0.7314     O
O       0.7453   0.2503 0.7195999999999999     O
Al    0.7456100000000001 0.681711 0.3721999999999999    Al
Al    0.747013 0.182613   0.8523    Al
O     0.7503000000000001 0.24630000000000002 0.9695999999999999     O
O     0.7503000000000001   0.2543 0.46959999999999996     O
Al    0.7530130000000002 0.317413 0.35229999999999995    Al
O       0.7543   0.2503 0.21959999999999996     O
Al     0.75441 0.8183110000000001   0.8722    Al
O     0.7552000000000001 0.38830000000000003   0.2313     O
O     0.7552000000000001   0.7303 0.23139999999999997     O
O       0.7593   0.6262 0.22429999999999997     O
O       0.7613   0.1172 0.9832999999999998     O
O     0.7652000000000001   0.8902   0.9923     O
H     0.765968 0.505245 0.232351     H
H     0.770026 0.012588 0.997914     H
O     0.7703000000000001 0.7552000000000001   0.9814     O
C     0.7833000000000001   0.5023   0.1343     C
C       0.7932 0.007118000000000001   0.0913     C
C       0.7933  0.44361   0.0673     C
C       0.7933 0.8834130000000001   0.1024     C
C     0.7949130000000001 0.38330000000000003   0.1374     C
C     0.795218  0.61361 0.12929999999999997     C
C     0.7971160000000002 0.11211100000000002   0.0803     C
C     0.7973000000000001  0.55151   0.0603     C
C       0.8022 0.9480110000000002   0.1503     C
O       0.8063 0.658813 0.05949999999999999     O
C     0.8148160000000001 0.056511000000000006   0.1613     C
O     0.8152000000000001 0.330911   0.0984     O
C     0.8174000000000001 0.545013 0.9343999999999999     C
Al    0.8174130000000001 0.247013 0.10229999999999999    Al
Al    0.8183110000000001 0.7456100000000001 0.12219999999999999    Al
C     0.8184000000000001 0.43191000000000007   0.9423     C
O       0.8193 0.8357110000000001   0.1415     O
O     0.8203000000000001 0.157513   0.1336     O
H     0.825241 0.5865110000000001 0.8764779999999999     H
C       0.8274 0.48591500000000004 0.8773999999999998     C
H     0.829366 0.38602100000000006 0.9042299999999999     H
O     0.8309110000000001   0.1852   0.8484     O
C       0.8323 0.947413 0.27529999999999993     C
O     0.8357110000000001   0.6813   0.3915     O
O     0.841213   0.8063   0.8095     O
C       0.8422 0.0033000000000000004   0.3444     C
O     0.842513   0.3203 0.38359999999999994     O
C       0.8452 0.06091300000000001   0.2823     C
H     0.8472390000000001 0.903433 0.316012     H
H     0.8673340000000002 0.10240800000000001 0.319968     H
O       0.8742   0.7593   0.9743     O
O     0.8832000000000001   0.2613 0.23329999999999998     O
C     0.8833000000000001 0.20511300000000002 0.8873999999999999     C
C     0.8834130000000001   0.7073   0.3524     C
H     0.886021 0.170634  0.65423     H
C     0.8864100000000001 0.795218   0.8793     C
C     0.8879110000000001 0.297116 0.3302999999999999     C
O     0.8883000000000001   0.2452   0.9813     O
O       0.8902   0.7352 0.24229999999999996     O
H     0.897592 0.367334 0.569968     H
H     0.903433 0.6527610000000001 0.566012     H
H     0.913489 0.825241 0.626478     H
C     0.9319100000000001   0.1824   0.6923     C
C     0.939113 0.34520000000000006   0.5323     C
C     0.943511 0.314816 0.41129999999999994     C
C      0.94361   0.2073   0.8173     C
C     0.947413   0.6683   0.5253     C
C     0.9480110000000002   0.6982 0.40029999999999993     C
C      0.94851 0.7973000000000001 0.8102999999999999     C
C     0.9550130000000001 0.8174000000000001 0.6843999999999999     C
C     0.985915 0.17340000000000003   0.6274     C
H     0.9874120000000001 0.27002600000000004 0.24791399999999997     H
C     0.992918   0.2932 0.34129999999999994     C
H     0.994755 0.765968 0.9823509999999999     H
C       0.9973   0.3422   0.5944     C
C       0.9983 0.7833000000000001 0.8842999999999999     C
N     1.019815063764407 0.848606424813731 0.49134404290558653     N
O     0.9736548444485514 0.8585325812557982 0.4214645193039971     O
O     1.07111394420135 0.8577980598932312 0.43856784090301415     O
N     0.5004214623307234 0.8496941162428632 0.2368968189947371     N
O     0.45326479135676473 0.8586100912750717 0.3044574404432528     O
O     0.5503921609687208 0.847534157523064 0.2977984207618934     O
N     -0.019769543812793958 0.15219318035674823 0.49134150976250535     N
O     0.026398579576435797 0.14227016920543875 0.42148256768609754     O
O     -0.07106233694068907 0.14299804404396227 0.43854244258242675     O
N     0.5014248104278058 0.15048630013755626 0.2369404819651578     N
O     0.4519928049755593 0.1525320787988881 0.2997246257620957     O
O     0.5491663148352268 0.1414865484644862 0.30265792396259367     O
N     0.0014248104278059704 0.6504863001375564 0.7369404819651578     N
O     -0.04800719502444052 0.6525320787988882 0.7997246257620959     O
O     0.049166314835227126 0.6414865484644863 0.8026579239625933     O
N     1.0004214623307228 0.3496941162428634 0.7368968189947371     N
O     0.9532647913567642 0.35861009127507204 0.8044574404432522     O
O     1.05039216096872 0.34753415752306444 0.7977984207618941     O
N     0.34969900683999255 0.5014241614774162 0.9869898112184103     N
O     0.35852263855038485 0.5491739362861208 1.0527842408992223     O
O     0.34763580036134195 0.45198330058900327 1.0497414381179664     O
N     0.15219357518626878 0.5198150637644067 -0.2586559570944134     N
O     0.14300194010676853 0.5711139442013489 -0.31143215909698624     O
O     0.1422674187442016 0.47365484444855094 -0.3285354806960024     O
N     0.15049132727347117 1.0004203838614145 1.4868475861578292     N
O     0.15263653097504007 1.0503820685451792 1.547783298029143     O
O     0.14139668257049653 0.9532717545914582 1.554329713636435     O
N     0.8496990068399924 0.0014241614774163813 0.4869898112184104     N
O     0.8585226385503845 0.04917393628612099 0.5527842408992223     O
O     0.847635800361342 -0.04801669941099639 0.5497414381179667     O
N     0.6521935751862689 0.019815063764406508 0.24134404290558673     N
O     0.6430019401067687 0.07111394420134866 0.1885678409030137     O
O     0.6422674187442019 -0.026345155551449163 0.1714645193039979     O
N     0.48023045618720656 0.6521931803567483 -0.008658490237494716     N
O     0.4289376630593116 0.6429980440439624 -0.06145755741757409     O
O     0.5263985795764364 0.6422701692054388 -0.07851743231390193     O
N     0.8486068196432516 0.48023045618720656 -0.25865849023749504     N
O     0.8585298307945609 0.5263985795764364 -0.3285174323139024     O
O     0.857801955956037 0.42893766305931147 -0.31145755741757425     O
N     0.6504913272734713 0.500420383861415 0.9868475861578292     N
O     0.6526365309750403 0.5503820685451799 1.0477832980291428     O
O     0.6413966825704965 0.4532717545914587 1.0543297136364356     O
N     0.3486068196432518 -0.019769543812793958 0.24134150976250537     N
O     0.35852983079456135 0.026398579576435786 0.17148256768609757     O
O     0.3578019559560378 -0.07106233694068904 0.18854244258242658     O
N     0.5198150637644067 0.34860642481373133 -0.008655957094413207     N
O     0.4736548444485511 0.35853258125579857 -0.0785354806960023     O
O     0.5711139442013488 0.35779805989323143 -0.06143215909698607     O
