data_I
_chemical_name_common  '/Users/gianmarcoterrones/Research/MOFs/MOF_structures/water_stability_work_extra_structs/cleaned_from_CCDC/CUKWUB'
_cell_length_a 13.01400
_cell_length_b 13.01400
_cell_length_c 13.45700
_cell_angle_alpha 90.00000
_cell_angle_beta  90.00000
_cell_angle_gamma 120.00000
_space_group_name_H-M_alt      'P 1'


loop_
_space_group_symop_operation_xyz
  'x, y, z' 

loop_
_atom_site_label
_atom_site_fract_x
_atom_site_fract_y
_atom_site_fract_z
_atom_site_type_symbol
C        0.019   0.5093     0.25     C
N        0.031    0.259    0.132     N
N        0.031    0.259    0.368     N
N        0.031    0.772    0.132     N
N        0.031    0.772    0.368     N
N       0.0502   0.5251   0.6681     N
N       0.0502   0.5251   0.8319     N
C        0.122   0.3487   0.0859     C
C        0.122   0.3487   0.4141     C
C        0.122   0.7733   0.0859     C
C        0.122   0.7733   0.4141     C
N       0.1377   0.4406   0.0324     N
N       0.1377   0.4406   0.4676     N
N       0.1377   0.6971   0.0324     N
N       0.1377   0.6971   0.4676     N
N        0.142   0.5708     0.25     N
N       0.1646   0.5823   0.7019     N
N       0.1646   0.5823   0.7981     N
C       0.2267   0.3487   0.0859     C
C       0.2267   0.3487   0.4141     C
C       0.2267    0.878   0.0859     C
C       0.2267    0.878   0.4141     C
N        0.228    0.259    0.132     N
N        0.228    0.259    0.368     N
N        0.228    0.969    0.132     N
N        0.228    0.969    0.368     N
N       0.2479   0.4958   0.0024     N
N       0.2479   0.4958   0.4976     N
N       0.2479   0.7521   0.0024     N
N       0.2479   0.7521   0.4976     N
N        0.259    0.031    0.632     N
N        0.259    0.031    0.868     N
N        0.259    0.228    0.632     N
N        0.259    0.228    0.868     N
N       0.3029   0.4406   0.0324     N
N       0.3029   0.4406   0.4676     N
N       0.3029   0.8623   0.0324     N
N       0.3029   0.8623   0.4676     N
Cd    0.33333333 0.66666667   0.6007    Cd
Cd    0.33333333 0.66666667   0.8993    Cd
C       0.3487    0.122   0.5859     C
C       0.3487    0.122   0.9141     C
C       0.3487   0.2267   0.5859     C
C       0.3487   0.2267   0.9141     C
N       0.4177   0.5823   0.7019     N
N       0.4177   0.5823   0.7981     N
N       0.4177   0.8354   0.7019     N
N       0.4177   0.8354   0.7981     N
N       0.4288   0.5708     0.25     N
N       0.4288    0.858     0.25     N
N       0.4406   0.1377   0.5324     N
N       0.4406   0.1377   0.9676     N
N       0.4406   0.3029   0.5324     N
N       0.4406   0.3029   0.9676     N
N       0.4749   0.5251   0.6681     N
N       0.4749   0.5251   0.8319     N
N       0.4749   0.9498   0.6681     N
N       0.4749   0.9498   0.8319     N
C       0.4903   0.5093     0.25     C
C       0.4903    0.981     0.25     C
N       0.4958   0.2479   0.5024     N
N       0.4958   0.2479   0.9976     N
Cd         0.5      0.0      0.0    Cd
Cd         0.5      0.0      0.5    Cd
Cd         0.5      0.5      0.5    Cd
Cd         0.5      0.5      1.0    Cd
N       0.5042   0.7521   0.0024     N
N       0.5042   0.7521   0.4976     N
C       0.5093    0.019     0.75     C
C       0.5093   0.4903     0.75     C
N       0.5251   0.0502   0.1681     N
N       0.5251   0.0502   0.3319     N
N       0.5251   0.4749   0.1681     N
N       0.5251   0.4749   0.3319     N
N       0.5594   0.6971   0.0324     N
N       0.5594   0.6971   0.4676     N
N       0.5594   0.8623   0.0324     N
N       0.5594   0.8623   0.4676     N
N       0.5708    0.142     0.75     N
N       0.5708   0.4288     0.75     N
N       0.5823   0.1646   0.2019     N
N       0.5823   0.1646   0.2981     N
N       0.5823   0.4177   0.2019     N
N       0.5823   0.4177   0.2981     N
C       0.6513   0.7733   0.0859     C
C       0.6513   0.7733   0.4141     C
C       0.6513    0.878   0.0859     C
C       0.6513    0.878   0.4141     C
Cd    0.66666667 0.33333333   0.1007    Cd
Cd    0.66666667 0.33333333   0.3993    Cd
N       0.6971   0.1377   0.5324     N
N       0.6971   0.1377   0.9676     N
N       0.6971   0.5594   0.5324     N
N       0.6971   0.5594   0.9676     N
N        0.741    0.772    0.132     N
N        0.741    0.772    0.368     N
N        0.741    0.969    0.132     N
N        0.741    0.969    0.368     N
N       0.7521   0.2479   0.5024     N
N       0.7521   0.2479   0.9976     N
N       0.7521   0.5042   0.5024     N
N       0.7521   0.5042   0.9976     N
N        0.772    0.031    0.632     N
N        0.772    0.031    0.868     N
N        0.772    0.741    0.632     N
N        0.772    0.741    0.868     N
C       0.7733    0.122   0.5859     C
C       0.7733    0.122   0.9141     C
C       0.7733   0.6513   0.5859     C
C       0.7733   0.6513   0.9141     C
N       0.8354   0.4177   0.2019     N
N       0.8354   0.4177   0.2981     N
N        0.858   0.4288     0.75     N
N       0.8623   0.3029   0.5324     N
N       0.8623   0.3029   0.9676     N
N       0.8623   0.5594   0.5324     N
N       0.8623   0.5594   0.9676     N
C        0.878   0.2267   0.5859     C
C        0.878   0.2267   0.9141     C
C        0.878   0.6513   0.5859     C
C        0.878   0.6513   0.9141     C
N       0.9498   0.4749   0.1681     N
N       0.9498   0.4749   0.3319     N
N        0.969    0.228    0.632     N
N        0.969    0.228    0.868     N
N        0.969    0.741    0.632     N
N        0.969    0.741    0.868     N
C        0.981   0.4903     0.75     C
Cd         1.0      0.5      0.0    Cd
Cd         1.0      0.5      0.5    Cd
