data_I
_chemical_name_common  '/Users/gianmarcoterrones/Research/MOFs/MOF_structures/water_stability_work_extra_structs/cleaned_from_CCDC/CUKXEM'
_cell_length_a 13.06280
_cell_length_b 13.06280
_cell_length_c 13.52200
_cell_angle_alpha 90.00000
_cell_angle_beta  90.00000
_cell_angle_gamma 120.00000
_space_group_name_H-M_alt      'P 1'


loop_
_space_group_symop_operation_xyz
  'x, y, z' 

loop_
_atom_site_label
_atom_site_fract_x
_atom_site_fract_y
_atom_site_fract_z
_atom_site_type_symbol
C       0.0166   0.5083     0.25     C
N        0.032    0.259    0.134     N
N        0.032    0.259    0.366     N
N        0.032    0.773    0.134     N
N        0.032    0.773    0.366     N
N       0.0498   0.5249   0.6691     N
N       0.0498   0.5249   0.8309     N
C       0.1249   0.3505   0.0861     C
C       0.1249   0.3505   0.4139     C
C       0.1249   0.7744   0.0861     C
C       0.1249   0.7744   0.4139     C
N       0.1394   0.5697     0.25     N
N       0.1396   0.4431   0.0327     N
N       0.1396   0.4431   0.4673     N
N       0.1396   0.6965   0.0327     N
N       0.1396   0.6965   0.4673     N
N       0.1638   0.5819   0.7036     N
N       0.1638   0.5819   0.7964     N
C       0.2256   0.3505   0.0861     C
C       0.2256   0.3505   0.4139     C
C       0.2256   0.8751   0.0861     C
C       0.2256   0.8751   0.4139     C
N        0.227    0.259    0.134     N
N        0.227    0.259    0.366     N
N        0.227    0.968    0.134     N
N        0.227    0.968    0.366     N
N       0.2488   0.4976   0.0013     N
N       0.2488   0.4976   0.4987     N
N       0.2488   0.7512   0.0013     N
N       0.2488   0.7512   0.4987     N
N        0.259    0.032    0.634     N
N        0.259    0.032    0.866     N
N        0.259    0.227    0.634     N
N        0.259    0.227    0.866     N
N       0.3035   0.4431   0.0327     N
N       0.3035   0.4431   0.4673     N
N       0.3035   0.8604   0.0327     N
N       0.3035   0.8604   0.4673     N
Cd    0.33333333 0.66666667  0.60099    Cd
Cd    0.33333333 0.66666667  0.89901    Cd
C       0.3505   0.1249   0.5861     C
C       0.3505   0.1249   0.9139     C
C       0.3505   0.2256   0.5861     C
C       0.3505   0.2256   0.9139     C
N       0.4181   0.5819   0.7036     N
N       0.4181   0.5819   0.7964     N
N       0.4181   0.8362   0.7036     N
N       0.4181   0.8362   0.7964     N
N       0.4303   0.5697     0.25     N
N       0.4303   0.8606     0.25     N
N       0.4431   0.1396   0.5327     N
N       0.4431   0.1396   0.9673     N
N       0.4431   0.3035   0.5327     N
N       0.4431   0.3035   0.9673     N
N       0.4751   0.5249   0.6691     N
N       0.4751   0.5249   0.8309     N
N       0.4751   0.9502   0.6691     N
N       0.4751   0.9502   0.8309     N
C       0.4917   0.5083     0.25     C
C       0.4917   0.9834     0.25     C
N       0.4976   0.2488   0.5013     N
N       0.4976   0.2488   0.9987     N
Cd         0.5      0.0      0.0    Cd
Cd         0.5      0.0      0.5    Cd
Cd         0.5      0.5      0.5    Cd
Cd         0.5      0.5      1.0    Cd
N       0.5024   0.7512   0.0013     N
N       0.5024   0.7512   0.4987     N
C       0.5083   0.0166     0.75     C
C       0.5083   0.4917     0.75     C
N       0.5249   0.0498   0.1691     N
N       0.5249   0.0498   0.3309     N
N       0.5249   0.4751   0.1691     N
N       0.5249   0.4751   0.3309     N
N       0.5569   0.6965   0.0327     N
N       0.5569   0.6965   0.4673     N
N       0.5569   0.8604   0.0327     N
N       0.5569   0.8604   0.4673     N
N       0.5697   0.1394     0.75     N
N       0.5697   0.4303     0.75     N
N       0.5819   0.1638   0.2036     N
N       0.5819   0.1638   0.2964     N
N       0.5819   0.4181   0.2036     N
N       0.5819   0.4181   0.2964     N
C       0.6495   0.7744   0.0861     C
C       0.6495   0.7744   0.4139     C
C       0.6495   0.8751   0.0861     C
C       0.6495   0.8751   0.4139     C
Cd    0.66666667 0.33333333  0.10099    Cd
Cd    0.66666667 0.33333333  0.39901    Cd
N       0.6965   0.1396   0.5327     N
N       0.6965   0.1396   0.9673     N
N       0.6965   0.5569   0.5327     N
N       0.6965   0.5569   0.9673     N
N        0.741    0.773    0.134     N
N        0.741    0.773    0.366     N
N        0.741    0.968    0.134     N
N        0.741    0.968    0.366     N
N       0.7512   0.2488   0.5013     N
N       0.7512   0.2488   0.9987     N
N       0.7512   0.5024   0.5013     N
N       0.7512   0.5024   0.9987     N
N        0.773    0.032    0.634     N
N        0.773    0.032    0.866     N
N        0.773    0.741    0.634     N
N        0.773    0.741    0.866     N
C       0.7744   0.1249   0.5861     C
C       0.7744   0.1249   0.9139     C
C       0.7744   0.6495   0.5861     C
C       0.7744   0.6495   0.9139     C
N       0.8362   0.4181   0.2036     N
N       0.8362   0.4181   0.2964     N
N       0.8604   0.3035   0.5327     N
N       0.8604   0.3035   0.9673     N
N       0.8604   0.5569   0.5327     N
N       0.8604   0.5569   0.9673     N
N       0.8606   0.4303     0.75     N
C       0.8751   0.2256   0.5861     C
C       0.8751   0.2256   0.9139     C
C       0.8751   0.6495   0.5861     C
C       0.8751   0.6495   0.9139     C
N       0.9502   0.4751   0.1691     N
N       0.9502   0.4751   0.3309     N
N        0.968    0.227    0.634     N
N        0.968    0.227    0.866     N
N        0.968    0.741    0.634     N
N        0.968    0.741    0.866     N
C       0.9834   0.4917     0.75     C
Cd         1.0      0.5      0.0    Cd
Cd         1.0      0.5      0.5    Cd
