data_image0
_cell_length_a       22.198
_cell_length_b       22.198
_cell_length_c       22.198
_cell_angle_alpha    90
_cell_angle_beta     90
_cell_angle_gamma    90

_symmetry_space_group_name_H-M    "P 1"
_symmetry_int_tables_number       1

loop_
  _symmetry_equiv_pos_as_xyz
  'x, y, z'

loop_
  _atom_site_label
  _atom_site_occupancy
  _atom_site_fract_x
  _atom_site_fract_y
  _atom_site_fract_z
  _atom_site_thermal_displace_type
  _atom_site_B_iso_or_equiv
  _atom_site_type_symbol
  N1       1.0000 0.35270  0.70360  0.93980  Biso   1.000  N
  N2       1.0000 0.29910  0.75600  0.87480  Biso   1.000  N
  O1       1.0000 0.43120  0.70390  0.06730  Biso   1.000  O
  O2       1.0000 0.45550  0.60830  0.05653  Biso   1.000  O
  C1       1.0000 0.27070  0.81630  0.78840  Biso   1.000  C
  H1       1.0000 0.30390  0.84100  0.79490  Biso   1.000  H
  C2       1.0000 0.25870  0.76770  0.82660  Biso   1.000  C
  C3       1.0000 0.31400  0.70080  0.89590  Biso   1.000  C
  H2       1.0000 0.29840  0.66490  0.88080  Biso   1.000  H
  C4       1.0000 0.36400  0.76340  0.94790  Biso   1.000  C
  H3       1.0000 0.39020  0.77900  0.97670  Biso   1.000  H
  C5       1.0000 0.33210  0.79730  0.90830  Biso   1.000  C
  H4       1.0000 0.33230  0.83900  0.90450  Biso   1.000  H
  C6       1.0000 0.46260  0.65900  0.08090  Biso   1.000  C
  C7       1.0000 0.50750  0.66560  0.13060  Biso   1.000  C
  C8       1.0000 0.52320  0.72070  0.15380  Biso   1.000  C
  H5       1.0000 0.50540  0.75540  0.13840  Biso   1.000  H
  C9       1.0000 0.53420  0.61420  0.15510  Biso   1.000  C
  H6       1.0000 0.52410  0.57640  0.14030  Biso   1.000  H
  C10      1.0000 0.57560  0.61910  0.20100  Biso   1.000  C
  H7       1.0000 0.59260  0.58420  0.21670  Biso   1.000  H
  C11      1.0000 0.56540  0.72540  0.19980  Biso   1.000  C
  H8       1.0000 0.57580  0.76320  0.21450  Biso   1.000  H
  C12      1.0000 0.59240  0.67390  0.22440  Biso   1.000  C
  C13      1.0000 0.63880  0.67760  0.27220  Biso   1.000  C
  C14      1.0000 0.68550  0.63630  0.27600  Biso   1.000  C
  H9       1.0000 0.68870  0.60620  0.24700  Biso   1.000  H
  N3       1.0000 0.64730  0.29640  0.93980  Biso   1.000  N
  N4       1.0000 0.70090  0.24400  0.87480  Biso   1.000  N
  O3       1.0000 0.56880  0.29610  0.06730  Biso   1.000  O
  O4       1.0000 0.54450  0.39170  0.05653  Biso   1.000  O
  C15      1.0000 0.72930  0.18370  0.78840  Biso   1.000  C
  H10      1.0000 0.69610  0.15900  0.79490  Biso   1.000  H
  C16      1.0000 0.74130  0.23230  0.82660  Biso   1.000  C
  C17      1.0000 0.68600  0.29920  0.89590  Biso   1.000  C
  H11      1.0000 0.70160  0.33510  0.88080  Biso   1.000  H
  C18      1.0000 0.63600  0.23660  0.94790  Biso   1.000  C
  H12      1.0000 0.60980  0.22100  0.97670  Biso   1.000  H
  C19      1.0000 0.66790  0.20270  0.90830  Biso   1.000  C
  H13      1.0000 0.66770  0.16100  0.90450  Biso   1.000  H
  C20      1.0000 0.53740  0.34100  0.08090  Biso   1.000  C
  C21      1.0000 0.49250  0.33440  0.13060  Biso   1.000  C
  C22      1.0000 0.47680  0.27930  0.15380  Biso   1.000  C
  H14      1.0000 0.49460  0.24460  0.13840  Biso   1.000  H
  C23      1.0000 0.46580  0.38580  0.15510  Biso   1.000  C
  H15      1.0000 0.47590  0.42360  0.14030  Biso   1.000  H
  C24      1.0000 0.42440  0.38090  0.20100  Biso   1.000  C
  H16      1.0000 0.40740  0.41580  0.21670  Biso   1.000  H
  C25      1.0000 0.43460  0.27460  0.19980  Biso   1.000  C
  H17      1.0000 0.42420  0.23680  0.21450  Biso   1.000  H
  C26      1.0000 0.40760  0.32610  0.22440  Biso   1.000  C
  C27      1.0000 0.36120  0.32240  0.27220  Biso   1.000  C
  C28      1.0000 0.31450  0.36370  0.27600  Biso   1.000  C
  H18      1.0000 0.31130  0.39380  0.24700  Biso   1.000  H
  N5       1.0000 0.64730  0.70360  0.06020  Biso   1.000  N
  N6       1.0000 0.70090  0.75600  0.12520  Biso   1.000  N
  O5       1.0000 0.56880  0.70390  0.93270  Biso   1.000  O
  O6       1.0000 0.54450  0.60830  0.94347  Biso   1.000  O
  C29      1.0000 0.72930  0.81630  0.21160  Biso   1.000  C
  H19      1.0000 0.69610  0.84100  0.20510  Biso   1.000  H
  C30      1.0000 0.74130  0.76770  0.17340  Biso   1.000  C
  C31      1.0000 0.68600  0.70080  0.10410  Biso   1.000  C
  H20      1.0000 0.70160  0.66490  0.11920  Biso   1.000  H
  C32      1.0000 0.63600  0.76340  0.05210  Biso   1.000  C
  H21      1.0000 0.60980  0.77900  0.02330  Biso   1.000  H
  C33      1.0000 0.66790  0.79730  0.09170  Biso   1.000  C
  H22      1.0000 0.66770  0.83900  0.09550  Biso   1.000  H
  C34      1.0000 0.53740  0.65900  0.91910  Biso   1.000  C
  C35      1.0000 0.49250  0.66560  0.86940  Biso   1.000  C
  C36      1.0000 0.47680  0.72070  0.84620  Biso   1.000  C
  H23      1.0000 0.49460  0.75540  0.86160  Biso   1.000  H
  C37      1.0000 0.46580  0.61420  0.84490  Biso   1.000  C
  H24      1.0000 0.47590  0.57640  0.85970  Biso   1.000  H
  C38      1.0000 0.42440  0.61910  0.79900  Biso   1.000  C
  H25      1.0000 0.40740  0.58420  0.78330  Biso   1.000  H
  C39      1.0000 0.43460  0.72540  0.80020  Biso   1.000  C
  H26      1.0000 0.42420  0.76320  0.78550  Biso   1.000  H
  C40      1.0000 0.40760  0.67390  0.77560  Biso   1.000  C
  C41      1.0000 0.36120  0.67760  0.72780  Biso   1.000  C
  C42      1.0000 0.31450  0.63630  0.72400  Biso   1.000  C
  H27      1.0000 0.31130  0.60620  0.75300  Biso   1.000  H
  N7       1.0000 0.35270  0.29640  0.06020  Biso   1.000  N
  N8       1.0000 0.29910  0.24400  0.12520  Biso   1.000  N
  O7       1.0000 0.43120  0.29610  0.93270  Biso   1.000  O
  O8       1.0000 0.45550  0.39170  0.94347  Biso   1.000  O
  C43      1.0000 0.27070  0.18370  0.21160  Biso   1.000  C
  H28      1.0000 0.30390  0.15900  0.20510  Biso   1.000  H
  C44      1.0000 0.25870  0.23230  0.17340  Biso   1.000  C
  C45      1.0000 0.31400  0.29920  0.10410  Biso   1.000  C
  H29      1.0000 0.29840  0.33510  0.11920  Biso   1.000  H
  C46      1.0000 0.36400  0.23660  0.05210  Biso   1.000  C
  H30      1.0000 0.39020  0.22100  0.02330  Biso   1.000  H
  C47      1.0000 0.33210  0.20270  0.09170  Biso   1.000  C
  H31      1.0000 0.33230  0.16100  0.09550  Biso   1.000  H
  C48      1.0000 0.46260  0.34100  0.91910  Biso   1.000  C
  C49      1.0000 0.50750  0.33440  0.86940  Biso   1.000  C
  C50      1.0000 0.52320  0.27930  0.84620  Biso   1.000  C
  H32      1.0000 0.50540  0.24460  0.86160  Biso   1.000  H
  C51      1.0000 0.53420  0.38580  0.84490  Biso   1.000  C
  H33      1.0000 0.52410  0.42360  0.85970  Biso   1.000  H
  C52      1.0000 0.57560  0.38090  0.79900  Biso   1.000  C
  H34      1.0000 0.59260  0.41580  0.78330  Biso   1.000  H
  C53      1.0000 0.56540  0.27460  0.80020  Biso   1.000  C
  H35      1.0000 0.57580  0.23680  0.78550  Biso   1.000  H
  C54      1.0000 0.59240  0.32610  0.77560  Biso   1.000  C
  C55      1.0000 0.63880  0.32240  0.72780  Biso   1.000  C
  C56      1.0000 0.68550  0.36370  0.72400  Biso   1.000  C
  H36      1.0000 0.68870  0.39380  0.75300  Biso   1.000  H
  N9       1.0000 0.93980  0.35270  0.70360  Biso   1.000  N
  N10      1.0000 0.87480  0.29910  0.75600  Biso   1.000  N
  O9       1.0000 0.06730  0.43120  0.70390  Biso   1.000  O
  O10      1.0000 0.05653  0.45550  0.60830  Biso   1.000  O
  C57      1.0000 0.78840  0.27070  0.81630  Biso   1.000  C
  H37      1.0000 0.79490  0.30390  0.84100  Biso   1.000  H
  C58      1.0000 0.82660  0.25870  0.76770  Biso   1.000  C
  C59      1.0000 0.89590  0.31400  0.70080  Biso   1.000  C
  H38      1.0000 0.88080  0.29840  0.66490  Biso   1.000  H
  C60      1.0000 0.94790  0.36400  0.76340  Biso   1.000  C
  H39      1.0000 0.97670  0.39020  0.77900  Biso   1.000  H
  C61      1.0000 0.90830  0.33210  0.79730  Biso   1.000  C
  H40      1.0000 0.90450  0.33230  0.83900  Biso   1.000  H
  C62      1.0000 0.08090  0.46260  0.65900  Biso   1.000  C
  C63      1.0000 0.13060  0.50750  0.66560  Biso   1.000  C
  C64      1.0000 0.15380  0.52320  0.72070  Biso   1.000  C
  H41      1.0000 0.13840  0.50540  0.75540  Biso   1.000  H
  C65      1.0000 0.15510  0.53420  0.61420  Biso   1.000  C
  H42      1.0000 0.14030  0.52410  0.57640  Biso   1.000  H
  C66      1.0000 0.20100  0.57560  0.61910  Biso   1.000  C
  H43      1.0000 0.21670  0.59260  0.58420  Biso   1.000  H
  C67      1.0000 0.19980  0.56540  0.72540  Biso   1.000  C
  H44      1.0000 0.21450  0.57580  0.76320  Biso   1.000  H
  C68      1.0000 0.22440  0.59240  0.67390  Biso   1.000  C
  C69      1.0000 0.27220  0.63880  0.67760  Biso   1.000  C
  C70      1.0000 0.27600  0.68550  0.63630  Biso   1.000  C
  H45      1.0000 0.24700  0.68870  0.60620  Biso   1.000  H
  N11      1.0000 0.93980  0.64730  0.29640  Biso   1.000  N
  N12      1.0000 0.87480  0.70090  0.24400  Biso   1.000  N
  O11      1.0000 0.06730  0.56880  0.29610  Biso   1.000  O
  O12      1.0000 0.05653  0.54450  0.39170  Biso   1.000  O
  C71      1.0000 0.78840  0.72930  0.18370  Biso   1.000  C
  H46      1.0000 0.79490  0.69610  0.15900  Biso   1.000  H
  C72      1.0000 0.82660  0.74130  0.23230  Biso   1.000  C
  C73      1.0000 0.89590  0.68600  0.29920  Biso   1.000  C
  H47      1.0000 0.88080  0.70160  0.33510  Biso   1.000  H
  C74      1.0000 0.94790  0.63600  0.23660  Biso   1.000  C
  H48      1.0000 0.97670  0.60980  0.22100  Biso   1.000  H
  C75      1.0000 0.90830  0.66790  0.20270  Biso   1.000  C
  H49      1.0000 0.90450  0.66770  0.16100  Biso   1.000  H
  C76      1.0000 0.08090  0.53740  0.34100  Biso   1.000  C
  C77      1.0000 0.13060  0.49250  0.33440  Biso   1.000  C
  C78      1.0000 0.15380  0.47680  0.27930  Biso   1.000  C
  H50      1.0000 0.13840  0.49460  0.24460  Biso   1.000  H
  C79      1.0000 0.15510  0.46580  0.38580  Biso   1.000  C
  H51      1.0000 0.14030  0.47590  0.42360  Biso   1.000  H
  C80      1.0000 0.20100  0.42440  0.38090  Biso   1.000  C
  H52      1.0000 0.21670  0.40740  0.41580  Biso   1.000  H
  C81      1.0000 0.19980  0.43460  0.27460  Biso   1.000  C
  H53      1.0000 0.21450  0.42420  0.23680  Biso   1.000  H
  C82      1.0000 0.22440  0.40760  0.32610  Biso   1.000  C
  C83      1.0000 0.27220  0.36120  0.32240  Biso   1.000  C
  C84      1.0000 0.27600  0.31450  0.36370  Biso   1.000  C
  H54      1.0000 0.24700  0.31130  0.39380  Biso   1.000  H
  N13      1.0000 0.06020  0.64730  0.70360  Biso   1.000  N
  N14      1.0000 0.12520  0.70090  0.75600  Biso   1.000  N
  O13      1.0000 0.93270  0.56880  0.70390  Biso   1.000  O
  O14      1.0000 0.94347  0.54450  0.60830  Biso   1.000  O
  C85      1.0000 0.21160  0.72930  0.81630  Biso   1.000  C
  H55      1.0000 0.20510  0.69610  0.84100  Biso   1.000  H
  C86      1.0000 0.17340  0.74130  0.76770  Biso   1.000  C
  C87      1.0000 0.10410  0.68600  0.70080  Biso   1.000  C
  H56      1.0000 0.11920  0.70160  0.66490  Biso   1.000  H
  C88      1.0000 0.05210  0.63600  0.76340  Biso   1.000  C
  H57      1.0000 0.02330  0.60980  0.77900  Biso   1.000  H
  C89      1.0000 0.09170  0.66790  0.79730  Biso   1.000  C
  H58      1.0000 0.09550  0.66770  0.83900  Biso   1.000  H
  C90      1.0000 0.91910  0.53740  0.65900  Biso   1.000  C
  C91      1.0000 0.86940  0.49250  0.66560  Biso   1.000  C
  C92      1.0000 0.84620  0.47680  0.72070  Biso   1.000  C
  H59      1.0000 0.86160  0.49460  0.75540  Biso   1.000  H
  C93      1.0000 0.84490  0.46580  0.61420  Biso   1.000  C
  H60      1.0000 0.85970  0.47590  0.57640  Biso   1.000  H
  C94      1.0000 0.79900  0.42440  0.61910  Biso   1.000  C
  H61      1.0000 0.78330  0.40740  0.58420  Biso   1.000  H
  C95      1.0000 0.80020  0.43460  0.72540  Biso   1.000  C
  H62      1.0000 0.78550  0.42420  0.76320  Biso   1.000  H
  C96      1.0000 0.77560  0.40760  0.67390  Biso   1.000  C
  C97      1.0000 0.72780  0.36120  0.67760  Biso   1.000  C
  C98      1.0000 0.72400  0.31450  0.63630  Biso   1.000  C
  H63      1.0000 0.75300  0.31130  0.60620  Biso   1.000  H
  N15      1.0000 0.06020  0.35270  0.29640  Biso   1.000  N
  N16      1.0000 0.12520  0.29910  0.24400  Biso   1.000  N
  O15      1.0000 0.93270  0.43120  0.29610  Biso   1.000  O
  O16      1.0000 0.94347  0.45550  0.39170  Biso   1.000  O
  C99      1.0000 0.21160  0.27070  0.18370  Biso   1.000  C
  H64      1.0000 0.20510  0.30390  0.15900  Biso   1.000  H
  C100     1.0000 0.17340  0.25870  0.23230  Biso   1.000  C
  C101     1.0000 0.10410  0.31400  0.29920  Biso   1.000  C
  H65      1.0000 0.11920  0.29840  0.33510  Biso   1.000  H
  C102     1.0000 0.05210  0.36400  0.23660  Biso   1.000  C
  H66      1.0000 0.02330  0.39020  0.22100  Biso   1.000  H
  C103     1.0000 0.09170  0.33210  0.20270  Biso   1.000  C
  H67      1.0000 0.09550  0.33230  0.16100  Biso   1.000  H
  C104     1.0000 0.91910  0.46260  0.34100  Biso   1.000  C
  C105     1.0000 0.86940  0.50750  0.33440  Biso   1.000  C
  C106     1.0000 0.84620  0.52320  0.27930  Biso   1.000  C
  H68      1.0000 0.86160  0.50540  0.24460  Biso   1.000  H
  C107     1.0000 0.84490  0.53420  0.38580  Biso   1.000  C
  H69      1.0000 0.85970  0.52410  0.42360  Biso   1.000  H
  C108     1.0000 0.79900  0.57560  0.38090  Biso   1.000  C
  H70      1.0000 0.78330  0.59260  0.41580  Biso   1.000  H
  C109     1.0000 0.80020  0.56540  0.27460  Biso   1.000  C
  H71      1.0000 0.78550  0.57580  0.23680  Biso   1.000  H
  C110     1.0000 0.77560  0.59240  0.32610  Biso   1.000  C
  C111     1.0000 0.72780  0.63880  0.32240  Biso   1.000  C
  C112     1.0000 0.72400  0.68550  0.36370  Biso   1.000  C
  H72      1.0000 0.75300  0.68870  0.39380  Biso   1.000  H
  N17      1.0000 0.70360  0.93980  0.35270  Biso   1.000  N
  N18      1.0000 0.75600  0.87480  0.29910  Biso   1.000  N
  O17      1.0000 0.70390  0.06730  0.43120  Biso   1.000  O
  O18      1.0000 0.60830  0.05653  0.45550  Biso   1.000  O
  C113     1.0000 0.81630  0.78840  0.27070  Biso   1.000  C
  H73      1.0000 0.84100  0.79490  0.30390  Biso   1.000  H
  C114     1.0000 0.76770  0.82660  0.25870  Biso   1.000  C
  C115     1.0000 0.70080  0.89590  0.31400  Biso   1.000  C
  H74      1.0000 0.66490  0.88080  0.29840  Biso   1.000  H
  C116     1.0000 0.76340  0.94790  0.36400  Biso   1.000  C
  H75      1.0000 0.77900  0.97670  0.39020  Biso   1.000  H
  C117     1.0000 0.79730  0.90830  0.33210  Biso   1.000  C
  H76      1.0000 0.83900  0.90450  0.33230  Biso   1.000  H
  C118     1.0000 0.65900  0.08090  0.46260  Biso   1.000  C
  C119     1.0000 0.66560  0.13060  0.50750  Biso   1.000  C
  C120     1.0000 0.72070  0.15380  0.52320  Biso   1.000  C
  H77      1.0000 0.75540  0.13840  0.50540  Biso   1.000  H
  C121     1.0000 0.61420  0.15510  0.53420  Biso   1.000  C
  H78      1.0000 0.57640  0.14030  0.52410  Biso   1.000  H
  C122     1.0000 0.61910  0.20100  0.57560  Biso   1.000  C
  H79      1.0000 0.58420  0.21670  0.59260  Biso   1.000  H
  C123     1.0000 0.72540  0.19980  0.56540  Biso   1.000  C
  H80      1.0000 0.76320  0.21450  0.57580  Biso   1.000  H
  C124     1.0000 0.67390  0.22440  0.59240  Biso   1.000  C
  C125     1.0000 0.67760  0.27220  0.63880  Biso   1.000  C
  C126     1.0000 0.63630  0.27600  0.68550  Biso   1.000  C
  H81      1.0000 0.60620  0.24700  0.68870  Biso   1.000  H
  N19      1.0000 0.29640  0.93980  0.64730  Biso   1.000  N
  N20      1.0000 0.24400  0.87480  0.70090  Biso   1.000  N
  O19      1.0000 0.29610  0.06730  0.56880  Biso   1.000  O
  O20      1.0000 0.39170  0.05653  0.54450  Biso   1.000  O
  C127     1.0000 0.18370  0.78840  0.72930  Biso   1.000  C
  H82      1.0000 0.15900  0.79490  0.69610  Biso   1.000  H
  C128     1.0000 0.23230  0.82660  0.74130  Biso   1.000  C
  C129     1.0000 0.29920  0.89590  0.68600  Biso   1.000  C
  H83      1.0000 0.33510  0.88080  0.70160  Biso   1.000  H
  C130     1.0000 0.23660  0.94790  0.63600  Biso   1.000  C
  H84      1.0000 0.22100  0.97670  0.60980  Biso   1.000  H
  C131     1.0000 0.20270  0.90830  0.66790  Biso   1.000  C
  H85      1.0000 0.16100  0.90450  0.66770  Biso   1.000  H
  C132     1.0000 0.34100  0.08090  0.53740  Biso   1.000  C
  C133     1.0000 0.33440  0.13060  0.49250  Biso   1.000  C
  C134     1.0000 0.27930  0.15380  0.47680  Biso   1.000  C
  H86      1.0000 0.24460  0.13840  0.49460  Biso   1.000  H
  C135     1.0000 0.38580  0.15510  0.46580  Biso   1.000  C
  H87      1.0000 0.42360  0.14030  0.47590  Biso   1.000  H
  C136     1.0000 0.38090  0.20100  0.42440  Biso   1.000  C
  H88      1.0000 0.41580  0.21670  0.40740  Biso   1.000  H
  C137     1.0000 0.27460  0.19980  0.43460  Biso   1.000  C
  H89      1.0000 0.23680  0.21450  0.42420  Biso   1.000  H
  C138     1.0000 0.32610  0.22440  0.40760  Biso   1.000  C
  C139     1.0000 0.32240  0.27220  0.36120  Biso   1.000  C
  C140     1.0000 0.36370  0.27600  0.31450  Biso   1.000  C
  H90      1.0000 0.39380  0.24700  0.31130  Biso   1.000  H
  N21      1.0000 0.70360  0.06020  0.64730  Biso   1.000  N
  N22      1.0000 0.75600  0.12520  0.70090  Biso   1.000  N
  O21      1.0000 0.70390  0.93270  0.56880  Biso   1.000  O
  O22      1.0000 0.60830  0.94347  0.54450  Biso   1.000  O
  C141     1.0000 0.81630  0.21160  0.72930  Biso   1.000  C
  H91      1.0000 0.84100  0.20510  0.69610  Biso   1.000  H
  C142     1.0000 0.76770  0.17340  0.74130  Biso   1.000  C
  C143     1.0000 0.70080  0.10410  0.68600  Biso   1.000  C
  H92      1.0000 0.66490  0.11920  0.70160  Biso   1.000  H
  C144     1.0000 0.76340  0.05210  0.63600  Biso   1.000  C
  H93      1.0000 0.77900  0.02330  0.60980  Biso   1.000  H
  C145     1.0000 0.79730  0.09170  0.66790  Biso   1.000  C
  H94      1.0000 0.83900  0.09550  0.66770  Biso   1.000  H
  C146     1.0000 0.65900  0.91910  0.53740  Biso   1.000  C
  C147     1.0000 0.66560  0.86940  0.49250  Biso   1.000  C
  C148     1.0000 0.72070  0.84620  0.47680  Biso   1.000  C
  H95      1.0000 0.75540  0.86160  0.49460  Biso   1.000  H
  C149     1.0000 0.61420  0.84490  0.46580  Biso   1.000  C
  H96      1.0000 0.57640  0.85970  0.47590  Biso   1.000  H
  C150     1.0000 0.61910  0.79900  0.42440  Biso   1.000  C
  H97      1.0000 0.58420  0.78330  0.40740  Biso   1.000  H
  C151     1.0000 0.72540  0.80020  0.43460  Biso   1.000  C
  H98      1.0000 0.76320  0.78550  0.42420  Biso   1.000  H
  C152     1.0000 0.67390  0.77560  0.40760  Biso   1.000  C
  C153     1.0000 0.67760  0.72780  0.36120  Biso   1.000  C
  C154     1.0000 0.63630  0.72400  0.31450  Biso   1.000  C
  H99      1.0000 0.60620  0.75300  0.31130  Biso   1.000  H
  N23      1.0000 0.29640  0.06020  0.35270  Biso   1.000  N
  N24      1.0000 0.24400  0.12520  0.29910  Biso   1.000  N
  O23      1.0000 0.29610  0.93270  0.43120  Biso   1.000  O
  O24      1.0000 0.39170  0.94347  0.45550  Biso   1.000  O
  C155     1.0000 0.18370  0.21160  0.27070  Biso   1.000  C
  H100     1.0000 0.15900  0.20510  0.30390  Biso   1.000  H
  C156     1.0000 0.23230  0.17340  0.25870  Biso   1.000  C
  C157     1.0000 0.29920  0.10410  0.31400  Biso   1.000  C
  H101     1.0000 0.33510  0.11920  0.29840  Biso   1.000  H
  C158     1.0000 0.23660  0.05210  0.36400  Biso   1.000  C
  H102     1.0000 0.22100  0.02330  0.39020  Biso   1.000  H
  C159     1.0000 0.20270  0.09170  0.33210  Biso   1.000  C
  H103     1.0000 0.16100  0.09550  0.33230  Biso   1.000  H
  C160     1.0000 0.34100  0.91910  0.46260  Biso   1.000  C
  C161     1.0000 0.33440  0.86940  0.50750  Biso   1.000  C
  C162     1.0000 0.27930  0.84620  0.52320  Biso   1.000  C
  H104     1.0000 0.24460  0.86160  0.50540  Biso   1.000  H
  C163     1.0000 0.38580  0.84490  0.53420  Biso   1.000  C
  H105     1.0000 0.42360  0.85970  0.52410  Biso   1.000  H
  C164     1.0000 0.38090  0.79900  0.57560  Biso   1.000  C
  H106     1.0000 0.41580  0.78330  0.59260  Biso   1.000  H
  C165     1.0000 0.27460  0.80020  0.56540  Biso   1.000  C
  H107     1.0000 0.23680  0.78550  0.57580  Biso   1.000  H
  C166     1.0000 0.32610  0.77560  0.59240  Biso   1.000  C
  C167     1.0000 0.32240  0.72780  0.63880  Biso   1.000  C
  C168     1.0000 0.36370  0.72400  0.68550  Biso   1.000  C
  H108     1.0000 0.39380  0.75300  0.68870  Biso   1.000  H
  N25      1.0000 0.70360  0.35270  0.06020  Biso   1.000  N
  N26      1.0000 0.75600  0.29910  0.12520  Biso   1.000  N
  O25      1.0000 0.70390  0.43120  0.93270  Biso   1.000  O
  O26      1.0000 0.60830  0.45550  0.94347  Biso   1.000  O
  C169     1.0000 0.81630  0.27070  0.21160  Biso   1.000  C
  H109     1.0000 0.84100  0.30390  0.20510  Biso   1.000  H
  C170     1.0000 0.76770  0.25870  0.17340  Biso   1.000  C
  C171     1.0000 0.70080  0.31400  0.10410  Biso   1.000  C
  H110     1.0000 0.66490  0.29840  0.11920  Biso   1.000  H
  C172     1.0000 0.76340  0.36400  0.05210  Biso   1.000  C
  H111     1.0000 0.77900  0.39020  0.02330  Biso   1.000  H
  C173     1.0000 0.79730  0.33210  0.09170  Biso   1.000  C
  H112     1.0000 0.83900  0.33230  0.09550  Biso   1.000  H
  C174     1.0000 0.65900  0.46260  0.91910  Biso   1.000  C
  C175     1.0000 0.66560  0.50750  0.86940  Biso   1.000  C
  C176     1.0000 0.72070  0.52320  0.84620  Biso   1.000  C
  H113     1.0000 0.75540  0.50540  0.86160  Biso   1.000  H
  C177     1.0000 0.61420  0.53420  0.84490  Biso   1.000  C
  H114     1.0000 0.57640  0.52410  0.85970  Biso   1.000  H
  C178     1.0000 0.61910  0.57560  0.79900  Biso   1.000  C
  H115     1.0000 0.58420  0.59260  0.78330  Biso   1.000  H
  C179     1.0000 0.72540  0.56540  0.80020  Biso   1.000  C
  H116     1.0000 0.76320  0.57580  0.78550  Biso   1.000  H
  C180     1.0000 0.67390  0.59240  0.77560  Biso   1.000  C
  C181     1.0000 0.67760  0.63880  0.72780  Biso   1.000  C
  C182     1.0000 0.63630  0.68550  0.72400  Biso   1.000  C
  H117     1.0000 0.60620  0.68870  0.75300  Biso   1.000  H
  N27      1.0000 0.29640  0.64730  0.06020  Biso   1.000  N
  N28      1.0000 0.24400  0.70090  0.12520  Biso   1.000  N
  O27      1.0000 0.29610  0.56880  0.93270  Biso   1.000  O
  O28      1.0000 0.39170  0.54450  0.94347  Biso   1.000  O
  C183     1.0000 0.18370  0.72930  0.21160  Biso   1.000  C
  H118     1.0000 0.15900  0.69610  0.20510  Biso   1.000  H
  C184     1.0000 0.23230  0.74130  0.17340  Biso   1.000  C
  C185     1.0000 0.29920  0.68600  0.10410  Biso   1.000  C
  H119     1.0000 0.33510  0.70160  0.11920  Biso   1.000  H
  C186     1.0000 0.23660  0.63600  0.05210  Biso   1.000  C
  H120     1.0000 0.22100  0.60980  0.02330  Biso   1.000  H
  C187     1.0000 0.20270  0.66790  0.09170  Biso   1.000  C
  H121     1.0000 0.16100  0.66770  0.09550  Biso   1.000  H
  C188     1.0000 0.34100  0.53740  0.91910  Biso   1.000  C
  C189     1.0000 0.33440  0.49250  0.86940  Biso   1.000  C
  C190     1.0000 0.27930  0.47680  0.84620  Biso   1.000  C
  H122     1.0000 0.24460  0.49460  0.86160  Biso   1.000  H
  C191     1.0000 0.38580  0.46580  0.84490  Biso   1.000  C
  H123     1.0000 0.42360  0.47590  0.85970  Biso   1.000  H
  C192     1.0000 0.38090  0.42440  0.79900  Biso   1.000  C
  H124     1.0000 0.41580  0.40740  0.78330  Biso   1.000  H
  C193     1.0000 0.27460  0.43460  0.80020  Biso   1.000  C
  H125     1.0000 0.23680  0.42420  0.78550  Biso   1.000  H
  C194     1.0000 0.32610  0.40760  0.77560  Biso   1.000  C
  C195     1.0000 0.32240  0.36120  0.72780  Biso   1.000  C
  C196     1.0000 0.36370  0.31450  0.72400  Biso   1.000  C
  H126     1.0000 0.39380  0.31130  0.75300  Biso   1.000  H
  N29      1.0000 0.70360  0.64730  0.93980  Biso   1.000  N
  N30      1.0000 0.75600  0.70090  0.87480  Biso   1.000  N
  O29      1.0000 0.70390  0.56880  0.06730  Biso   1.000  O
  O30      1.0000 0.60830  0.54450  0.05653  Biso   1.000  O
  C197     1.0000 0.81630  0.72930  0.78840  Biso   1.000  C
  H127     1.0000 0.84100  0.69610  0.79490  Biso   1.000  H
  C198     1.0000 0.76770  0.74130  0.82660  Biso   1.000  C
  C199     1.0000 0.70080  0.68600  0.89590  Biso   1.000  C
  H128     1.0000 0.66490  0.70160  0.88080  Biso   1.000  H
  C200     1.0000 0.76340  0.63600  0.94790  Biso   1.000  C
  H129     1.0000 0.77900  0.60980  0.97670  Biso   1.000  H
  C201     1.0000 0.79730  0.66790  0.90830  Biso   1.000  C
  H130     1.0000 0.83900  0.66770  0.90450  Biso   1.000  H
  C202     1.0000 0.65900  0.53740  0.08090  Biso   1.000  C
  C203     1.0000 0.66560  0.49250  0.13060  Biso   1.000  C
  C204     1.0000 0.72070  0.47680  0.15380  Biso   1.000  C
  H131     1.0000 0.75540  0.49460  0.13840  Biso   1.000  H
  C205     1.0000 0.61420  0.46580  0.15510  Biso   1.000  C
  H132     1.0000 0.57640  0.47590  0.14030  Biso   1.000  H
  C206     1.0000 0.61910  0.42440  0.20100  Biso   1.000  C
  H133     1.0000 0.58420  0.40740  0.21670  Biso   1.000  H
  C207     1.0000 0.72540  0.43460  0.19980  Biso   1.000  C
  H134     1.0000 0.76320  0.42420  0.21450  Biso   1.000  H
  C208     1.0000 0.67390  0.40760  0.22440  Biso   1.000  C
  C209     1.0000 0.67760  0.36120  0.27220  Biso   1.000  C
  C210     1.0000 0.63630  0.31450  0.27600  Biso   1.000  C
  H135     1.0000 0.60620  0.31130  0.24700  Biso   1.000  H
  N31      1.0000 0.29640  0.35270  0.93980  Biso   1.000  N
  N32      1.0000 0.24400  0.29910  0.87480  Biso   1.000  N
  O31      1.0000 0.29610  0.43120  0.06730  Biso   1.000  O
  O32      1.0000 0.39170  0.45550  0.05653  Biso   1.000  O
  C211     1.0000 0.18370  0.27070  0.78840  Biso   1.000  C
  H136     1.0000 0.15900  0.30390  0.79490  Biso   1.000  H
  C212     1.0000 0.23230  0.25870  0.82660  Biso   1.000  C
  C213     1.0000 0.29920  0.31400  0.89590  Biso   1.000  C
  H137     1.0000 0.33510  0.29840  0.88080  Biso   1.000  H
  C214     1.0000 0.23660  0.36400  0.94790  Biso   1.000  C
  H138     1.0000 0.22100  0.39020  0.97670  Biso   1.000  H
  C215     1.0000 0.20270  0.33210  0.90830  Biso   1.000  C
  H139     1.0000 0.16100  0.33230  0.90450  Biso   1.000  H
  C216     1.0000 0.34100  0.46260  0.08090  Biso   1.000  C
  C217     1.0000 0.33440  0.50750  0.13060  Biso   1.000  C
  C218     1.0000 0.27930  0.52320  0.15380  Biso   1.000  C
  H140     1.0000 0.24460  0.50540  0.13840  Biso   1.000  H
  C219     1.0000 0.38580  0.53420  0.15510  Biso   1.000  C
  H141     1.0000 0.42360  0.52410  0.14030  Biso   1.000  H
  C220     1.0000 0.38090  0.57560  0.20100  Biso   1.000  C
  H142     1.0000 0.41580  0.59260  0.21670  Biso   1.000  H
  C221     1.0000 0.27460  0.56540  0.19980  Biso   1.000  C
  H143     1.0000 0.23680  0.57580  0.21450  Biso   1.000  H
  C222     1.0000 0.32610  0.59240  0.22440  Biso   1.000  C
  C223     1.0000 0.32240  0.63880  0.27220  Biso   1.000  C
  C224     1.0000 0.36370  0.68550  0.27600  Biso   1.000  C
  H144     1.0000 0.39380  0.68870  0.24700  Biso   1.000  H
  N33      1.0000 0.35270  0.93980  0.29640  Biso   1.000  N
  N34      1.0000 0.29910  0.87480  0.24400  Biso   1.000  N
  O33      1.0000 0.43120  0.06730  0.29610  Biso   1.000  O
  O34      1.0000 0.45550  0.05653  0.39170  Biso   1.000  O
  C225     1.0000 0.27070  0.78840  0.18370  Biso   1.000  C
  H145     1.0000 0.30390  0.79490  0.15900  Biso   1.000  H
  C226     1.0000 0.25870  0.82660  0.23230  Biso   1.000  C
  C227     1.0000 0.31400  0.89590  0.29920  Biso   1.000  C
  H146     1.0000 0.29840  0.88080  0.33510  Biso   1.000  H
  C228     1.0000 0.36400  0.94790  0.23660  Biso   1.000  C
  H147     1.0000 0.39020  0.97670  0.22100  Biso   1.000  H
  C229     1.0000 0.33210  0.90830  0.20270  Biso   1.000  C
  H148     1.0000 0.33230  0.90450  0.16100  Biso   1.000  H
  C230     1.0000 0.46260  0.08090  0.34100  Biso   1.000  C
  C231     1.0000 0.50750  0.13060  0.33440  Biso   1.000  C
  C232     1.0000 0.52320  0.15380  0.27930  Biso   1.000  C
  H149     1.0000 0.50540  0.13840  0.24460  Biso   1.000  H
  C233     1.0000 0.53420  0.15510  0.38580  Biso   1.000  C
  H150     1.0000 0.52410  0.14030  0.42360  Biso   1.000  H
  C234     1.0000 0.57560  0.20100  0.38090  Biso   1.000  C
  H151     1.0000 0.59260  0.21670  0.41580  Biso   1.000  H
  C235     1.0000 0.56540  0.19980  0.27460  Biso   1.000  C
  H152     1.0000 0.57580  0.21450  0.23680  Biso   1.000  H
  C236     1.0000 0.59240  0.22440  0.32610  Biso   1.000  C
  C237     1.0000 0.63880  0.27220  0.32240  Biso   1.000  C
  C238     1.0000 0.68550  0.27600  0.36370  Biso   1.000  C
  H153     1.0000 0.68870  0.24700  0.39380  Biso   1.000  H
  N35      1.0000 0.64730  0.93980  0.70360  Biso   1.000  N
  N36      1.0000 0.70090  0.87480  0.75600  Biso   1.000  N
  O35      1.0000 0.56880  0.06730  0.70390  Biso   1.000  O
  O36      1.0000 0.54450  0.05653  0.60830  Biso   1.000  O
  C239     1.0000 0.72930  0.78840  0.81630  Biso   1.000  C
  H154     1.0000 0.69610  0.79490  0.84100  Biso   1.000  H
  C240     1.0000 0.74130  0.82660  0.76770  Biso   1.000  C
  C241     1.0000 0.68600  0.89590  0.70080  Biso   1.000  C
  H155     1.0000 0.70160  0.88080  0.66490  Biso   1.000  H
  C242     1.0000 0.63600  0.94790  0.76340  Biso   1.000  C
  H156     1.0000 0.60980  0.97670  0.77900  Biso   1.000  H
  C243     1.0000 0.66790  0.90830  0.79730  Biso   1.000  C
  H157     1.0000 0.66770  0.90450  0.83900  Biso   1.000  H
  C244     1.0000 0.53740  0.08090  0.65900  Biso   1.000  C
  C245     1.0000 0.49250  0.13060  0.66560  Biso   1.000  C
  C246     1.0000 0.47680  0.15380  0.72070  Biso   1.000  C
  H158     1.0000 0.49460  0.13840  0.75540  Biso   1.000  H
  C247     1.0000 0.46580  0.15510  0.61420  Biso   1.000  C
  H159     1.0000 0.47590  0.14030  0.57640  Biso   1.000  H
  C248     1.0000 0.42440  0.20100  0.61910  Biso   1.000  C
  H160     1.0000 0.40740  0.21670  0.58420  Biso   1.000  H
  C249     1.0000 0.43460  0.19980  0.72540  Biso   1.000  C
  H161     1.0000 0.42420  0.21450  0.76320  Biso   1.000  H
  C250     1.0000 0.40760  0.22440  0.67390  Biso   1.000  C
  C251     1.0000 0.36120  0.27220  0.67760  Biso   1.000  C
  C252     1.0000 0.31450  0.27600  0.63630  Biso   1.000  C
  H162     1.0000 0.31130  0.24700  0.60620  Biso   1.000  H
  N37      1.0000 0.64730  0.06020  0.29640  Biso   1.000  N
  N38      1.0000 0.70090  0.12520  0.24400  Biso   1.000  N
  O37      1.0000 0.56880  0.93270  0.29610  Biso   1.000  O
  O38      1.0000 0.54450  0.94347  0.39170  Biso   1.000  O
  C253     1.0000 0.72930  0.21160  0.18370  Biso   1.000  C
  H163     1.0000 0.69610  0.20510  0.15900  Biso   1.000  H
  C254     1.0000 0.74130  0.17340  0.23230  Biso   1.000  C
  C255     1.0000 0.68600  0.10410  0.29920  Biso   1.000  C
  H164     1.0000 0.70160  0.11920  0.33510  Biso   1.000  H
  C256     1.0000 0.63600  0.05210  0.23660  Biso   1.000  C
  H165     1.0000 0.60980  0.02330  0.22100  Biso   1.000  H
  C257     1.0000 0.66790  0.09170  0.20270  Biso   1.000  C
  H166     1.0000 0.66770  0.09550  0.16100  Biso   1.000  H
  C258     1.0000 0.53740  0.91910  0.34100  Biso   1.000  C
  C259     1.0000 0.49250  0.86940  0.33440  Biso   1.000  C
  C260     1.0000 0.47680  0.84620  0.27930  Biso   1.000  C
  H167     1.0000 0.49460  0.86160  0.24460  Biso   1.000  H
  C261     1.0000 0.46580  0.84490  0.38580  Biso   1.000  C
  H168     1.0000 0.47590  0.85970  0.42360  Biso   1.000  H
  C262     1.0000 0.42440  0.79900  0.38090  Biso   1.000  C
  H169     1.0000 0.40740  0.78330  0.41580  Biso   1.000  H
  C263     1.0000 0.43460  0.80020  0.27460  Biso   1.000  C
  H170     1.0000 0.42420  0.78550  0.23680  Biso   1.000  H
  C264     1.0000 0.40760  0.77560  0.32610  Biso   1.000  C
  C265     1.0000 0.36120  0.72780  0.32240  Biso   1.000  C
  C266     1.0000 0.31450  0.72400  0.36370  Biso   1.000  C
  H171     1.0000 0.31130  0.75300  0.39380  Biso   1.000  H
  N39      1.0000 0.35270  0.06020  0.70360  Biso   1.000  N
  N40      1.0000 0.29910  0.12520  0.75600  Biso   1.000  N
  O39      1.0000 0.43120  0.93270  0.70390  Biso   1.000  O
  O40      1.0000 0.45550  0.94347  0.60830  Biso   1.000  O
  C267     1.0000 0.27070  0.21160  0.81630  Biso   1.000  C
  H172     1.0000 0.30390  0.20510  0.84100  Biso   1.000  H
  C268     1.0000 0.25870  0.17340  0.76770  Biso   1.000  C
  C269     1.0000 0.31400  0.10410  0.70080  Biso   1.000  C
  H173     1.0000 0.29840  0.11920  0.66490  Biso   1.000  H
  C270     1.0000 0.36400  0.05210  0.76340  Biso   1.000  C
  H174     1.0000 0.39020  0.02330  0.77900  Biso   1.000  H
  C271     1.0000 0.33210  0.09170  0.79730  Biso   1.000  C
  H175     1.0000 0.33230  0.09550  0.83900  Biso   1.000  H
  C272     1.0000 0.46260  0.91910  0.65900  Biso   1.000  C
  C273     1.0000 0.50750  0.86940  0.66560  Biso   1.000  C
  C274     1.0000 0.52320  0.84620  0.72070  Biso   1.000  C
  H176     1.0000 0.50540  0.86160  0.75540  Biso   1.000  H
  C275     1.0000 0.53420  0.84490  0.61420  Biso   1.000  C
  H177     1.0000 0.52410  0.85970  0.57640  Biso   1.000  H
  C276     1.0000 0.57560  0.79900  0.61910  Biso   1.000  C
  H178     1.0000 0.59260  0.78330  0.58420  Biso   1.000  H
  C277     1.0000 0.56540  0.80020  0.72540  Biso   1.000  C
  H179     1.0000 0.57580  0.78550  0.76320  Biso   1.000  H
  C278     1.0000 0.59240  0.77560  0.67390  Biso   1.000  C
  C279     1.0000 0.63880  0.72780  0.67760  Biso   1.000  C
  C280     1.0000 0.68550  0.72400  0.63630  Biso   1.000  C
  H180     1.0000 0.68870  0.75300  0.60620  Biso   1.000  H
  N41      1.0000 0.93980  0.70360  0.64730  Biso   1.000  N
  N42      1.0000 0.87480  0.75600  0.70090  Biso   1.000  N
  O41      1.0000 0.06730  0.70390  0.56880  Biso   1.000  O
  O42      1.0000 0.05653  0.60830  0.54450  Biso   1.000  O
  C281     1.0000 0.78840  0.81630  0.72930  Biso   1.000  C
  H181     1.0000 0.79490  0.84100  0.69610  Biso   1.000  H
  C282     1.0000 0.82660  0.76770  0.74130  Biso   1.000  C
  C283     1.0000 0.89590  0.70080  0.68600  Biso   1.000  C
  H182     1.0000 0.88080  0.66490  0.70160  Biso   1.000  H
  C284     1.0000 0.94790  0.76340  0.63600  Biso   1.000  C
  H183     1.0000 0.97670  0.77900  0.60980  Biso   1.000  H
  C285     1.0000 0.90830  0.79730  0.66790  Biso   1.000  C
  H184     1.0000 0.90450  0.83900  0.66770  Biso   1.000  H
  C286     1.0000 0.08090  0.65900  0.53740  Biso   1.000  C
  C287     1.0000 0.13060  0.66560  0.49250  Biso   1.000  C
  C288     1.0000 0.15380  0.72070  0.47680  Biso   1.000  C
  H185     1.0000 0.13840  0.75540  0.49460  Biso   1.000  H
  C289     1.0000 0.15510  0.61420  0.46580  Biso   1.000  C
  H186     1.0000 0.14030  0.57640  0.47590  Biso   1.000  H
  C290     1.0000 0.20100  0.61910  0.42440  Biso   1.000  C
  H187     1.0000 0.21670  0.58420  0.40740  Biso   1.000  H
  C291     1.0000 0.19980  0.72540  0.43460  Biso   1.000  C
  H188     1.0000 0.21450  0.76320  0.42420  Biso   1.000  H
  C292     1.0000 0.22440  0.67390  0.40760  Biso   1.000  C
  C293     1.0000 0.27220  0.67760  0.36120  Biso   1.000  C
  C294     1.0000 0.27600  0.63630  0.31450  Biso   1.000  C
  H189     1.0000 0.24700  0.60620  0.31130  Biso   1.000  H
  N43      1.0000 0.93980  0.29640  0.35270  Biso   1.000  N
  N44      1.0000 0.87480  0.24400  0.29910  Biso   1.000  N
  O43      1.0000 0.06730  0.29610  0.43120  Biso   1.000  O
  O44      1.0000 0.05653  0.39170  0.45550  Biso   1.000  O
  C295     1.0000 0.78840  0.18370  0.27070  Biso   1.000  C
  H190     1.0000 0.79490  0.15900  0.30390  Biso   1.000  H
  C296     1.0000 0.82660  0.23230  0.25870  Biso   1.000  C
  C297     1.0000 0.89590  0.29920  0.31400  Biso   1.000  C
  H191     1.0000 0.88080  0.33510  0.29840  Biso   1.000  H
  C298     1.0000 0.94790  0.23660  0.36400  Biso   1.000  C
  H192     1.0000 0.97670  0.22100  0.39020  Biso   1.000  H
  C299     1.0000 0.90830  0.20270  0.33210  Biso   1.000  C
  H193     1.0000 0.90450  0.16100  0.33230  Biso   1.000  H
  C300     1.0000 0.08090  0.34100  0.46260  Biso   1.000  C
  C301     1.0000 0.13060  0.33440  0.50750  Biso   1.000  C
  C302     1.0000 0.15380  0.27930  0.52320  Biso   1.000  C
  H194     1.0000 0.13840  0.24460  0.50540  Biso   1.000  H
  C303     1.0000 0.15510  0.38580  0.53420  Biso   1.000  C
  H195     1.0000 0.14030  0.42360  0.52410  Biso   1.000  H
  C304     1.0000 0.20100  0.38090  0.57560  Biso   1.000  C
  H196     1.0000 0.21670  0.41580  0.59260  Biso   1.000  H
  C305     1.0000 0.19980  0.27460  0.56540  Biso   1.000  C
  H197     1.0000 0.21450  0.23680  0.57580  Biso   1.000  H
  C306     1.0000 0.22440  0.32610  0.59240  Biso   1.000  C
  C307     1.0000 0.27220  0.32240  0.63880  Biso   1.000  C
  C308     1.0000 0.27600  0.36370  0.68550  Biso   1.000  C
  H198     1.0000 0.24700  0.39380  0.68870  Biso   1.000  H
  N45      1.0000 0.06020  0.70360  0.35270  Biso   1.000  N
  N46      1.0000 0.12520  0.75600  0.29910  Biso   1.000  N
  O45      1.0000 0.93270  0.70390  0.43120  Biso   1.000  O
  O46      1.0000 0.94347  0.60830  0.45550  Biso   1.000  O
  C309     1.0000 0.21160  0.81630  0.27070  Biso   1.000  C
  H199     1.0000 0.20510  0.84100  0.30390  Biso   1.000  H
  C310     1.0000 0.17340  0.76770  0.25870  Biso   1.000  C
  C311     1.0000 0.10410  0.70080  0.31400  Biso   1.000  C
  H200     1.0000 0.11920  0.66490  0.29840  Biso   1.000  H
  C312     1.0000 0.05210  0.76340  0.36400  Biso   1.000  C
  H201     1.0000 0.02330  0.77900  0.39020  Biso   1.000  H
  C313     1.0000 0.09170  0.79730  0.33210  Biso   1.000  C
  H202     1.0000 0.09550  0.83900  0.33230  Biso   1.000  H
  C314     1.0000 0.91910  0.65900  0.46260  Biso   1.000  C
  C315     1.0000 0.86940  0.66560  0.50750  Biso   1.000  C
  C316     1.0000 0.84620  0.72070  0.52320  Biso   1.000  C
  H203     1.0000 0.86160  0.75540  0.50540  Biso   1.000  H
  C317     1.0000 0.84490  0.61420  0.53420  Biso   1.000  C
  H204     1.0000 0.85970  0.57640  0.52410  Biso   1.000  H
  C318     1.0000 0.79900  0.61910  0.57560  Biso   1.000  C
  H205     1.0000 0.78330  0.58420  0.59260  Biso   1.000  H
  C319     1.0000 0.80020  0.72540  0.56540  Biso   1.000  C
  H206     1.0000 0.78550  0.76320  0.57580  Biso   1.000  H
  C320     1.0000 0.77560  0.67390  0.59240  Biso   1.000  C
  C321     1.0000 0.72780  0.67760  0.63880  Biso   1.000  C
  C322     1.0000 0.72400  0.63630  0.68550  Biso   1.000  C
  H207     1.0000 0.75300  0.60620  0.68870  Biso   1.000  H
  N47      1.0000 0.06020  0.29640  0.64730  Biso   1.000  N
  N48      1.0000 0.12520  0.24400  0.70090  Biso   1.000  N
  O47      1.0000 0.93270  0.29610  0.56880  Biso   1.000  O
  O48      1.0000 0.94347  0.39170  0.54450  Biso   1.000  O
  C323     1.0000 0.21160  0.18370  0.72930  Biso   1.000  C
  H208     1.0000 0.20510  0.15900  0.69610  Biso   1.000  H
  C324     1.0000 0.17340  0.23230  0.74130  Biso   1.000  C
  C325     1.0000 0.10410  0.29920  0.68600  Biso   1.000  C
  H209     1.0000 0.11920  0.33510  0.70160  Biso   1.000  H
  C326     1.0000 0.05210  0.23660  0.63600  Biso   1.000  C
  H210     1.0000 0.02330  0.22100  0.60980  Biso   1.000  H
  C327     1.0000 0.09170  0.20270  0.66790  Biso   1.000  C
  H211     1.0000 0.09550  0.16100  0.66770  Biso   1.000  H
  C328     1.0000 0.91910  0.34100  0.53740  Biso   1.000  C
  C329     1.0000 0.86940  0.33440  0.49250  Biso   1.000  C
  C330     1.0000 0.84620  0.27930  0.47680  Biso   1.000  C
  H212     1.0000 0.86160  0.24460  0.49460  Biso   1.000  H
  C331     1.0000 0.84490  0.38580  0.46580  Biso   1.000  C
  H213     1.0000 0.85970  0.42360  0.47590  Biso   1.000  H
  C332     1.0000 0.79900  0.38090  0.42440  Biso   1.000  C
  H214     1.0000 0.78330  0.41580  0.40740  Biso   1.000  H
  C333     1.0000 0.80020  0.27460  0.43460  Biso   1.000  C
  H215     1.0000 0.78550  0.23680  0.42420  Biso   1.000  H
  C334     1.0000 0.77560  0.32610  0.40760  Biso   1.000  C
  C335     1.0000 0.72780  0.32240  0.36120  Biso   1.000  C
  C336     1.0000 0.72400  0.36370  0.31450  Biso   1.000  C
  H216     1.0000 0.75300  0.39380  0.31130  Biso   1.000  H
  Cd1      1.0000 0.37466  0.62534  0.00000  Biso   1.000  Cd
  Cd2      1.0000 0.62534  0.37466  0.00000  Biso   1.000  Cd
  Cd3      1.0000 0.62534  0.62534  0.00000  Biso   1.000  Cd
  Cd4      1.0000 0.37466  0.37466  0.00000  Biso   1.000  Cd
  Cd5      1.0000 0.00000  0.37466  0.62534  Biso   1.000  Cd
  Cd6      1.0000 0.00000  0.62534  0.37466  Biso   1.000  Cd
  Cd7      1.0000 0.00000  0.62534  0.62534  Biso   1.000  Cd
  Cd8      1.0000 0.00000  0.37466  0.37466  Biso   1.000  Cd
  Cd9      1.0000 0.62534  0.00000  0.37466  Biso   1.000  Cd
  Cd10     1.0000 0.37466  0.00000  0.62534  Biso   1.000  Cd
  Cd11     1.0000 0.62534  0.00000  0.62534  Biso   1.000  Cd
  Cd12     1.0000 0.37466  0.00000  0.37466  Biso   1.000  Cd
