data_I
_chemical_name_common  '/Users/gianmarcoterrones/Downloads/dut-51-zr'
_cell_length_a 49.96460
_cell_length_b 49.96460
_cell_length_c 49.96460
_cell_angle_alpha 90.00000
_cell_angle_beta  90.00000
_cell_angle_gamma 90.00000
_space_group_name_H-M_alt      'P 1'


loop_
_space_group_symop_operation_xyz
  'x, y, z' 

loop_
_atom_site_label
_atom_site_fract_x
_atom_site_fract_y
_atom_site_fract_z
_atom_site_type_symbol
O          0.0 0.207949 0.242116     O
O          0.0 0.207949 0.757896     O
Zr         0.0 0.2151305 0.2848705    Zr
Zr         0.0 0.2151305 0.7151305    Zr
O          0.0 0.242116 0.207949     O
O          0.0 0.242116 0.792069     O
O          0.0 0.257896 0.292069     O
O          0.0 0.257896 0.707949     O
Zr         0.0 0.2848705 0.2151305    Zr
Zr         0.0 0.2848705 0.7848705    Zr
O          0.0 0.292069 0.257896     O
O          0.0 0.292069 0.742116     O
O          0.0 0.707949 0.257896     O
O          0.0 0.707949 0.742116     O
Zr         0.0 0.7151305 0.2151305    Zr
Zr         0.0 0.7151305 0.7848705    Zr
O          0.0 0.742116 0.292069     O
O          0.0 0.742116 0.707949     O
O          0.0 0.757896 0.207949     O
O          0.0 0.757896 0.792069     O
Zr         0.0 0.7848705 0.2848705    Zr
Zr         0.0 0.7848705 0.7151305    Zr
O          0.0 0.792069 0.242116     O
O          0.0 0.792069 0.757896     O
O     0.026793 0.180043 0.282214     O
O     0.026793 0.180043 0.717794     O
O     0.026793 0.217794 0.319963     O
O     0.026793 0.217794 0.680043     O
O     0.026793 0.282214 0.180043     O
O     0.026793 0.282214 0.819963     O
O     0.026793 0.319963 0.217794     O
O     0.026793 0.319963 0.782214     O
O     0.026793 0.680043 0.217794     O
O     0.026793 0.680043 0.782214     O
O     0.026793 0.717794 0.180043     O
O     0.026793 0.717794 0.819963     O
O     0.026793 0.782214 0.319963     O
O     0.026793 0.782214 0.680043     O
O     0.026793 0.819963 0.282214     O
O     0.026793 0.819963 0.717794     O
O     0.0335311 0.194275 0.194275     O
O     0.0335311 0.194275 0.805735     O
O     0.0335311 0.305735 0.305735     O
O     0.0335311 0.305735 0.694275     O
O     0.0335311 0.694275 0.305735     O
O     0.0335311 0.694275 0.694275     O
O     0.0335311 0.805735 0.194275     O
O     0.0335311 0.805735 0.805735     O
O     0.034919 0.233145 0.266865     O
O     0.034919 0.233145 0.733145     O
O     0.034919 0.266865 0.233145     O
O     0.034919 0.266865 0.766865     O
O     0.034919 0.733145 0.233145     O
O     0.034919 0.733145 0.766865     O
O     0.034919 0.766865 0.266865     O
O     0.034919 0.766865 0.733145     O
Zr    0.0353996 0.2250274 0.2250274    Zr
Zr    0.0353996 0.2250274 0.7749734    Zr
Zr    0.0353996 0.2749734 0.2749734    Zr
Zr    0.0353996 0.2749734 0.7250274    Zr
Zr    0.0353996 0.7250274 0.2749734    Zr
Zr    0.0353996 0.7250274 0.7250274    Zr
Zr    0.0353996 0.7749734 0.2250274    Zr
Zr    0.0353996 0.7749734 0.7749734    Zr
C     0.044536 0.174186 0.265446     C
C     0.044536 0.174186 0.734566     C
C     0.044536 0.234566 0.325826     C
C     0.044536 0.234566 0.674186     C
C     0.044536 0.265446 0.174186     C
C     0.044536 0.265446 0.825826     C
C     0.044536 0.325826 0.234566     C
C     0.044536 0.325826 0.765446     C
C     0.044536 0.674186 0.234566     C
C     0.044536 0.674186 0.765446     C
C     0.044536 0.734566 0.174186     C
C     0.044536 0.734566 0.825826     C
C     0.044536 0.765446 0.325826     C
C     0.044536 0.765446 0.674186     C
C     0.044536 0.825826 0.265446     C
C     0.044536 0.825826 0.734566     C
H       0.0486   0.1377    0.308     H
H       0.0486   0.1377    0.692     H
H       0.0486    0.192   0.3623     H
H       0.0486    0.192   0.6377     H
H       0.0486    0.308   0.1377     H
H       0.0486    0.308   0.8623     H
H       0.0486   0.3623    0.192     H
H       0.0486   0.3623    0.808     H
H       0.0486   0.6377    0.192     H
H       0.0486   0.6377    0.808     H
H       0.0486    0.692   0.1377     H
H       0.0486    0.692   0.8623     H
H       0.0486    0.808   0.3623     H
H       0.0486    0.808   0.6377     H
H       0.0486   0.8623    0.308     H
H       0.0486   0.8623    0.692     H
O     0.049685 0.186255 0.243915     O
O     0.049685 0.186255 0.756095     O
O     0.049685 0.243915 0.186255     O
O     0.049685 0.243915 0.813755     O
O     0.049685 0.256095 0.313755     O
O     0.049685 0.256095 0.686255     O
O     0.049685 0.313755 0.256095     O
O     0.049685 0.313755 0.743915     O
O     0.049685 0.686255 0.256095     O
O     0.049685 0.686255 0.743915     O
O     0.049685 0.743915 0.313755     O
O     0.049685 0.743915 0.686255     O
O     0.049685 0.756095 0.186255     O
O     0.049685 0.756095 0.813755     O
O     0.049685 0.813755 0.243915     O
O     0.049685 0.813755 0.756095     O
C     0.060469 0.135219 0.293909     C
C     0.060469 0.135219 0.706109     C
C     0.060469 0.206109 0.364799     C
C     0.060469 0.206109 0.635219     C
C     0.060469 0.293909 0.135219     C
C     0.060469 0.293909 0.864799     C
C     0.060469 0.364799 0.206109     C
C     0.060469 0.364799 0.793909     C
C     0.060469 0.635219 0.206109     C
C     0.060469 0.635219 0.793909     C
C     0.060469 0.706109 0.135219     C
C     0.060469 0.706109 0.864799     C
C     0.060469 0.793909 0.364799     C
C     0.060469 0.793909 0.635219     C
C     0.060469 0.864799 0.293909     C
C     0.060469 0.864799 0.706109     C
C     0.061197 0.150547 0.271758     C
C     0.061197 0.150547 0.728258     C
C     0.061197 0.228258 0.349467     C
C     0.061197 0.228258 0.650547     C
C     0.061197 0.271758 0.150547     C
C     0.061197 0.271758 0.849467     C
C     0.061197 0.349467 0.228258     C
C     0.061197 0.349467 0.771758     C
C     0.061197 0.650547 0.228258     C
C     0.061197 0.650547 0.771758     C
C     0.061197 0.728258 0.150547     C
C     0.061197 0.728258 0.849467     C
C     0.061197 0.771758 0.349467     C
C     0.061197 0.771758 0.650547     C
C     0.061197 0.849467 0.271758     C
C     0.061197 0.849467 0.728258     C
O     0.078786 0.227137 0.227137     O
O     0.078786 0.227137 0.772877     O
O     0.078786 0.272877 0.272877     O
O     0.078786 0.272877 0.727137     O
O     0.078786 0.727137 0.272877     O
O     0.078786 0.727137 0.727137     O
O     0.078786 0.772877 0.227137     O
O     0.078786 0.772877 0.772877     O
C     0.080011 0.114851 0.292841     C
C     0.080011 0.114851 0.707161     C
C     0.080011 0.207161 0.385151     C
C     0.080011 0.207161 0.614851     C
C     0.080011 0.292841 0.114851     C
C     0.080011 0.292841 0.885151     C
C     0.080011 0.385151 0.207161     C
C     0.080011 0.385151 0.792841     C
C     0.080011 0.614851 0.207161     C
C     0.080011 0.614851 0.792841     C
C     0.080011 0.707161 0.114851     C
C     0.080011 0.707161 0.885151     C
C     0.080011 0.792841 0.385151     C
C     0.080011 0.792841 0.614851     C
C     0.080011 0.885151 0.292841     C
C     0.080011 0.885151 0.707161     C
S     0.086202 0.141302 0.249472     S
S     0.086202 0.141302 0.750532     S
S     0.086202 0.249472 0.141302     S
S     0.086202 0.249472 0.858702     S
S     0.086202 0.250532 0.358702     S
S     0.086202 0.250532 0.641302     S
S     0.086202 0.358702 0.250532     S
S     0.086202 0.358702 0.749472     S
S     0.086202 0.641302 0.250532     S
S     0.086202 0.641302 0.749472     S
S     0.086202 0.749472 0.358702     S
S     0.086202 0.749472 0.641302     S
S     0.086202 0.750532 0.141302     S
S     0.086202 0.750532 0.858702     S
S     0.086202 0.858702 0.249472     S
S     0.086202 0.858702 0.750532     S
S     0.089425 0.089425 0.314615     S
S     0.089425 0.089425 0.685395     S
S     0.089425 0.185395 0.410585     S
S     0.089425 0.185395 0.589425     S
S     0.089425 0.314615 0.089425     S
S     0.089425 0.314615 0.910585     S
S     0.089425 0.410585 0.185395     S
S     0.089425 0.410585 0.814615     S
S     0.089425 0.589425 0.185395     S
S     0.089425 0.589425 0.814615     S
S     0.089425 0.685395 0.089425     S
S     0.089425 0.685395 0.910585     S
S     0.089425 0.814615 0.410585     S
S     0.089425 0.814615 0.589425     S
S     0.089425 0.910585 0.314615     S
S     0.089425 0.910585 0.685395     S
C     0.095508 0.115638 0.270089     C
C     0.095508 0.115638 0.729929     C
C     0.095508 0.229929 0.384378     C
C     0.095508 0.229929 0.615638     C
C     0.095508 0.270089 0.115638     C
C     0.095508 0.270089 0.884378     C
C     0.095508 0.384378 0.229929     C
C     0.095508 0.384378 0.770089     C
C     0.095508 0.615638 0.229929     C
C     0.095508 0.615638 0.770089     C
C     0.095508 0.729929 0.115638     C
C     0.095508 0.729929 0.884378     C
C     0.095508 0.770089 0.384378     C
C     0.095508 0.770089 0.615638     C
C     0.095508 0.884378 0.270089     C
C     0.095508 0.884378 0.729929     C
C     0.114851 0.080011 0.292841     C
C     0.114851 0.080011 0.707161     C
C     0.114851 0.207161 0.419991     C
C     0.114851 0.207161 0.580011     C
C     0.114851 0.292841 0.080011     C
C     0.114851 0.292841 0.919991     C
C     0.114851 0.419991 0.207161     C
C     0.114851 0.419991 0.792841     C
C     0.114851 0.580011 0.207161     C
C     0.114851 0.580011 0.792841     C
C     0.114851 0.707161 0.080011     C
C     0.114851 0.707161 0.919991     C
C     0.114851 0.792841 0.419991     C
C     0.114851 0.792841 0.580011     C
C     0.114851 0.919991 0.292841     C
C     0.114851 0.919991 0.707161     C
C     0.115638 0.095508 0.270089     C
C     0.115638 0.095508 0.729929     C
C     0.115638 0.229929 0.404508     C
C     0.115638 0.229929 0.595508     C
C     0.115638 0.270089 0.095508     C
C     0.115638 0.270089 0.904508     C
C     0.115638 0.404508 0.229929     C
C     0.115638 0.404508 0.770089     C
C     0.115638 0.595508 0.229929     C
C     0.115638 0.595508 0.770089     C
C     0.115638 0.729929 0.095508     C
C     0.115638 0.729929 0.904508     C
C     0.115638 0.770089 0.404508     C
C     0.115638 0.770089 0.595508     C
C     0.115638 0.904508 0.270089     C
C     0.115638 0.904508 0.729929     C
C     0.135219 0.060469 0.293909     C
C     0.135219 0.060469 0.706109     C
C     0.135219 0.206109 0.439549     C
C     0.135219 0.206109 0.560469     C
C     0.135219 0.293909 0.060469     C
C     0.135219 0.293909 0.939549     C
C     0.135219 0.439549 0.206109     C
C     0.135219 0.439549 0.793909     C
C     0.135219 0.560469 0.206109     C
C     0.135219 0.560469 0.793909     C
C     0.135219 0.706109 0.060469     C
C     0.135219 0.706109 0.939549     C
C     0.135219 0.793909 0.439549     C
C     0.135219 0.793909 0.560469     C
C     0.135219 0.939549 0.293909     C
C     0.135219 0.939549 0.706109     C
H       0.1377   0.0486    0.308     H
H       0.1377   0.0486    0.692     H
H       0.1377    0.192   0.4514     H
H       0.1377    0.192   0.5486     H
H       0.1377    0.308   0.0486     H
H       0.1377    0.308   0.9514     H
H       0.1377   0.4514    0.192     H
H       0.1377   0.4514    0.808     H
H       0.1377   0.5486    0.192     H
H       0.1377   0.5486    0.808     H
H       0.1377    0.692   0.0486     H
H       0.1377    0.692   0.9514     H
H       0.1377    0.808   0.4514     H
H       0.1377    0.808   0.5486     H
H       0.1377   0.9514    0.308     H
H       0.1377   0.9514    0.692     H
S     0.141302 0.086202 0.249472     S
S     0.141302 0.086202 0.750532     S
S     0.141302 0.249472 0.086202     S
S     0.141302 0.249472 0.913802     S
S     0.141302 0.250532 0.413802     S
S     0.141302 0.250532 0.586202     S
S     0.141302 0.413802 0.250532     S
S     0.141302 0.413802 0.749472     S
S     0.141302 0.586202 0.250532     S
S     0.141302 0.586202 0.749472     S
S     0.141302 0.749472 0.413802     S
S     0.141302 0.749472 0.586202     S
S     0.141302 0.750532 0.086202     S
S     0.141302 0.750532 0.913802     S
S     0.141302 0.913802 0.249472     S
S     0.141302 0.913802 0.750532     S
C     0.150547 0.061197 0.271758     C
C     0.150547 0.061197 0.728258     C
C     0.150547 0.228258 0.438817     C
C     0.150547 0.228258 0.561197     C
C     0.150547 0.271758 0.061197     C
C     0.150547 0.271758 0.938817     C
C     0.150547 0.438817 0.228258     C
C     0.150547 0.438817 0.771758     C
C     0.150547 0.561197 0.228258     C
C     0.150547 0.561197 0.771758     C
C     0.150547 0.728258 0.061197     C
C     0.150547 0.728258 0.938817     C
C     0.150547 0.771758 0.438817     C
C     0.150547 0.771758 0.561197     C
C     0.150547 0.938817 0.271758     C
C     0.150547 0.938817 0.728258     C
C     0.174186 0.044536 0.265446     C
C     0.174186 0.044536 0.734566     C
C     0.174186 0.234566 0.455476     C
C     0.174186 0.234566 0.544536     C
C     0.174186 0.265446 0.044536     C
C     0.174186 0.265446 0.955476     C
C     0.174186 0.455476 0.234566     C
C     0.174186 0.455476 0.765446     C
C     0.174186 0.544536 0.234566     C
C     0.174186 0.544536 0.765446     C
C     0.174186 0.734566 0.044536     C
C     0.174186 0.734566 0.955476     C
C     0.174186 0.765446 0.455476     C
C     0.174186 0.765446 0.544536     C
C     0.174186 0.955476 0.265446     C
C     0.174186 0.955476 0.734566     C
O     0.180043 0.026793 0.282214     O
O     0.180043 0.026793 0.717794     O
O     0.180043 0.217794 0.473213     O
O     0.180043 0.217794 0.526793     O
O     0.180043 0.282214 0.026793     O
O     0.180043 0.282214 0.973213     O
O     0.180043 0.473213 0.217794     O
O     0.180043 0.473213 0.782214     O
O     0.180043 0.526793 0.217794     O
O     0.180043 0.526793 0.782214     O
O     0.180043 0.717794 0.026793     O
O     0.180043 0.717794 0.973213     O
O     0.180043 0.782214 0.473213     O
O     0.180043 0.782214 0.526793     O
O     0.180043 0.973213 0.282214     O
O     0.180043 0.973213 0.717794     O
S     0.185395 0.089425 0.410585     S
S     0.185395 0.089425 0.589425     S
S     0.185395 0.410585 0.089425     S
S     0.185395 0.410585 0.910585     S
S     0.185395 0.589425 0.089425     S
S     0.185395 0.589425 0.910585     S
S     0.185395 0.910585 0.410585     S
S     0.185395 0.910585 0.589425     S
O     0.186255 0.049685 0.243915     O
O     0.186255 0.049685 0.756095     O
O     0.186255 0.243915 0.049685     O
O     0.186255 0.243915 0.950325     O
O     0.186255 0.256095 0.450325     O
O     0.186255 0.256095 0.549685     O
O     0.186255 0.450325 0.256095     O
O     0.186255 0.450325 0.743915     O
O     0.186255 0.549685 0.256095     O
O     0.186255 0.549685 0.743915     O
O     0.186255 0.743915 0.450325     O
O     0.186255 0.743915 0.549685     O
O     0.186255 0.756095 0.049685     O
O     0.186255 0.756095 0.950325     O
O     0.186255 0.950325 0.243915     O
O     0.186255 0.950325 0.756095     O
H        0.192   0.0486   0.3623     H
H        0.192   0.0486   0.6377     H
H        0.192   0.1377   0.4514     H
H        0.192   0.1377   0.5486     H
H        0.192   0.3623   0.0486     H
H        0.192   0.3623   0.9514     H
H        0.192   0.4514   0.1377     H
H        0.192   0.4514   0.8623     H
H        0.192   0.5486   0.1377     H
H        0.192   0.5486   0.8623     H
H        0.192   0.6377   0.0486     H
H        0.192   0.6377   0.9514     H
H        0.192   0.8623   0.4514     H
H        0.192   0.8623   0.5486     H
H        0.192   0.9514   0.3623     H
H        0.192   0.9514   0.6377     H
O     0.194275 0.0335311 0.194275     O
O     0.194275 0.0335311 0.805735     O
O     0.194275 0.194275 0.0335311     O
O     0.194275 0.194275 0.9664711     O
O     0.194275 0.305735 0.4664711     O
O     0.194275 0.305735 0.5335311     O
O     0.194275 0.4664711 0.305735     O
O     0.194275 0.4664711 0.694275     O
O     0.194275 0.5335311 0.305735     O
O     0.194275 0.5335311 0.694275     O
O     0.194275 0.694275 0.4664711     O
O     0.194275 0.694275 0.5335311     O
O     0.194275 0.805735 0.0335311     O
O     0.194275 0.805735 0.9664711     O
O     0.194275 0.9664711 0.194275     O
O     0.194275 0.9664711 0.805735     O
C     0.206109 0.060469 0.364799     C
C     0.206109 0.060469 0.635219     C
C     0.206109 0.135219 0.439549     C
C     0.206109 0.135219 0.560469     C
C     0.206109 0.364799 0.060469     C
C     0.206109 0.364799 0.939549     C
C     0.206109 0.439549 0.135219     C
C     0.206109 0.439549 0.864799     C
C     0.206109 0.560469 0.135219     C
C     0.206109 0.560469 0.864799     C
C     0.206109 0.635219 0.060469     C
C     0.206109 0.635219 0.939549     C
C     0.206109 0.864799 0.439549     C
C     0.206109 0.864799 0.560469     C
C     0.206109 0.939549 0.364799     C
C     0.206109 0.939549 0.635219     C
C     0.207161 0.080011 0.385151     C
C     0.207161 0.080011 0.614851     C
C     0.207161 0.114851 0.419991     C
C     0.207161 0.114851 0.580011     C
C     0.207161 0.385151 0.080011     C
C     0.207161 0.385151 0.919991     C
C     0.207161 0.419991 0.114851     C
C     0.207161 0.419991 0.885151     C
C     0.207161 0.580011 0.114851     C
C     0.207161 0.580011 0.885151     C
C     0.207161 0.614851 0.080011     C
C     0.207161 0.614851 0.919991     C
C     0.207161 0.885151 0.419991     C
C     0.207161 0.885151 0.580011     C
C     0.207161 0.919991 0.385151     C
C     0.207161 0.919991 0.614851     C
O     0.207949      0.0 0.242116     O
O     0.207949      0.0 0.757896     O
O     0.207949 0.242116      0.0     O
O     0.207949 0.257896      0.5     O
O     0.207949      0.5 0.257896     O
O     0.207949      0.5 0.742116     O
O     0.207949 0.742116      0.5     O
O     0.207949 0.757896      0.0     O
Zr    0.2151305      0.0 0.2848705    Zr
Zr    0.2151305      0.0 0.7151305    Zr
Zr    0.2151305 0.2151305      0.5    Zr
Zr    0.2151305 0.2848705      0.0    Zr
Zr    0.2151305      0.5 0.2151305    Zr
Zr    0.2151305      0.5 0.7848705    Zr
Zr    0.2151305 0.7151305      0.0    Zr
Zr    0.2151305 0.7848705      0.5    Zr
O     0.217794 0.026793 0.319963     O
O     0.217794 0.026793 0.680043     O
O     0.217794 0.180043 0.473213     O
O     0.217794 0.180043 0.526793     O
O     0.217794 0.319963 0.026793     O
O     0.217794 0.319963 0.973213     O
O     0.217794 0.473213 0.180043     O
O     0.217794 0.473213 0.819963     O
O     0.217794 0.526793 0.180043     O
O     0.217794 0.526793 0.819963     O
O     0.217794 0.680043 0.026793     O
O     0.217794 0.680043 0.973213     O
O     0.217794 0.819963 0.473213     O
O     0.217794 0.819963 0.526793     O
O     0.217794 0.973213 0.319963     O
O     0.217794 0.973213 0.680043     O
Zr    0.2250274 0.0353996 0.2250274    Zr
Zr    0.2250274 0.0353996 0.7749734    Zr
Zr    0.2250274 0.2250274 0.0353996    Zr
Zr    0.2250274 0.2250274 0.9646016    Zr
Zr    0.2250274 0.2749734 0.4646016    Zr
Zr    0.2250274 0.2749734 0.5353996    Zr
Zr    0.2250274 0.4646016 0.2749734    Zr
Zr    0.2250274 0.4646016 0.7250274    Zr
Zr    0.2250274 0.5353996 0.2749734    Zr
Zr    0.2250274 0.5353996 0.7250274    Zr
Zr    0.2250274 0.7250274 0.4646016    Zr
Zr    0.2250274 0.7250274 0.5353996    Zr
Zr    0.2250274 0.7749734 0.0353996    Zr
Zr    0.2250274 0.7749734 0.9646016    Zr
Zr    0.2250274 0.9646016 0.2250274    Zr
Zr    0.2250274 0.9646016 0.7749734    Zr
O     0.227137 0.078786 0.227137     O
O     0.227137 0.078786 0.772877     O
O     0.227137 0.227137 0.078786     O
O     0.227137 0.227137 0.921226     O
O     0.227137 0.272877 0.421226     O
O     0.227137 0.272877 0.578786     O
O     0.227137 0.421226 0.272877     O
O     0.227137 0.421226 0.727137     O
O     0.227137 0.578786 0.272877     O
O     0.227137 0.578786 0.727137     O
O     0.227137 0.727137 0.421226     O
O     0.227137 0.727137 0.578786     O
O     0.227137 0.772877 0.078786     O
O     0.227137 0.772877 0.921226     O
O     0.227137 0.921226 0.227137     O
O     0.227137 0.921226 0.772877     O
C     0.228258 0.061197 0.349467     C
C     0.228258 0.061197 0.650547     C
C     0.228258 0.150547 0.438817     C
C     0.228258 0.150547 0.561197     C
C     0.228258 0.349467 0.061197     C
C     0.228258 0.349467 0.938817     C
C     0.228258 0.438817 0.150547     C
C     0.228258 0.438817 0.849467     C
C     0.228258 0.561197 0.150547     C
C     0.228258 0.561197 0.849467     C
C     0.228258 0.650547 0.061197     C
C     0.228258 0.650547 0.938817     C
C     0.228258 0.849467 0.438817     C
C     0.228258 0.849467 0.561197     C
C     0.228258 0.938817 0.349467     C
C     0.228258 0.938817 0.650547     C
C     0.229929 0.095508 0.384378     C
C     0.229929 0.095508 0.615638     C
C     0.229929 0.115638 0.404508     C
C     0.229929 0.115638 0.595508     C
C     0.229929 0.384378 0.095508     C
C     0.229929 0.384378 0.904508     C
C     0.229929 0.404508 0.115638     C
C     0.229929 0.404508 0.884378     C
C     0.229929 0.595508 0.115638     C
C     0.229929 0.595508 0.884378     C
C     0.229929 0.615638 0.095508     C
C     0.229929 0.615638 0.904508     C
C     0.229929 0.884378 0.404508     C
C     0.229929 0.884378 0.595508     C
C     0.229929 0.904508 0.384378     C
C     0.229929 0.904508 0.615638     C
O     0.233145 0.034919 0.266865     O
O     0.233145 0.034919 0.733145     O
O     0.233145 0.233145 0.465099     O
O     0.233145 0.233145 0.534919     O
O     0.233145 0.266865 0.034919     O
O     0.233145 0.266865 0.965099     O
O     0.233145 0.465099 0.233145     O
O     0.233145 0.465099 0.766865     O
O     0.233145 0.534919 0.233145     O
O     0.233145 0.534919 0.766865     O
O     0.233145 0.733145 0.034919     O
O     0.233145 0.733145 0.965099     O
O     0.233145 0.766865 0.465099     O
O     0.233145 0.766865 0.534919     O
O     0.233145 0.965099 0.266865     O
O     0.233145 0.965099 0.733145     O
C     0.234566 0.044536 0.325826     C
C     0.234566 0.044536 0.674186     C
C     0.234566 0.174186 0.455476     C
C     0.234566 0.174186 0.544536     C
C     0.234566 0.325826 0.044536     C
C     0.234566 0.325826 0.955476     C
C     0.234566 0.455476 0.174186     C
C     0.234566 0.455476 0.825826     C
C     0.234566 0.544536 0.174186     C
C     0.234566 0.544536 0.825826     C
C     0.234566 0.674186 0.044536     C
C     0.234566 0.674186 0.955476     C
C     0.234566 0.825826 0.455476     C
C     0.234566 0.825826 0.544536     C
C     0.234566 0.955476 0.325826     C
C     0.234566 0.955476 0.674186     C
O     0.242116      0.0 0.207949     O
O     0.242116      0.0 0.792069     O
O     0.242116 0.207949      0.0     O
O     0.242116 0.292069      0.5     O
O     0.242116      0.5 0.292069     O
O     0.242116      0.5 0.707949     O
O     0.242116 0.707949      0.5     O
O     0.242116 0.792069      0.0     O
O     0.243915 0.049685 0.186255     O
O     0.243915 0.049685 0.813755     O
O     0.243915 0.186255 0.049685     O
O     0.243915 0.186255 0.950325     O
O     0.243915 0.313755 0.450325     O
O     0.243915 0.313755 0.549685     O
O     0.243915 0.450325 0.313755     O
O     0.243915 0.450325 0.686255     O
O     0.243915 0.549685 0.313755     O
O     0.243915 0.549685 0.686255     O
O     0.243915 0.686255 0.450325     O
O     0.243915 0.686255 0.549685     O
O     0.243915 0.813755 0.049685     O
O     0.243915 0.813755 0.950325     O
O     0.243915 0.950325 0.186255     O
O     0.243915 0.950325 0.813755     O
S     0.249472 0.086202 0.141302     S
S     0.249472 0.086202 0.858702     S
S     0.249472 0.141302 0.086202     S
S     0.249472 0.141302 0.913802     S
S     0.249472 0.358702 0.413802     S
S     0.249472 0.358702 0.586202     S
S     0.249472 0.413802 0.358702     S
S     0.249472 0.413802 0.641302     S
S     0.249472 0.586202 0.358702     S
S     0.249472 0.586202 0.641302     S
S     0.249472 0.641302 0.413802     S
S     0.249472 0.641302 0.586202     S
S     0.249472 0.858702 0.086202     S
S     0.249472 0.858702 0.913802     S
S     0.249472 0.913802 0.141302     S
S     0.249472 0.913802 0.858702     S
S     0.250532 0.086202 0.358702     S
S     0.250532 0.086202 0.641302     S
S     0.250532 0.141302 0.413802     S
S     0.250532 0.141302 0.586202     S
S     0.250532 0.358702 0.086202     S
S     0.250532 0.358702 0.913802     S
S     0.250532 0.413802 0.141302     S
S     0.250532 0.413802 0.858702     S
S     0.250532 0.586202 0.141302     S
S     0.250532 0.586202 0.858702     S
S     0.250532 0.641302 0.086202     S
S     0.250532 0.641302 0.913802     S
S     0.250532 0.858702 0.413802     S
S     0.250532 0.858702 0.586202     S
S     0.250532 0.913802 0.358702     S
S     0.250532 0.913802 0.641302     S
O     0.256095 0.049685 0.313755     O
O     0.256095 0.049685 0.686255     O
O     0.256095 0.186255 0.450325     O
O     0.256095 0.186255 0.549685     O
O     0.256095 0.313755 0.049685     O
O     0.256095 0.313755 0.950325     O
O     0.256095 0.450325 0.186255     O
O     0.256095 0.450325 0.813755     O
O     0.256095 0.549685 0.186255     O
O     0.256095 0.549685 0.813755     O
O     0.256095 0.686255 0.049685     O
O     0.256095 0.686255 0.950325     O
O     0.256095 0.813755 0.450325     O
O     0.256095 0.813755 0.549685     O
O     0.256095 0.950325 0.313755     O
O     0.256095 0.950325 0.686255     O
O     0.257896      0.0 0.292069     O
O     0.257896      0.0 0.707949     O
O     0.257896 0.207949      0.5     O
O     0.257896 0.292069      0.0     O
O     0.257896      0.5 0.207949     O
O     0.257896      0.5 0.792069     O
O     0.257896 0.707949      0.0     O
O     0.257896 0.792069      0.5     O
C     0.265446 0.044536 0.174186     C
C     0.265446 0.044536 0.825826     C
C     0.265446 0.174186 0.044536     C
C     0.265446 0.174186 0.955476     C
C     0.265446 0.325826 0.455476     C
C     0.265446 0.325826 0.544536     C
C     0.265446 0.455476 0.325826     C
C     0.265446 0.455476 0.674186     C
C     0.265446 0.544536 0.325826     C
C     0.265446 0.544536 0.674186     C
C     0.265446 0.674186 0.455476     C
C     0.265446 0.674186 0.544536     C
C     0.265446 0.825826 0.044536     C
C     0.265446 0.825826 0.955476     C
C     0.265446 0.955476 0.174186     C
C     0.265446 0.955476 0.825826     C
O     0.266865 0.034919 0.233145     O
O     0.266865 0.034919 0.766865     O
O     0.266865 0.233145 0.034919     O
O     0.266865 0.233145 0.965099     O
O     0.266865 0.266865 0.465099     O
O     0.266865 0.266865 0.534919     O
O     0.266865 0.465099 0.266865     O
O     0.266865 0.465099 0.733145     O
O     0.266865 0.534919 0.266865     O
O     0.266865 0.534919 0.733145     O
O     0.266865 0.733145 0.465099     O
O     0.266865 0.733145 0.534919     O
O     0.266865 0.766865 0.034919     O
O     0.266865 0.766865 0.965099     O
O     0.266865 0.965099 0.233145     O
O     0.266865 0.965099 0.766865     O
C     0.270089 0.095508 0.115638     C
C     0.270089 0.095508 0.884378     C
C     0.270089 0.115638 0.095508     C
C     0.270089 0.115638 0.904508     C
C     0.270089 0.384378 0.404508     C
C     0.270089 0.384378 0.595508     C
C     0.270089 0.404508 0.384378     C
C     0.270089 0.404508 0.615638     C
C     0.270089 0.595508 0.384378     C
C     0.270089 0.595508 0.615638     C
C     0.270089 0.615638 0.404508     C
C     0.270089 0.615638 0.595508     C
C     0.270089 0.884378 0.095508     C
C     0.270089 0.884378 0.904508     C
C     0.270089 0.904508 0.115638     C
C     0.270089 0.904508 0.884378     C
C     0.271758 0.061197 0.150547     C
C     0.271758 0.061197 0.849467     C
C     0.271758 0.150547 0.061197     C
C     0.271758 0.150547 0.938817     C
C     0.271758 0.349467 0.438817     C
C     0.271758 0.349467 0.561197     C
C     0.271758 0.438817 0.349467     C
C     0.271758 0.438817 0.650547     C
C     0.271758 0.561197 0.349467     C
C     0.271758 0.561197 0.650547     C
C     0.271758 0.650547 0.438817     C
C     0.271758 0.650547 0.561197     C
C     0.271758 0.849467 0.061197     C
C     0.271758 0.849467 0.938817     C
C     0.271758 0.938817 0.150547     C
C     0.271758 0.938817 0.849467     C
O     0.272877 0.078786 0.272877     O
O     0.272877 0.078786 0.727137     O
O     0.272877 0.227137 0.421226     O
O     0.272877 0.227137 0.578786     O
O     0.272877 0.272877 0.078786     O
O     0.272877 0.272877 0.921226     O
O     0.272877 0.421226 0.227137     O
O     0.272877 0.421226 0.772877     O
O     0.272877 0.578786 0.227137     O
O     0.272877 0.578786 0.772877     O
O     0.272877 0.727137 0.078786     O
O     0.272877 0.727137 0.921226     O
O     0.272877 0.772877 0.421226     O
O     0.272877 0.772877 0.578786     O
O     0.272877 0.921226 0.272877     O
O     0.272877 0.921226 0.727137     O
Zr    0.2749734 0.0353996 0.2749734    Zr
Zr    0.2749734 0.0353996 0.7250274    Zr
Zr    0.2749734 0.2250274 0.4646016    Zr
Zr    0.2749734 0.2250274 0.5353996    Zr
Zr    0.2749734 0.2749734 0.0353996    Zr
Zr    0.2749734 0.2749734 0.9646016    Zr
Zr    0.2749734 0.4646016 0.2250274    Zr
Zr    0.2749734 0.4646016 0.7749734    Zr
Zr    0.2749734 0.5353996 0.2250274    Zr
Zr    0.2749734 0.5353996 0.7749734    Zr
Zr    0.2749734 0.7250274 0.0353996    Zr
Zr    0.2749734 0.7250274 0.9646016    Zr
Zr    0.2749734 0.7749734 0.4646016    Zr
Zr    0.2749734 0.7749734 0.5353996    Zr
Zr    0.2749734 0.9646016 0.2749734    Zr
Zr    0.2749734 0.9646016 0.7250274    Zr
O     0.282214 0.026793 0.180043     O
O     0.282214 0.026793 0.819963     O
O     0.282214 0.180043 0.026793     O
O     0.282214 0.180043 0.973213     O
O     0.282214 0.319963 0.473213     O
O     0.282214 0.319963 0.526793     O
O     0.282214 0.473213 0.319963     O
O     0.282214 0.473213 0.680043     O
O     0.282214 0.526793 0.319963     O
O     0.282214 0.526793 0.680043     O
O     0.282214 0.680043 0.473213     O
O     0.282214 0.680043 0.526793     O
O     0.282214 0.819963 0.026793     O
O     0.282214 0.819963 0.973213     O
O     0.282214 0.973213 0.180043     O
O     0.282214 0.973213 0.819963     O
Zr    0.2848705      0.0 0.2151305    Zr
Zr    0.2848705      0.0 0.7848705    Zr
Zr    0.2848705 0.2151305      0.0    Zr
Zr    0.2848705 0.2848705      0.5    Zr
Zr    0.2848705      0.5 0.2848705    Zr
Zr    0.2848705      0.5 0.7151305    Zr
Zr    0.2848705 0.7151305      0.5    Zr
Zr    0.2848705 0.7848705      0.0    Zr
O     0.292069      0.0 0.257896     O
O     0.292069      0.0 0.742116     O
O     0.292069 0.242116      0.5     O
O     0.292069 0.257896      0.0     O
O     0.292069      0.5 0.242116     O
O     0.292069      0.5 0.757896     O
O     0.292069 0.742116      0.0     O
O     0.292069 0.757896      0.5     O
C     0.292841 0.080011 0.114851     C
C     0.292841 0.080011 0.885151     C
C     0.292841 0.114851 0.080011     C
C     0.292841 0.114851 0.919991     C
C     0.292841 0.385151 0.419991     C
C     0.292841 0.385151 0.580011     C
C     0.292841 0.419991 0.385151     C
C     0.292841 0.419991 0.614851     C
C     0.292841 0.580011 0.385151     C
C     0.292841 0.580011 0.614851     C
C     0.292841 0.614851 0.419991     C
C     0.292841 0.614851 0.580011     C
C     0.292841 0.885151 0.080011     C
C     0.292841 0.885151 0.919991     C
C     0.292841 0.919991 0.114851     C
C     0.292841 0.919991 0.885151     C
C     0.293909 0.060469 0.135219     C
C     0.293909 0.060469 0.864799     C
C     0.293909 0.135219 0.060469     C
C     0.293909 0.135219 0.939549     C
C     0.293909 0.364799 0.439549     C
C     0.293909 0.364799 0.560469     C
C     0.293909 0.439549 0.364799     C
C     0.293909 0.439549 0.635219     C
C     0.293909 0.560469 0.364799     C
C     0.293909 0.560469 0.635219     C
C     0.293909 0.635219 0.439549     C
C     0.293909 0.635219 0.560469     C
C     0.293909 0.864799 0.060469     C
C     0.293909 0.864799 0.939549     C
C     0.293909 0.939549 0.135219     C
C     0.293909 0.939549 0.864799     C
O     0.305735 0.0335311 0.305735     O
O     0.305735 0.0335311 0.694275     O
O     0.305735 0.194275 0.4664711     O
O     0.305735 0.194275 0.5335311     O
O     0.305735 0.305735 0.0335311     O
O     0.305735 0.305735 0.9664711     O
O     0.305735 0.4664711 0.194275     O
O     0.305735 0.4664711 0.805735     O
O     0.305735 0.5335311 0.194275     O
O     0.305735 0.5335311 0.805735     O
O     0.305735 0.694275 0.0335311     O
O     0.305735 0.694275 0.9664711     O
O     0.305735 0.805735 0.4664711     O
O     0.305735 0.805735 0.5335311     O
O     0.305735 0.9664711 0.305735     O
O     0.305735 0.9664711 0.694275     O
H        0.308   0.0486   0.1377     H
H        0.308   0.0486   0.8623     H
H        0.308   0.1377   0.0486     H
H        0.308   0.1377   0.9514     H
H        0.308   0.3623   0.4514     H
H        0.308   0.3623   0.5486     H
H        0.308   0.4514   0.3623     H
H        0.308   0.4514   0.6377     H
H        0.308   0.5486   0.3623     H
H        0.308   0.5486   0.6377     H
H        0.308   0.6377   0.4514     H
H        0.308   0.6377   0.5486     H
H        0.308   0.8623   0.0486     H
H        0.308   0.8623   0.9514     H
H        0.308   0.9514   0.1377     H
H        0.308   0.9514   0.8623     H
O     0.313755 0.049685 0.256095     O
O     0.313755 0.049685 0.743915     O
O     0.313755 0.243915 0.450325     O
O     0.313755 0.243915 0.549685     O
O     0.313755 0.256095 0.049685     O
O     0.313755 0.256095 0.950325     O
O     0.313755 0.450325 0.243915     O
O     0.313755 0.450325 0.756095     O
O     0.313755 0.549685 0.243915     O
O     0.313755 0.549685 0.756095     O
O     0.313755 0.743915 0.049685     O
O     0.313755 0.743915 0.950325     O
O     0.313755 0.756095 0.450325     O
O     0.313755 0.756095 0.549685     O
O     0.313755 0.950325 0.256095     O
O     0.313755 0.950325 0.743915     O
S     0.314615 0.089425 0.089425     S
S     0.314615 0.089425 0.910585     S
S     0.314615 0.410585 0.410585     S
S     0.314615 0.410585 0.589425     S
S     0.314615 0.589425 0.410585     S
S     0.314615 0.589425 0.589425     S
S     0.314615 0.910585 0.089425     S
S     0.314615 0.910585 0.910585     S
O     0.319963 0.026793 0.217794     O
O     0.319963 0.026793 0.782214     O
O     0.319963 0.217794 0.026793     O
O     0.319963 0.217794 0.973213     O
O     0.319963 0.282214 0.473213     O
O     0.319963 0.282214 0.526793     O
O     0.319963 0.473213 0.282214     O
O     0.319963 0.473213 0.717794     O
O     0.319963 0.526793 0.282214     O
O     0.319963 0.526793 0.717794     O
O     0.319963 0.717794 0.473213     O
O     0.319963 0.717794 0.526793     O
O     0.319963 0.782214 0.026793     O
O     0.319963 0.782214 0.973213     O
O     0.319963 0.973213 0.217794     O
O     0.319963 0.973213 0.782214     O
C     0.325826 0.044536 0.234566     C
C     0.325826 0.044536 0.765446     C
C     0.325826 0.234566 0.044536     C
C     0.325826 0.234566 0.955476     C
C     0.325826 0.265446 0.455476     C
C     0.325826 0.265446 0.544536     C
C     0.325826 0.455476 0.265446     C
C     0.325826 0.455476 0.734566     C
C     0.325826 0.544536 0.265446     C
C     0.325826 0.544536 0.734566     C
C     0.325826 0.734566 0.455476     C
C     0.325826 0.734566 0.544536     C
C     0.325826 0.765446 0.044536     C
C     0.325826 0.765446 0.955476     C
C     0.325826 0.955476 0.234566     C
C     0.325826 0.955476 0.765446     C
C     0.349467 0.061197 0.228258     C
C     0.349467 0.061197 0.771758     C
C     0.349467 0.228258 0.061197     C
C     0.349467 0.228258 0.938817     C
C     0.349467 0.271758 0.438817     C
C     0.349467 0.271758 0.561197     C
C     0.349467 0.438817 0.271758     C
C     0.349467 0.438817 0.728258     C
C     0.349467 0.561197 0.271758     C
C     0.349467 0.561197 0.728258     C
C     0.349467 0.728258 0.438817     C
C     0.349467 0.728258 0.561197     C
C     0.349467 0.771758 0.061197     C
C     0.349467 0.771758 0.938817     C
C     0.349467 0.938817 0.228258     C
C     0.349467 0.938817 0.771758     C
S     0.358702 0.086202 0.250532     S
S     0.358702 0.086202 0.749472     S
S     0.358702 0.249472 0.413802     S
S     0.358702 0.249472 0.586202     S
S     0.358702 0.250532 0.086202     S
S     0.358702 0.250532 0.913802     S
S     0.358702 0.413802 0.249472     S
S     0.358702 0.413802 0.750532     S
S     0.358702 0.586202 0.249472     S
S     0.358702 0.586202 0.750532     S
S     0.358702 0.749472 0.086202     S
S     0.358702 0.749472 0.913802     S
S     0.358702 0.750532 0.413802     S
S     0.358702 0.750532 0.586202     S
S     0.358702 0.913802 0.250532     S
S     0.358702 0.913802 0.749472     S
H       0.3623   0.0486    0.192     H
H       0.3623   0.0486    0.808     H
H       0.3623    0.192   0.0486     H
H       0.3623    0.192   0.9514     H
H       0.3623    0.308   0.4514     H
H       0.3623    0.308   0.5486     H
H       0.3623   0.4514    0.308     H
H       0.3623   0.4514    0.692     H
H       0.3623   0.5486    0.308     H
H       0.3623   0.5486    0.692     H
H       0.3623    0.692   0.4514     H
H       0.3623    0.692   0.5486     H
H       0.3623    0.808   0.0486     H
H       0.3623    0.808   0.9514     H
H       0.3623   0.9514    0.192     H
H       0.3623   0.9514    0.808     H
C     0.364799 0.060469 0.206109     C
C     0.364799 0.060469 0.793909     C
C     0.364799 0.206109 0.060469     C
C     0.364799 0.206109 0.939549     C
C     0.364799 0.293909 0.439549     C
C     0.364799 0.293909 0.560469     C
C     0.364799 0.439549 0.293909     C
C     0.364799 0.439549 0.706109     C
C     0.364799 0.560469 0.293909     C
C     0.364799 0.560469 0.706109     C
C     0.364799 0.706109 0.439549     C
C     0.364799 0.706109 0.560469     C
C     0.364799 0.793909 0.060469     C
C     0.364799 0.793909 0.939549     C
C     0.364799 0.939549 0.206109     C
C     0.364799 0.939549 0.793909     C
C     0.384378 0.095508 0.229929     C
C     0.384378 0.095508 0.770089     C
C     0.384378 0.229929 0.095508     C
C     0.384378 0.229929 0.904508     C
C     0.384378 0.270089 0.404508     C
C     0.384378 0.270089 0.595508     C
C     0.384378 0.404508 0.270089     C
C     0.384378 0.404508 0.729929     C
C     0.384378 0.595508 0.270089     C
C     0.384378 0.595508 0.729929     C
C     0.384378 0.729929 0.404508     C
C     0.384378 0.729929 0.595508     C
C     0.384378 0.770089 0.095508     C
C     0.384378 0.770089 0.904508     C
C     0.384378 0.904508 0.229929     C
C     0.384378 0.904508 0.770089     C
C     0.385151 0.080011 0.207161     C
C     0.385151 0.080011 0.792841     C
C     0.385151 0.207161 0.080011     C
C     0.385151 0.207161 0.919991     C
C     0.385151 0.292841 0.419991     C
C     0.385151 0.292841 0.580011     C
C     0.385151 0.419991 0.292841     C
C     0.385151 0.419991 0.707161     C
C     0.385151 0.580011 0.292841     C
C     0.385151 0.580011 0.707161     C
C     0.385151 0.707161 0.419991     C
C     0.385151 0.707161 0.580011     C
C     0.385151 0.792841 0.080011     C
C     0.385151 0.792841 0.919991     C
C     0.385151 0.919991 0.207161     C
C     0.385151 0.919991 0.792841     C
C     0.404508 0.115638 0.229929     C
C     0.404508 0.115638 0.770089     C
C     0.404508 0.229929 0.115638     C
C     0.404508 0.229929 0.884378     C
C     0.404508 0.270089 0.384378     C
C     0.404508 0.270089 0.615638     C
C     0.404508 0.384378 0.270089     C
C     0.404508 0.384378 0.729929     C
C     0.404508 0.615638 0.270089     C
C     0.404508 0.615638 0.729929     C
C     0.404508 0.729929 0.384378     C
C     0.404508 0.729929 0.615638     C
C     0.404508 0.770089 0.115638     C
C     0.404508 0.770089 0.884378     C
C     0.404508 0.884378 0.229929     C
C     0.404508 0.884378 0.770089     C
S     0.410585 0.089425 0.185395     S
S     0.410585 0.089425 0.814615     S
S     0.410585 0.185395 0.089425     S
S     0.410585 0.185395 0.910585     S
S     0.410585 0.314615 0.410585     S
S     0.410585 0.314615 0.589425     S
S     0.410585 0.410585 0.314615     S
S     0.410585 0.410585 0.685395     S
S     0.410585 0.589425 0.314615     S
S     0.410585 0.589425 0.685395     S
S     0.410585 0.685395 0.410585     S
S     0.410585 0.685395 0.589425     S
S     0.410585 0.814615 0.089425     S
S     0.410585 0.814615 0.910585     S
S     0.410585 0.910585 0.185395     S
S     0.410585 0.910585 0.814615     S
S     0.413802 0.141302 0.250532     S
S     0.413802 0.141302 0.749472     S
S     0.413802 0.249472 0.358702     S
S     0.413802 0.249472 0.641302     S
S     0.413802 0.250532 0.141302     S
S     0.413802 0.250532 0.858702     S
S     0.413802 0.358702 0.249472     S
S     0.413802 0.358702 0.750532     S
S     0.413802 0.641302 0.249472     S
S     0.413802 0.641302 0.750532     S
S     0.413802 0.749472 0.141302     S
S     0.413802 0.749472 0.858702     S
S     0.413802 0.750532 0.358702     S
S     0.413802 0.750532 0.641302     S
S     0.413802 0.858702 0.250532     S
S     0.413802 0.858702 0.749472     S
C     0.419991 0.114851 0.207161     C
C     0.419991 0.114851 0.792841     C
C     0.419991 0.207161 0.114851     C
C     0.419991 0.207161 0.885151     C
C     0.419991 0.292841 0.385151     C
C     0.419991 0.292841 0.614851     C
C     0.419991 0.385151 0.292841     C
C     0.419991 0.385151 0.707161     C
C     0.419991 0.614851 0.292841     C
C     0.419991 0.614851 0.707161     C
C     0.419991 0.707161 0.385151     C
C     0.419991 0.707161 0.614851     C
C     0.419991 0.792841 0.114851     C
C     0.419991 0.792841 0.885151     C
C     0.419991 0.885151 0.207161     C
C     0.419991 0.885151 0.792841     C
O     0.421226 0.227137 0.272877     O
O     0.421226 0.227137 0.727137     O
O     0.421226 0.272877 0.227137     O
O     0.421226 0.272877 0.772877     O
O     0.421226 0.727137 0.227137     O
O     0.421226 0.727137 0.772877     O
O     0.421226 0.772877 0.272877     O
O     0.421226 0.772877 0.727137     O
C     0.438817 0.150547 0.228258     C
C     0.438817 0.150547 0.771758     C
C     0.438817 0.228258 0.150547     C
C     0.438817 0.228258 0.849467     C
C     0.438817 0.271758 0.349467     C
C     0.438817 0.271758 0.650547     C
C     0.438817 0.349467 0.271758     C
C     0.438817 0.349467 0.728258     C
C     0.438817 0.650547 0.271758     C
C     0.438817 0.650547 0.728258     C
C     0.438817 0.728258 0.349467     C
C     0.438817 0.728258 0.650547     C
C     0.438817 0.771758 0.150547     C
C     0.438817 0.771758 0.849467     C
C     0.438817 0.849467 0.228258     C
C     0.438817 0.849467 0.771758     C
C     0.439549 0.135219 0.206109     C
C     0.439549 0.135219 0.793909     C
C     0.439549 0.206109 0.135219     C
C     0.439549 0.206109 0.864799     C
C     0.439549 0.293909 0.364799     C
C     0.439549 0.293909 0.635219     C
C     0.439549 0.364799 0.293909     C
C     0.439549 0.364799 0.706109     C
C     0.439549 0.635219 0.293909     C
C     0.439549 0.635219 0.706109     C
C     0.439549 0.706109 0.364799     C
C     0.439549 0.706109 0.635219     C
C     0.439549 0.793909 0.135219     C
C     0.439549 0.793909 0.864799     C
C     0.439549 0.864799 0.206109     C
C     0.439549 0.864799 0.793909     C
O     0.450325 0.186255 0.256095     O
O     0.450325 0.186255 0.743915     O
O     0.450325 0.243915 0.313755     O
O     0.450325 0.243915 0.686255     O
O     0.450325 0.256095 0.186255     O
O     0.450325 0.256095 0.813755     O
O     0.450325 0.313755 0.243915     O
O     0.450325 0.313755 0.756095     O
O     0.450325 0.686255 0.243915     O
O     0.450325 0.686255 0.756095     O
O     0.450325 0.743915 0.186255     O
O     0.450325 0.743915 0.813755     O
O     0.450325 0.756095 0.313755     O
O     0.450325 0.756095 0.686255     O
O     0.450325 0.813755 0.256095     O
O     0.450325 0.813755 0.743915     O
H       0.4514   0.1377    0.192     H
H       0.4514   0.1377    0.808     H
H       0.4514    0.192   0.1377     H
H       0.4514    0.192   0.8623     H
H       0.4514    0.308   0.3623     H
H       0.4514    0.308   0.6377     H
H       0.4514   0.3623    0.308     H
H       0.4514   0.3623    0.692     H
H       0.4514   0.6377    0.308     H
H       0.4514   0.6377    0.692     H
H       0.4514    0.692   0.3623     H
H       0.4514    0.692   0.6377     H
H       0.4514    0.808   0.1377     H
H       0.4514    0.808   0.8623     H
H       0.4514   0.8623    0.192     H
H       0.4514   0.8623    0.808     H
C     0.455476 0.174186 0.234566     C
C     0.455476 0.174186 0.765446     C
C     0.455476 0.234566 0.174186     C
C     0.455476 0.234566 0.825826     C
C     0.455476 0.265446 0.325826     C
C     0.455476 0.265446 0.674186     C
C     0.455476 0.325826 0.265446     C
C     0.455476 0.325826 0.734566     C
C     0.455476 0.674186 0.265446     C
C     0.455476 0.674186 0.734566     C
C     0.455476 0.734566 0.325826     C
C     0.455476 0.734566 0.674186     C
C     0.455476 0.765446 0.174186     C
C     0.455476 0.765446 0.825826     C
C     0.455476 0.825826 0.234566     C
C     0.455476 0.825826 0.765446     C
Zr    0.4646016 0.2250274 0.2749734    Zr
Zr    0.4646016 0.2250274 0.7250274    Zr
Zr    0.4646016 0.2749734 0.2250274    Zr
Zr    0.4646016 0.2749734 0.7749734    Zr
Zr    0.4646016 0.7250274 0.2250274    Zr
Zr    0.4646016 0.7250274 0.7749734    Zr
Zr    0.4646016 0.7749734 0.2749734    Zr
Zr    0.4646016 0.7749734 0.7250274    Zr
O     0.465099 0.233145 0.233145     O
O     0.465099 0.233145 0.766865     O
O     0.465099 0.266865 0.266865     O
O     0.465099 0.266865 0.733145     O
O     0.465099 0.733145 0.266865     O
O     0.465099 0.733145 0.733145     O
O     0.465099 0.766865 0.233145     O
O     0.465099 0.766865 0.766865     O
O     0.4664711 0.194275 0.305735     O
O     0.4664711 0.194275 0.694275     O
O     0.4664711 0.305735 0.194275     O
O     0.4664711 0.305735 0.805735     O
O     0.4664711 0.694275 0.194275     O
O     0.4664711 0.694275 0.805735     O
O     0.4664711 0.805735 0.305735     O
O     0.4664711 0.805735 0.694275     O
O     0.473213 0.180043 0.217794     O
O     0.473213 0.180043 0.782214     O
O     0.473213 0.217794 0.180043     O
O     0.473213 0.217794 0.819963     O
O     0.473213 0.282214 0.319963     O
O     0.473213 0.282214 0.680043     O
O     0.473213 0.319963 0.282214     O
O     0.473213 0.319963 0.717794     O
O     0.473213 0.680043 0.282214     O
O     0.473213 0.680043 0.717794     O
O     0.473213 0.717794 0.319963     O
O     0.473213 0.717794 0.680043     O
O     0.473213 0.782214 0.180043     O
O     0.473213 0.782214 0.819963     O
O     0.473213 0.819963 0.217794     O
O     0.473213 0.819963 0.782214     O
O          0.5 0.207949 0.257896     O
O          0.5 0.207949 0.742116     O
Zr         0.5 0.2151305 0.2151305    Zr
Zr         0.5 0.2151305 0.7848705    Zr
O          0.5 0.242116 0.292069     O
O          0.5 0.242116 0.707949     O
O          0.5 0.257896 0.207949     O
O          0.5 0.257896 0.792069     O
Zr         0.5 0.2848705 0.2848705    Zr
Zr         0.5 0.2848705 0.7151305    Zr
O          0.5 0.292069 0.242116     O
O          0.5 0.292069 0.757896     O
O          0.5 0.707949 0.242116     O
O          0.5 0.707949 0.757896     O
Zr         0.5 0.7151305 0.2848705    Zr
Zr         0.5 0.7151305 0.7151305    Zr
O          0.5 0.742116 0.207949     O
O          0.5 0.742116 0.792069     O
O          0.5 0.757896 0.292069     O
O          0.5 0.757896 0.707949     O
Zr         0.5 0.7848705 0.2151305    Zr
Zr         0.5 0.7848705 0.7848705    Zr
O          0.5 0.792069 0.257896     O
O          0.5 0.792069 0.742116     O
O     0.526793 0.180043 0.217794     O
O     0.526793 0.180043 0.782214     O
O     0.526793 0.217794 0.180043     O
O     0.526793 0.217794 0.819963     O
O     0.526793 0.282214 0.319963     O
O     0.526793 0.282214 0.680043     O
O     0.526793 0.319963 0.282214     O
O     0.526793 0.319963 0.717794     O
O     0.526793 0.680043 0.282214     O
O     0.526793 0.680043 0.717794     O
O     0.526793 0.717794 0.319963     O
O     0.526793 0.717794 0.680043     O
O     0.526793 0.782214 0.180043     O
O     0.526793 0.782214 0.819963     O
O     0.526793 0.819963 0.217794     O
O     0.526793 0.819963 0.782214     O
O     0.5335311 0.194275 0.305735     O
O     0.5335311 0.194275 0.694275     O
O     0.5335311 0.305735 0.194275     O
O     0.5335311 0.305735 0.805735     O
O     0.5335311 0.694275 0.194275     O
O     0.5335311 0.694275 0.805735     O
O     0.5335311 0.805735 0.305735     O
O     0.5335311 0.805735 0.694275     O
O     0.534919 0.233145 0.233145     O
O     0.534919 0.233145 0.766865     O
O     0.534919 0.266865 0.266865     O
O     0.534919 0.266865 0.733145     O
O     0.534919 0.733145 0.266865     O
O     0.534919 0.733145 0.733145     O
O     0.534919 0.766865 0.233145     O
O     0.534919 0.766865 0.766865     O
Zr    0.5353996 0.2250274 0.2749734    Zr
Zr    0.5353996 0.2250274 0.7250274    Zr
Zr    0.5353996 0.2749734 0.2250274    Zr
Zr    0.5353996 0.2749734 0.7749734    Zr
Zr    0.5353996 0.7250274 0.2250274    Zr
Zr    0.5353996 0.7250274 0.7749734    Zr
Zr    0.5353996 0.7749734 0.2749734    Zr
Zr    0.5353996 0.7749734 0.7250274    Zr
C     0.544536 0.174186 0.234566     C
C     0.544536 0.174186 0.765446     C
C     0.544536 0.234566 0.174186     C
C     0.544536 0.234566 0.825826     C
C     0.544536 0.265446 0.325826     C
C     0.544536 0.265446 0.674186     C
C     0.544536 0.325826 0.265446     C
C     0.544536 0.325826 0.734566     C
C     0.544536 0.674186 0.265446     C
C     0.544536 0.674186 0.734566     C
C     0.544536 0.734566 0.325826     C
C     0.544536 0.734566 0.674186     C
C     0.544536 0.765446 0.174186     C
C     0.544536 0.765446 0.825826     C
C     0.544536 0.825826 0.234566     C
C     0.544536 0.825826 0.765446     C
H       0.5486   0.1377    0.192     H
H       0.5486   0.1377    0.808     H
H       0.5486    0.192   0.1377     H
H       0.5486    0.192   0.8623     H
H       0.5486    0.308   0.3623     H
H       0.5486    0.308   0.6377     H
H       0.5486   0.3623    0.308     H
H       0.5486   0.3623    0.692     H
H       0.5486   0.6377    0.308     H
H       0.5486   0.6377    0.692     H
H       0.5486    0.692   0.3623     H
H       0.5486    0.692   0.6377     H
H       0.5486    0.808   0.1377     H
H       0.5486    0.808   0.8623     H
H       0.5486   0.8623    0.192     H
H       0.5486   0.8623    0.808     H
O     0.549685 0.186255 0.256095     O
O     0.549685 0.186255 0.743915     O
O     0.549685 0.243915 0.313755     O
O     0.549685 0.243915 0.686255     O
O     0.549685 0.256095 0.186255     O
O     0.549685 0.256095 0.813755     O
O     0.549685 0.313755 0.243915     O
O     0.549685 0.313755 0.756095     O
O     0.549685 0.686255 0.243915     O
O     0.549685 0.686255 0.756095     O
O     0.549685 0.743915 0.186255     O
O     0.549685 0.743915 0.813755     O
O     0.549685 0.756095 0.313755     O
O     0.549685 0.756095 0.686255     O
O     0.549685 0.813755 0.256095     O
O     0.549685 0.813755 0.743915     O
C     0.560469 0.135219 0.206109     C
C     0.560469 0.135219 0.793909     C
C     0.560469 0.206109 0.135219     C
C     0.560469 0.206109 0.864799     C
C     0.560469 0.293909 0.364799     C
C     0.560469 0.293909 0.635219     C
C     0.560469 0.364799 0.293909     C
C     0.560469 0.364799 0.706109     C
C     0.560469 0.635219 0.293909     C
C     0.560469 0.635219 0.706109     C
C     0.560469 0.706109 0.364799     C
C     0.560469 0.706109 0.635219     C
C     0.560469 0.793909 0.135219     C
C     0.560469 0.793909 0.864799     C
C     0.560469 0.864799 0.206109     C
C     0.560469 0.864799 0.793909     C
C     0.561197 0.150547 0.228258     C
C     0.561197 0.150547 0.771758     C
C     0.561197 0.228258 0.150547     C
C     0.561197 0.228258 0.849467     C
C     0.561197 0.271758 0.349467     C
C     0.561197 0.271758 0.650547     C
C     0.561197 0.349467 0.271758     C
C     0.561197 0.349467 0.728258     C
C     0.561197 0.650547 0.271758     C
C     0.561197 0.650547 0.728258     C
C     0.561197 0.728258 0.349467     C
C     0.561197 0.728258 0.650547     C
C     0.561197 0.771758 0.150547     C
C     0.561197 0.771758 0.849467     C
C     0.561197 0.849467 0.228258     C
C     0.561197 0.849467 0.771758     C
O     0.578786 0.227137 0.272877     O
O     0.578786 0.227137 0.727137     O
O     0.578786 0.272877 0.227137     O
O     0.578786 0.272877 0.772877     O
O     0.578786 0.727137 0.227137     O
O     0.578786 0.727137 0.772877     O
O     0.578786 0.772877 0.272877     O
O     0.578786 0.772877 0.727137     O
C     0.580011 0.114851 0.207161     C
C     0.580011 0.114851 0.792841     C
C     0.580011 0.207161 0.114851     C
C     0.580011 0.207161 0.885151     C
C     0.580011 0.292841 0.385151     C
C     0.580011 0.292841 0.614851     C
C     0.580011 0.385151 0.292841     C
C     0.580011 0.385151 0.707161     C
C     0.580011 0.614851 0.292841     C
C     0.580011 0.614851 0.707161     C
C     0.580011 0.707161 0.385151     C
C     0.580011 0.707161 0.614851     C
C     0.580011 0.792841 0.114851     C
C     0.580011 0.792841 0.885151     C
C     0.580011 0.885151 0.207161     C
C     0.580011 0.885151 0.792841     C
S     0.586202 0.141302 0.250532     S
S     0.586202 0.141302 0.749472     S
S     0.586202 0.249472 0.358702     S
S     0.586202 0.249472 0.641302     S
S     0.586202 0.250532 0.141302     S
S     0.586202 0.250532 0.858702     S
S     0.586202 0.358702 0.249472     S
S     0.586202 0.358702 0.750532     S
S     0.586202 0.641302 0.249472     S
S     0.586202 0.641302 0.750532     S
S     0.586202 0.749472 0.141302     S
S     0.586202 0.749472 0.858702     S
S     0.586202 0.750532 0.358702     S
S     0.586202 0.750532 0.641302     S
S     0.586202 0.858702 0.250532     S
S     0.586202 0.858702 0.749472     S
S     0.589425 0.089425 0.185395     S
S     0.589425 0.089425 0.814615     S
S     0.589425 0.185395 0.089425     S
S     0.589425 0.185395 0.910585     S
S     0.589425 0.314615 0.410585     S
S     0.589425 0.314615 0.589425     S
S     0.589425 0.410585 0.314615     S
S     0.589425 0.410585 0.685395     S
S     0.589425 0.589425 0.314615     S
S     0.589425 0.589425 0.685395     S
S     0.589425 0.685395 0.410585     S
S     0.589425 0.685395 0.589425     S
S     0.589425 0.814615 0.089425     S
S     0.589425 0.814615 0.910585     S
S     0.589425 0.910585 0.185395     S
S     0.589425 0.910585 0.814615     S
C     0.595508 0.115638 0.229929     C
C     0.595508 0.115638 0.770089     C
C     0.595508 0.229929 0.115638     C
C     0.595508 0.229929 0.884378     C
C     0.595508 0.270089 0.384378     C
C     0.595508 0.270089 0.615638     C
C     0.595508 0.384378 0.270089     C
C     0.595508 0.384378 0.729929     C
C     0.595508 0.615638 0.270089     C
C     0.595508 0.615638 0.729929     C
C     0.595508 0.729929 0.384378     C
C     0.595508 0.729929 0.615638     C
C     0.595508 0.770089 0.115638     C
C     0.595508 0.770089 0.884378     C
C     0.595508 0.884378 0.229929     C
C     0.595508 0.884378 0.770089     C
C     0.614851 0.080011 0.207161     C
C     0.614851 0.080011 0.792841     C
C     0.614851 0.207161 0.080011     C
C     0.614851 0.207161 0.919991     C
C     0.614851 0.292841 0.419991     C
C     0.614851 0.292841 0.580011     C
C     0.614851 0.419991 0.292841     C
C     0.614851 0.419991 0.707161     C
C     0.614851 0.580011 0.292841     C
C     0.614851 0.580011 0.707161     C
C     0.614851 0.707161 0.419991     C
C     0.614851 0.707161 0.580011     C
C     0.614851 0.792841 0.080011     C
C     0.614851 0.792841 0.919991     C
C     0.614851 0.919991 0.207161     C
C     0.614851 0.919991 0.792841     C
C     0.615638 0.095508 0.229929     C
C     0.615638 0.095508 0.770089     C
C     0.615638 0.229929 0.095508     C
C     0.615638 0.229929 0.904508     C
C     0.615638 0.270089 0.404508     C
C     0.615638 0.270089 0.595508     C
C     0.615638 0.404508 0.270089     C
C     0.615638 0.404508 0.729929     C
C     0.615638 0.595508 0.270089     C
C     0.615638 0.595508 0.729929     C
C     0.615638 0.729929 0.404508     C
C     0.615638 0.729929 0.595508     C
C     0.615638 0.770089 0.095508     C
C     0.615638 0.770089 0.904508     C
C     0.615638 0.904508 0.229929     C
C     0.615638 0.904508 0.770089     C
C     0.635219 0.060469 0.206109     C
C     0.635219 0.060469 0.793909     C
C     0.635219 0.206109 0.060469     C
C     0.635219 0.206109 0.939549     C
C     0.635219 0.293909 0.439549     C
C     0.635219 0.293909 0.560469     C
C     0.635219 0.439549 0.293909     C
C     0.635219 0.439549 0.706109     C
C     0.635219 0.560469 0.293909     C
C     0.635219 0.560469 0.706109     C
C     0.635219 0.706109 0.439549     C
C     0.635219 0.706109 0.560469     C
C     0.635219 0.793909 0.060469     C
C     0.635219 0.793909 0.939549     C
C     0.635219 0.939549 0.206109     C
C     0.635219 0.939549 0.793909     C
H       0.6377   0.0486    0.192     H
H       0.6377   0.0486    0.808     H
H       0.6377    0.192   0.0486     H
H       0.6377    0.192   0.9514     H
H       0.6377    0.308   0.4514     H
H       0.6377    0.308   0.5486     H
H       0.6377   0.4514    0.308     H
H       0.6377   0.4514    0.692     H
H       0.6377   0.5486    0.308     H
H       0.6377   0.5486    0.692     H
H       0.6377    0.692   0.4514     H
H       0.6377    0.692   0.5486     H
H       0.6377    0.808   0.0486     H
H       0.6377    0.808   0.9514     H
H       0.6377   0.9514    0.192     H
H       0.6377   0.9514    0.808     H
S     0.641302 0.086202 0.250532     S
S     0.641302 0.086202 0.749472     S
S     0.641302 0.249472 0.413802     S
S     0.641302 0.249472 0.586202     S
S     0.641302 0.250532 0.086202     S
S     0.641302 0.250532 0.913802     S
S     0.641302 0.413802 0.249472     S
S     0.641302 0.413802 0.750532     S
S     0.641302 0.586202 0.249472     S
S     0.641302 0.586202 0.750532     S
S     0.641302 0.749472 0.086202     S
S     0.641302 0.749472 0.913802     S
S     0.641302 0.750532 0.413802     S
S     0.641302 0.750532 0.586202     S
S     0.641302 0.913802 0.250532     S
S     0.641302 0.913802 0.749472     S
C     0.650547 0.061197 0.228258     C
C     0.650547 0.061197 0.771758     C
C     0.650547 0.228258 0.061197     C
C     0.650547 0.228258 0.938817     C
C     0.650547 0.271758 0.438817     C
C     0.650547 0.271758 0.561197     C
C     0.650547 0.438817 0.271758     C
C     0.650547 0.438817 0.728258     C
C     0.650547 0.561197 0.271758     C
C     0.650547 0.561197 0.728258     C
C     0.650547 0.728258 0.438817     C
C     0.650547 0.728258 0.561197     C
C     0.650547 0.771758 0.061197     C
C     0.650547 0.771758 0.938817     C
C     0.650547 0.938817 0.228258     C
C     0.650547 0.938817 0.771758     C
C     0.674186 0.044536 0.234566     C
C     0.674186 0.044536 0.765446     C
C     0.674186 0.234566 0.044536     C
C     0.674186 0.234566 0.955476     C
C     0.674186 0.265446 0.455476     C
C     0.674186 0.265446 0.544536     C
C     0.674186 0.455476 0.265446     C
C     0.674186 0.455476 0.734566     C
C     0.674186 0.544536 0.265446     C
C     0.674186 0.544536 0.734566     C
C     0.674186 0.734566 0.455476     C
C     0.674186 0.734566 0.544536     C
C     0.674186 0.765446 0.044536     C
C     0.674186 0.765446 0.955476     C
C     0.674186 0.955476 0.234566     C
C     0.674186 0.955476 0.765446     C
O     0.680043 0.026793 0.217794     O
O     0.680043 0.026793 0.782214     O
O     0.680043 0.217794 0.026793     O
O     0.680043 0.217794 0.973213     O
O     0.680043 0.282214 0.473213     O
O     0.680043 0.282214 0.526793     O
O     0.680043 0.473213 0.282214     O
O     0.680043 0.473213 0.717794     O
O     0.680043 0.526793 0.282214     O
O     0.680043 0.526793 0.717794     O
O     0.680043 0.717794 0.473213     O
O     0.680043 0.717794 0.526793     O
O     0.680043 0.782214 0.026793     O
O     0.680043 0.782214 0.973213     O
O     0.680043 0.973213 0.217794     O
O     0.680043 0.973213 0.782214     O
S     0.685395 0.089425 0.089425     S
S     0.685395 0.089425 0.910585     S
S     0.685395 0.410585 0.410585     S
S     0.685395 0.410585 0.589425     S
S     0.685395 0.589425 0.410585     S
S     0.685395 0.589425 0.589425     S
S     0.685395 0.910585 0.089425     S
S     0.685395 0.910585 0.910585     S
O     0.686255 0.049685 0.256095     O
O     0.686255 0.049685 0.743915     O
O     0.686255 0.243915 0.450325     O
O     0.686255 0.243915 0.549685     O
O     0.686255 0.256095 0.049685     O
O     0.686255 0.256095 0.950325     O
O     0.686255 0.450325 0.243915     O
O     0.686255 0.450325 0.756095     O
O     0.686255 0.549685 0.243915     O
O     0.686255 0.549685 0.756095     O
O     0.686255 0.743915 0.049685     O
O     0.686255 0.743915 0.950325     O
O     0.686255 0.756095 0.450325     O
O     0.686255 0.756095 0.549685     O
O     0.686255 0.950325 0.256095     O
O     0.686255 0.950325 0.743915     O
H        0.692   0.0486   0.1377     H
H        0.692   0.0486   0.8623     H
H        0.692   0.1377   0.0486     H
H        0.692   0.1377   0.9514     H
H        0.692   0.3623   0.4514     H
H        0.692   0.3623   0.5486     H
H        0.692   0.4514   0.3623     H
H        0.692   0.4514   0.6377     H
H        0.692   0.5486   0.3623     H
H        0.692   0.5486   0.6377     H
H        0.692   0.6377   0.4514     H
H        0.692   0.6377   0.5486     H
H        0.692   0.8623   0.0486     H
H        0.692   0.8623   0.9514     H
H        0.692   0.9514   0.1377     H
H        0.692   0.9514   0.8623     H
O     0.694275 0.0335311 0.305735     O
O     0.694275 0.0335311 0.694275     O
O     0.694275 0.194275 0.4664711     O
O     0.694275 0.194275 0.5335311     O
O     0.694275 0.305735 0.0335311     O
O     0.694275 0.305735 0.9664711     O
O     0.694275 0.4664711 0.194275     O
O     0.694275 0.4664711 0.805735     O
O     0.694275 0.5335311 0.194275     O
O     0.694275 0.5335311 0.805735     O
O     0.694275 0.694275 0.0335311     O
O     0.694275 0.694275 0.9664711     O
O     0.694275 0.805735 0.4664711     O
O     0.694275 0.805735 0.5335311     O
O     0.694275 0.9664711 0.305735     O
O     0.694275 0.9664711 0.694275     O
C     0.706109 0.060469 0.135219     C
C     0.706109 0.060469 0.864799     C
C     0.706109 0.135219 0.060469     C
C     0.706109 0.135219 0.939549     C
C     0.706109 0.364799 0.439549     C
C     0.706109 0.364799 0.560469     C
C     0.706109 0.439549 0.364799     C
C     0.706109 0.439549 0.635219     C
C     0.706109 0.560469 0.364799     C
C     0.706109 0.560469 0.635219     C
C     0.706109 0.635219 0.439549     C
C     0.706109 0.635219 0.560469     C
C     0.706109 0.864799 0.060469     C
C     0.706109 0.864799 0.939549     C
C     0.706109 0.939549 0.135219     C
C     0.706109 0.939549 0.864799     C
C     0.707161 0.080011 0.114851     C
C     0.707161 0.080011 0.885151     C
C     0.707161 0.114851 0.080011     C
C     0.707161 0.114851 0.919991     C
C     0.707161 0.385151 0.419991     C
C     0.707161 0.385151 0.580011     C
C     0.707161 0.419991 0.385151     C
C     0.707161 0.419991 0.614851     C
C     0.707161 0.580011 0.385151     C
C     0.707161 0.580011 0.614851     C
C     0.707161 0.614851 0.419991     C
C     0.707161 0.614851 0.580011     C
C     0.707161 0.885151 0.080011     C
C     0.707161 0.885151 0.919991     C
C     0.707161 0.919991 0.114851     C
C     0.707161 0.919991 0.885151     C
O     0.707949      0.0 0.257896     O
O     0.707949      0.0 0.742116     O
O     0.707949 0.242116      0.5     O
O     0.707949 0.257896      0.0     O
O     0.707949      0.5 0.242116     O
O     0.707949      0.5 0.757896     O
O     0.707949 0.742116      0.0     O
O     0.707949 0.757896      0.5     O
Zr    0.7151305      0.0 0.2151305    Zr
Zr    0.7151305      0.0 0.7848705    Zr
Zr    0.7151305 0.2151305      0.0    Zr
Zr    0.7151305 0.2848705      0.5    Zr
Zr    0.7151305      0.5 0.2848705    Zr
Zr    0.7151305      0.5 0.7151305    Zr
Zr    0.7151305 0.7151305      0.5    Zr
Zr    0.7151305 0.7848705      0.0    Zr
O     0.717794 0.026793 0.180043     O
O     0.717794 0.026793 0.819963     O
O     0.717794 0.180043 0.026793     O
O     0.717794 0.180043 0.973213     O
O     0.717794 0.319963 0.473213     O
O     0.717794 0.319963 0.526793     O
O     0.717794 0.473213 0.319963     O
O     0.717794 0.473213 0.680043     O
O     0.717794 0.526793 0.319963     O
O     0.717794 0.526793 0.680043     O
O     0.717794 0.680043 0.473213     O
O     0.717794 0.680043 0.526793     O
O     0.717794 0.819963 0.026793     O
O     0.717794 0.819963 0.973213     O
O     0.717794 0.973213 0.180043     O
O     0.717794 0.973213 0.819963     O
Zr    0.7250274 0.0353996 0.2749734    Zr
Zr    0.7250274 0.0353996 0.7250274    Zr
Zr    0.7250274 0.2250274 0.4646016    Zr
Zr    0.7250274 0.2250274 0.5353996    Zr
Zr    0.7250274 0.2749734 0.0353996    Zr
Zr    0.7250274 0.2749734 0.9646016    Zr
Zr    0.7250274 0.4646016 0.2250274    Zr
Zr    0.7250274 0.4646016 0.7749734    Zr
Zr    0.7250274 0.5353996 0.2250274    Zr
Zr    0.7250274 0.5353996 0.7749734    Zr
Zr    0.7250274 0.7250274 0.0353996    Zr
Zr    0.7250274 0.7250274 0.9646016    Zr
Zr    0.7250274 0.7749734 0.4646016    Zr
Zr    0.7250274 0.7749734 0.5353996    Zr
Zr    0.7250274 0.9646016 0.2749734    Zr
Zr    0.7250274 0.9646016 0.7250274    Zr
O     0.727137 0.078786 0.272877     O
O     0.727137 0.078786 0.727137     O
O     0.727137 0.227137 0.421226     O
O     0.727137 0.227137 0.578786     O
O     0.727137 0.272877 0.078786     O
O     0.727137 0.272877 0.921226     O
O     0.727137 0.421226 0.227137     O
O     0.727137 0.421226 0.772877     O
O     0.727137 0.578786 0.227137     O
O     0.727137 0.578786 0.772877     O
O     0.727137 0.727137 0.078786     O
O     0.727137 0.727137 0.921226     O
O     0.727137 0.772877 0.421226     O
O     0.727137 0.772877 0.578786     O
O     0.727137 0.921226 0.272877     O
O     0.727137 0.921226 0.727137     O
C     0.728258 0.061197 0.150547     C
C     0.728258 0.061197 0.849467     C
C     0.728258 0.150547 0.061197     C
C     0.728258 0.150547 0.938817     C
C     0.728258 0.349467 0.438817     C
C     0.728258 0.349467 0.561197     C
C     0.728258 0.438817 0.349467     C
C     0.728258 0.438817 0.650547     C
C     0.728258 0.561197 0.349467     C
C     0.728258 0.561197 0.650547     C
C     0.728258 0.650547 0.438817     C
C     0.728258 0.650547 0.561197     C
C     0.728258 0.849467 0.061197     C
C     0.728258 0.849467 0.938817     C
C     0.728258 0.938817 0.150547     C
C     0.728258 0.938817 0.849467     C
C     0.729929 0.095508 0.115638     C
C     0.729929 0.095508 0.884378     C
C     0.729929 0.115638 0.095508     C
C     0.729929 0.115638 0.904508     C
C     0.729929 0.384378 0.404508     C
C     0.729929 0.384378 0.595508     C
C     0.729929 0.404508 0.384378     C
C     0.729929 0.404508 0.615638     C
C     0.729929 0.595508 0.384378     C
C     0.729929 0.595508 0.615638     C
C     0.729929 0.615638 0.404508     C
C     0.729929 0.615638 0.595508     C
C     0.729929 0.884378 0.095508     C
C     0.729929 0.884378 0.904508     C
C     0.729929 0.904508 0.115638     C
C     0.729929 0.904508 0.884378     C
O     0.733145 0.034919 0.233145     O
O     0.733145 0.034919 0.766865     O
O     0.733145 0.233145 0.034919     O
O     0.733145 0.233145 0.965099     O
O     0.733145 0.266865 0.465099     O
O     0.733145 0.266865 0.534919     O
O     0.733145 0.465099 0.266865     O
O     0.733145 0.465099 0.733145     O
O     0.733145 0.534919 0.266865     O
O     0.733145 0.534919 0.733145     O
O     0.733145 0.733145 0.465099     O
O     0.733145 0.733145 0.534919     O
O     0.733145 0.766865 0.034919     O
O     0.733145 0.766865 0.965099     O
O     0.733145 0.965099 0.233145     O
O     0.733145 0.965099 0.766865     O
C     0.734566 0.044536 0.174186     C
C     0.734566 0.044536 0.825826     C
C     0.734566 0.174186 0.044536     C
C     0.734566 0.174186 0.955476     C
C     0.734566 0.325826 0.455476     C
C     0.734566 0.325826 0.544536     C
C     0.734566 0.455476 0.325826     C
C     0.734566 0.455476 0.674186     C
C     0.734566 0.544536 0.325826     C
C     0.734566 0.544536 0.674186     C
C     0.734566 0.674186 0.455476     C
C     0.734566 0.674186 0.544536     C
C     0.734566 0.825826 0.044536     C
C     0.734566 0.825826 0.955476     C
C     0.734566 0.955476 0.174186     C
C     0.734566 0.955476 0.825826     C
O     0.742116      0.0 0.292069     O
O     0.742116      0.0 0.707949     O
O     0.742116 0.207949      0.5     O
O     0.742116 0.292069      0.0     O
O     0.742116      0.5 0.207949     O
O     0.742116      0.5 0.792069     O
O     0.742116 0.707949      0.0     O
O     0.742116 0.792069      0.5     O
O     0.743915 0.049685 0.313755     O
O     0.743915 0.049685 0.686255     O
O     0.743915 0.186255 0.450325     O
O     0.743915 0.186255 0.549685     O
O     0.743915 0.313755 0.049685     O
O     0.743915 0.313755 0.950325     O
O     0.743915 0.450325 0.186255     O
O     0.743915 0.450325 0.813755     O
O     0.743915 0.549685 0.186255     O
O     0.743915 0.549685 0.813755     O
O     0.743915 0.686255 0.049685     O
O     0.743915 0.686255 0.950325     O
O     0.743915 0.813755 0.450325     O
O     0.743915 0.813755 0.549685     O
O     0.743915 0.950325 0.313755     O
O     0.743915 0.950325 0.686255     O
S     0.749472 0.086202 0.358702     S
S     0.749472 0.086202 0.641302     S
S     0.749472 0.141302 0.413802     S
S     0.749472 0.141302 0.586202     S
S     0.749472 0.358702 0.086202     S
S     0.749472 0.358702 0.913802     S
S     0.749472 0.413802 0.141302     S
S     0.749472 0.413802 0.858702     S
S     0.749472 0.586202 0.141302     S
S     0.749472 0.586202 0.858702     S
S     0.749472 0.641302 0.086202     S
S     0.749472 0.641302 0.913802     S
S     0.749472 0.858702 0.413802     S
S     0.749472 0.858702 0.586202     S
S     0.749472 0.913802 0.358702     S
S     0.749472 0.913802 0.641302     S
S     0.750532 0.086202 0.141302     S
S     0.750532 0.086202 0.858702     S
S     0.750532 0.141302 0.086202     S
S     0.750532 0.141302 0.913802     S
S     0.750532 0.358702 0.413802     S
S     0.750532 0.358702 0.586202     S
S     0.750532 0.413802 0.358702     S
S     0.750532 0.413802 0.641302     S
S     0.750532 0.586202 0.358702     S
S     0.750532 0.586202 0.641302     S
S     0.750532 0.641302 0.413802     S
S     0.750532 0.641302 0.586202     S
S     0.750532 0.858702 0.086202     S
S     0.750532 0.858702 0.913802     S
S     0.750532 0.913802 0.141302     S
S     0.750532 0.913802 0.858702     S
O     0.756095 0.049685 0.186255     O
O     0.756095 0.049685 0.813755     O
O     0.756095 0.186255 0.049685     O
O     0.756095 0.186255 0.950325     O
O     0.756095 0.313755 0.450325     O
O     0.756095 0.313755 0.549685     O
O     0.756095 0.450325 0.313755     O
O     0.756095 0.450325 0.686255     O
O     0.756095 0.549685 0.313755     O
O     0.756095 0.549685 0.686255     O
O     0.756095 0.686255 0.450325     O
O     0.756095 0.686255 0.549685     O
O     0.756095 0.813755 0.049685     O
O     0.756095 0.813755 0.950325     O
O     0.756095 0.950325 0.186255     O
O     0.756095 0.950325 0.813755     O
O     0.757896      0.0 0.207949     O
O     0.757896      0.0 0.792069     O
O     0.757896 0.207949      0.0     O
O     0.757896 0.292069      0.5     O
O     0.757896      0.5 0.292069     O
O     0.757896      0.5 0.707949     O
O     0.757896 0.707949      0.5     O
O     0.757896 0.792069      0.0     O
C     0.765446 0.044536 0.325826     C
C     0.765446 0.044536 0.674186     C
C     0.765446 0.174186 0.455476     C
C     0.765446 0.174186 0.544536     C
C     0.765446 0.325826 0.044536     C
C     0.765446 0.325826 0.955476     C
C     0.765446 0.455476 0.174186     C
C     0.765446 0.455476 0.825826     C
C     0.765446 0.544536 0.174186     C
C     0.765446 0.544536 0.825826     C
C     0.765446 0.674186 0.044536     C
C     0.765446 0.674186 0.955476     C
C     0.765446 0.825826 0.455476     C
C     0.765446 0.825826 0.544536     C
C     0.765446 0.955476 0.325826     C
C     0.765446 0.955476 0.674186     C
O     0.766865 0.034919 0.266865     O
O     0.766865 0.034919 0.733145     O
O     0.766865 0.233145 0.465099     O
O     0.766865 0.233145 0.534919     O
O     0.766865 0.266865 0.034919     O
O     0.766865 0.266865 0.965099     O
O     0.766865 0.465099 0.233145     O
O     0.766865 0.465099 0.766865     O
O     0.766865 0.534919 0.233145     O
O     0.766865 0.534919 0.766865     O
O     0.766865 0.733145 0.034919     O
O     0.766865 0.733145 0.965099     O
O     0.766865 0.766865 0.465099     O
O     0.766865 0.766865 0.534919     O
O     0.766865 0.965099 0.266865     O
O     0.766865 0.965099 0.733145     O
C     0.770089 0.095508 0.384378     C
C     0.770089 0.095508 0.615638     C
C     0.770089 0.115638 0.404508     C
C     0.770089 0.115638 0.595508     C
C     0.770089 0.384378 0.095508     C
C     0.770089 0.384378 0.904508     C
C     0.770089 0.404508 0.115638     C
C     0.770089 0.404508 0.884378     C
C     0.770089 0.595508 0.115638     C
C     0.770089 0.595508 0.884378     C
C     0.770089 0.615638 0.095508     C
C     0.770089 0.615638 0.904508     C
C     0.770089 0.884378 0.404508     C
C     0.770089 0.884378 0.595508     C
C     0.770089 0.904508 0.384378     C
C     0.770089 0.904508 0.615638     C
C     0.771758 0.061197 0.349467     C
C     0.771758 0.061197 0.650547     C
C     0.771758 0.150547 0.438817     C
C     0.771758 0.150547 0.561197     C
C     0.771758 0.349467 0.061197     C
C     0.771758 0.349467 0.938817     C
C     0.771758 0.438817 0.150547     C
C     0.771758 0.438817 0.849467     C
C     0.771758 0.561197 0.150547     C
C     0.771758 0.561197 0.849467     C
C     0.771758 0.650547 0.061197     C
C     0.771758 0.650547 0.938817     C
C     0.771758 0.849467 0.438817     C
C     0.771758 0.849467 0.561197     C
C     0.771758 0.938817 0.349467     C
C     0.771758 0.938817 0.650547     C
O     0.772877 0.078786 0.227137     O
O     0.772877 0.078786 0.772877     O
O     0.772877 0.227137 0.078786     O
O     0.772877 0.227137 0.921226     O
O     0.772877 0.272877 0.421226     O
O     0.772877 0.272877 0.578786     O
O     0.772877 0.421226 0.272877     O
O     0.772877 0.421226 0.727137     O
O     0.772877 0.578786 0.272877     O
O     0.772877 0.578786 0.727137     O
O     0.772877 0.727137 0.421226     O
O     0.772877 0.727137 0.578786     O
O     0.772877 0.772877 0.078786     O
O     0.772877 0.772877 0.921226     O
O     0.772877 0.921226 0.227137     O
O     0.772877 0.921226 0.772877     O
Zr    0.7749734 0.0353996 0.2250274    Zr
Zr    0.7749734 0.0353996 0.7749734    Zr
Zr    0.7749734 0.2250274 0.0353996    Zr
Zr    0.7749734 0.2250274 0.9646016    Zr
Zr    0.7749734 0.2749734 0.4646016    Zr
Zr    0.7749734 0.2749734 0.5353996    Zr
Zr    0.7749734 0.4646016 0.2749734    Zr
Zr    0.7749734 0.4646016 0.7250274    Zr
Zr    0.7749734 0.5353996 0.2749734    Zr
Zr    0.7749734 0.5353996 0.7250274    Zr
Zr    0.7749734 0.7250274 0.4646016    Zr
Zr    0.7749734 0.7250274 0.5353996    Zr
Zr    0.7749734 0.7749734 0.0353996    Zr
Zr    0.7749734 0.7749734 0.9646016    Zr
Zr    0.7749734 0.9646016 0.2250274    Zr
Zr    0.7749734 0.9646016 0.7749734    Zr
O     0.782214 0.026793 0.319963     O
O     0.782214 0.026793 0.680043     O
O     0.782214 0.180043 0.473213     O
O     0.782214 0.180043 0.526793     O
O     0.782214 0.319963 0.026793     O
O     0.782214 0.319963 0.973213     O
O     0.782214 0.473213 0.180043     O
O     0.782214 0.473213 0.819963     O
O     0.782214 0.526793 0.180043     O
O     0.782214 0.526793 0.819963     O
O     0.782214 0.680043 0.026793     O
O     0.782214 0.680043 0.973213     O
O     0.782214 0.819963 0.473213     O
O     0.782214 0.819963 0.526793     O
O     0.782214 0.973213 0.319963     O
O     0.782214 0.973213 0.680043     O
Zr    0.7848705      0.0 0.2848705    Zr
Zr    0.7848705      0.0 0.7151305    Zr
Zr    0.7848705 0.2151305      0.5    Zr
Zr    0.7848705 0.2848705      0.0    Zr
Zr    0.7848705      0.5 0.2151305    Zr
Zr    0.7848705      0.5 0.7848705    Zr
Zr    0.7848705 0.7151305      0.0    Zr
Zr    0.7848705 0.7848705      0.5    Zr
O     0.792069      0.0 0.242116     O
O     0.792069      0.0 0.757896     O
O     0.792069 0.242116      0.0     O
O     0.792069 0.257896      0.5     O
O     0.792069      0.5 0.257896     O
O     0.792069      0.5 0.742116     O
O     0.792069 0.742116      0.5     O
O     0.792069 0.757896      0.0     O
C     0.792841 0.080011 0.385151     C
C     0.792841 0.080011 0.614851     C
C     0.792841 0.114851 0.419991     C
C     0.792841 0.114851 0.580011     C
C     0.792841 0.385151 0.080011     C
C     0.792841 0.385151 0.919991     C
C     0.792841 0.419991 0.114851     C
C     0.792841 0.419991 0.885151     C
C     0.792841 0.580011 0.114851     C
C     0.792841 0.580011 0.885151     C
C     0.792841 0.614851 0.080011     C
C     0.792841 0.614851 0.919991     C
C     0.792841 0.885151 0.419991     C
C     0.792841 0.885151 0.580011     C
C     0.792841 0.919991 0.385151     C
C     0.792841 0.919991 0.614851     C
C     0.793909 0.060469 0.364799     C
C     0.793909 0.060469 0.635219     C
C     0.793909 0.135219 0.439549     C
C     0.793909 0.135219 0.560469     C
C     0.793909 0.364799 0.060469     C
C     0.793909 0.364799 0.939549     C
C     0.793909 0.439549 0.135219     C
C     0.793909 0.439549 0.864799     C
C     0.793909 0.560469 0.135219     C
C     0.793909 0.560469 0.864799     C
C     0.793909 0.635219 0.060469     C
C     0.793909 0.635219 0.939549     C
C     0.793909 0.864799 0.439549     C
C     0.793909 0.864799 0.560469     C
C     0.793909 0.939549 0.364799     C
C     0.793909 0.939549 0.635219     C
O     0.805735 0.0335311 0.194275     O
O     0.805735 0.0335311 0.805735     O
O     0.805735 0.194275 0.0335311     O
O     0.805735 0.194275 0.9664711     O
O     0.805735 0.305735 0.4664711     O
O     0.805735 0.305735 0.5335311     O
O     0.805735 0.4664711 0.305735     O
O     0.805735 0.4664711 0.694275     O
O     0.805735 0.5335311 0.305735     O
O     0.805735 0.5335311 0.694275     O
O     0.805735 0.694275 0.4664711     O
O     0.805735 0.694275 0.5335311     O
O     0.805735 0.805735 0.0335311     O
O     0.805735 0.805735 0.9664711     O
O     0.805735 0.9664711 0.194275     O
O     0.805735 0.9664711 0.805735     O
H        0.808   0.0486   0.3623     H
H        0.808   0.0486   0.6377     H
H        0.808   0.1377   0.4514     H
H        0.808   0.1377   0.5486     H
H        0.808   0.3623   0.0486     H
H        0.808   0.3623   0.9514     H
H        0.808   0.4514   0.1377     H
H        0.808   0.4514   0.8623     H
H        0.808   0.5486   0.1377     H
H        0.808   0.5486   0.8623     H
H        0.808   0.6377   0.0486     H
H        0.808   0.6377   0.9514     H
H        0.808   0.8623   0.4514     H
H        0.808   0.8623   0.5486     H
H        0.808   0.9514   0.3623     H
H        0.808   0.9514   0.6377     H
O     0.813755 0.049685 0.243915     O
O     0.813755 0.049685 0.756095     O
O     0.813755 0.243915 0.049685     O
O     0.813755 0.243915 0.950325     O
O     0.813755 0.256095 0.450325     O
O     0.813755 0.256095 0.549685     O
O     0.813755 0.450325 0.256095     O
O     0.813755 0.450325 0.743915     O
O     0.813755 0.549685 0.256095     O
O     0.813755 0.549685 0.743915     O
O     0.813755 0.743915 0.450325     O
O     0.813755 0.743915 0.549685     O
O     0.813755 0.756095 0.049685     O
O     0.813755 0.756095 0.950325     O
O     0.813755 0.950325 0.243915     O
O     0.813755 0.950325 0.756095     O
S     0.814615 0.089425 0.410585     S
S     0.814615 0.089425 0.589425     S
S     0.814615 0.410585 0.089425     S
S     0.814615 0.410585 0.910585     S
S     0.814615 0.589425 0.089425     S
S     0.814615 0.589425 0.910585     S
S     0.814615 0.910585 0.410585     S
S     0.814615 0.910585 0.589425     S
O     0.819963 0.026793 0.282214     O
O     0.819963 0.026793 0.717794     O
O     0.819963 0.217794 0.473213     O
O     0.819963 0.217794 0.526793     O
O     0.819963 0.282214 0.026793     O
O     0.819963 0.282214 0.973213     O
O     0.819963 0.473213 0.217794     O
O     0.819963 0.473213 0.782214     O
O     0.819963 0.526793 0.217794     O
O     0.819963 0.526793 0.782214     O
O     0.819963 0.717794 0.026793     O
O     0.819963 0.717794 0.973213     O
O     0.819963 0.782214 0.473213     O
O     0.819963 0.782214 0.526793     O
O     0.819963 0.973213 0.282214     O
O     0.819963 0.973213 0.717794     O
C     0.825826 0.044536 0.265446     C
C     0.825826 0.044536 0.734566     C
C     0.825826 0.234566 0.455476     C
C     0.825826 0.234566 0.544536     C
C     0.825826 0.265446 0.044536     C
C     0.825826 0.265446 0.955476     C
C     0.825826 0.455476 0.234566     C
C     0.825826 0.455476 0.765446     C
C     0.825826 0.544536 0.234566     C
C     0.825826 0.544536 0.765446     C
C     0.825826 0.734566 0.044536     C
C     0.825826 0.734566 0.955476     C
C     0.825826 0.765446 0.455476     C
C     0.825826 0.765446 0.544536     C
C     0.825826 0.955476 0.265446     C
C     0.825826 0.955476 0.734566     C
C     0.849467 0.061197 0.271758     C
C     0.849467 0.061197 0.728258     C
C     0.849467 0.228258 0.438817     C
C     0.849467 0.228258 0.561197     C
C     0.849467 0.271758 0.061197     C
C     0.849467 0.271758 0.938817     C
C     0.849467 0.438817 0.228258     C
C     0.849467 0.438817 0.771758     C
C     0.849467 0.561197 0.228258     C
C     0.849467 0.561197 0.771758     C
C     0.849467 0.728258 0.061197     C
C     0.849467 0.728258 0.938817     C
C     0.849467 0.771758 0.438817     C
C     0.849467 0.771758 0.561197     C
C     0.849467 0.938817 0.271758     C
C     0.849467 0.938817 0.728258     C
S     0.858702 0.086202 0.249472     S
S     0.858702 0.086202 0.750532     S
S     0.858702 0.249472 0.086202     S
S     0.858702 0.249472 0.913802     S
S     0.858702 0.250532 0.413802     S
S     0.858702 0.250532 0.586202     S
S     0.858702 0.413802 0.250532     S
S     0.858702 0.413802 0.749472     S
S     0.858702 0.586202 0.250532     S
S     0.858702 0.586202 0.749472     S
S     0.858702 0.749472 0.413802     S
S     0.858702 0.749472 0.586202     S
S     0.858702 0.750532 0.086202     S
S     0.858702 0.750532 0.913802     S
S     0.858702 0.913802 0.249472     S
S     0.858702 0.913802 0.750532     S
H       0.8623   0.0486    0.308     H
H       0.8623   0.0486    0.692     H
H       0.8623    0.192   0.4514     H
H       0.8623    0.192   0.5486     H
H       0.8623    0.308   0.0486     H
H       0.8623    0.308   0.9514     H
H       0.8623   0.4514    0.192     H
H       0.8623   0.4514    0.808     H
H       0.8623   0.5486    0.192     H
H       0.8623   0.5486    0.808     H
H       0.8623    0.692   0.0486     H
H       0.8623    0.692   0.9514     H
H       0.8623    0.808   0.4514     H
H       0.8623    0.808   0.5486     H
H       0.8623   0.9514    0.308     H
H       0.8623   0.9514    0.692     H
C     0.864799 0.060469 0.293909     C
C     0.864799 0.060469 0.706109     C
C     0.864799 0.206109 0.439549     C
C     0.864799 0.206109 0.560469     C
C     0.864799 0.293909 0.060469     C
C     0.864799 0.293909 0.939549     C
C     0.864799 0.439549 0.206109     C
C     0.864799 0.439549 0.793909     C
C     0.864799 0.560469 0.206109     C
C     0.864799 0.560469 0.793909     C
C     0.864799 0.706109 0.060469     C
C     0.864799 0.706109 0.939549     C
C     0.864799 0.793909 0.439549     C
C     0.864799 0.793909 0.560469     C
C     0.864799 0.939549 0.293909     C
C     0.864799 0.939549 0.706109     C
C     0.884378 0.095508 0.270089     C
C     0.884378 0.095508 0.729929     C
C     0.884378 0.229929 0.404508     C
C     0.884378 0.229929 0.595508     C
C     0.884378 0.270089 0.095508     C
C     0.884378 0.270089 0.904508     C
C     0.884378 0.404508 0.229929     C
C     0.884378 0.404508 0.770089     C
C     0.884378 0.595508 0.229929     C
C     0.884378 0.595508 0.770089     C
C     0.884378 0.729929 0.095508     C
C     0.884378 0.729929 0.904508     C
C     0.884378 0.770089 0.404508     C
C     0.884378 0.770089 0.595508     C
C     0.884378 0.904508 0.270089     C
C     0.884378 0.904508 0.729929     C
C     0.885151 0.080011 0.292841     C
C     0.885151 0.080011 0.707161     C
C     0.885151 0.207161 0.419991     C
C     0.885151 0.207161 0.580011     C
C     0.885151 0.292841 0.080011     C
C     0.885151 0.292841 0.919991     C
C     0.885151 0.419991 0.207161     C
C     0.885151 0.419991 0.792841     C
C     0.885151 0.580011 0.207161     C
C     0.885151 0.580011 0.792841     C
C     0.885151 0.707161 0.080011     C
C     0.885151 0.707161 0.919991     C
C     0.885151 0.792841 0.419991     C
C     0.885151 0.792841 0.580011     C
C     0.885151 0.919991 0.292841     C
C     0.885151 0.919991 0.707161     C
C     0.904508 0.115638 0.270089     C
C     0.904508 0.115638 0.729929     C
C     0.904508 0.229929 0.384378     C
C     0.904508 0.229929 0.615638     C
C     0.904508 0.270089 0.115638     C
C     0.904508 0.270089 0.884378     C
C     0.904508 0.384378 0.229929     C
C     0.904508 0.384378 0.770089     C
C     0.904508 0.615638 0.229929     C
C     0.904508 0.615638 0.770089     C
C     0.904508 0.729929 0.115638     C
C     0.904508 0.729929 0.884378     C
C     0.904508 0.770089 0.384378     C
C     0.904508 0.770089 0.615638     C
C     0.904508 0.884378 0.270089     C
C     0.904508 0.884378 0.729929     C
S     0.910585 0.089425 0.314615     S
S     0.910585 0.089425 0.685395     S
S     0.910585 0.185395 0.410585     S
S     0.910585 0.185395 0.589425     S
S     0.910585 0.314615 0.089425     S
S     0.910585 0.314615 0.910585     S
S     0.910585 0.410585 0.185395     S
S     0.910585 0.410585 0.814615     S
S     0.910585 0.589425 0.185395     S
S     0.910585 0.589425 0.814615     S
S     0.910585 0.685395 0.089425     S
S     0.910585 0.685395 0.910585     S
S     0.910585 0.814615 0.410585     S
S     0.910585 0.814615 0.589425     S
S     0.910585 0.910585 0.314615     S
S     0.910585 0.910585 0.685395     S
S     0.913802 0.141302 0.249472     S
S     0.913802 0.141302 0.750532     S
S     0.913802 0.249472 0.141302     S
S     0.913802 0.249472 0.858702     S
S     0.913802 0.250532 0.358702     S
S     0.913802 0.250532 0.641302     S
S     0.913802 0.358702 0.250532     S
S     0.913802 0.358702 0.749472     S
S     0.913802 0.641302 0.250532     S
S     0.913802 0.641302 0.749472     S
S     0.913802 0.749472 0.358702     S
S     0.913802 0.749472 0.641302     S
S     0.913802 0.750532 0.141302     S
S     0.913802 0.750532 0.858702     S
S     0.913802 0.858702 0.249472     S
S     0.913802 0.858702 0.750532     S
C     0.919991 0.114851 0.292841     C
C     0.919991 0.114851 0.707161     C
C     0.919991 0.207161 0.385151     C
C     0.919991 0.207161 0.614851     C
C     0.919991 0.292841 0.114851     C
C     0.919991 0.292841 0.885151     C
C     0.919991 0.385151 0.207161     C
C     0.919991 0.385151 0.792841     C
C     0.919991 0.614851 0.207161     C
C     0.919991 0.614851 0.792841     C
C     0.919991 0.707161 0.114851     C
C     0.919991 0.707161 0.885151     C
C     0.919991 0.792841 0.385151     C
C     0.919991 0.792841 0.614851     C
C     0.919991 0.885151 0.292841     C
C     0.919991 0.885151 0.707161     C
O     0.921226 0.227137 0.227137     O
O     0.921226 0.227137 0.772877     O
O     0.921226 0.272877 0.272877     O
O     0.921226 0.272877 0.727137     O
O     0.921226 0.727137 0.272877     O
O     0.921226 0.727137 0.727137     O
O     0.921226 0.772877 0.227137     O
O     0.921226 0.772877 0.772877     O
C     0.938817 0.150547 0.271758     C
C     0.938817 0.150547 0.728258     C
C     0.938817 0.228258 0.349467     C
C     0.938817 0.228258 0.650547     C
C     0.938817 0.271758 0.150547     C
C     0.938817 0.271758 0.849467     C
C     0.938817 0.349467 0.228258     C
C     0.938817 0.349467 0.771758     C
C     0.938817 0.650547 0.228258     C
C     0.938817 0.650547 0.771758     C
C     0.938817 0.728258 0.150547     C
C     0.938817 0.728258 0.849467     C
C     0.938817 0.771758 0.349467     C
C     0.938817 0.771758 0.650547     C
C     0.938817 0.849467 0.271758     C
C     0.938817 0.849467 0.728258     C
C     0.939549 0.135219 0.293909     C
C     0.939549 0.135219 0.706109     C
C     0.939549 0.206109 0.364799     C
C     0.939549 0.206109 0.635219     C
C     0.939549 0.293909 0.135219     C
C     0.939549 0.293909 0.864799     C
C     0.939549 0.364799 0.206109     C
C     0.939549 0.364799 0.793909     C
C     0.939549 0.635219 0.206109     C
C     0.939549 0.635219 0.793909     C
C     0.939549 0.706109 0.135219     C
C     0.939549 0.706109 0.864799     C
C     0.939549 0.793909 0.364799     C
C     0.939549 0.793909 0.635219     C
C     0.939549 0.864799 0.293909     C
C     0.939549 0.864799 0.706109     C
O     0.950325 0.186255 0.243915     O
O     0.950325 0.186255 0.756095     O
O     0.950325 0.243915 0.186255     O
O     0.950325 0.243915 0.813755     O
O     0.950325 0.256095 0.313755     O
O     0.950325 0.256095 0.686255     O
O     0.950325 0.313755 0.256095     O
O     0.950325 0.313755 0.743915     O
O     0.950325 0.686255 0.256095     O
O     0.950325 0.686255 0.743915     O
O     0.950325 0.743915 0.313755     O
O     0.950325 0.743915 0.686255     O
O     0.950325 0.756095 0.186255     O
O     0.950325 0.756095 0.813755     O
O     0.950325 0.813755 0.243915     O
O     0.950325 0.813755 0.756095     O
H       0.9514   0.1377    0.308     H
H       0.9514   0.1377    0.692     H
H       0.9514    0.192   0.3623     H
H       0.9514    0.192   0.6377     H
H       0.9514    0.308   0.1377     H
H       0.9514    0.308   0.8623     H
H       0.9514   0.3623    0.192     H
H       0.9514   0.3623    0.808     H
H       0.9514   0.6377    0.192     H
H       0.9514   0.6377    0.808     H
H       0.9514    0.692   0.1377     H
H       0.9514    0.692   0.8623     H
H       0.9514    0.808   0.3623     H
H       0.9514    0.808   0.6377     H
H       0.9514   0.8623    0.308     H
H       0.9514   0.8623    0.692     H
C     0.955476 0.174186 0.265446     C
C     0.955476 0.174186 0.734566     C
C     0.955476 0.234566 0.325826     C
C     0.955476 0.234566 0.674186     C
C     0.955476 0.265446 0.174186     C
C     0.955476 0.265446 0.825826     C
C     0.955476 0.325826 0.234566     C
C     0.955476 0.325826 0.765446     C
C     0.955476 0.674186 0.234566     C
C     0.955476 0.674186 0.765446     C
C     0.955476 0.734566 0.174186     C
C     0.955476 0.734566 0.825826     C
C     0.955476 0.765446 0.325826     C
C     0.955476 0.765446 0.674186     C
C     0.955476 0.825826 0.265446     C
C     0.955476 0.825826 0.734566     C
Zr    0.9646016 0.2250274 0.2250274    Zr
Zr    0.9646016 0.2250274 0.7749734    Zr
Zr    0.9646016 0.2749734 0.2749734    Zr
Zr    0.9646016 0.2749734 0.7250274    Zr
Zr    0.9646016 0.7250274 0.2749734    Zr
Zr    0.9646016 0.7250274 0.7250274    Zr
Zr    0.9646016 0.7749734 0.2250274    Zr
Zr    0.9646016 0.7749734 0.7749734    Zr
O     0.965099 0.233145 0.266865     O
O     0.965099 0.233145 0.733145     O
O     0.965099 0.266865 0.233145     O
O     0.965099 0.266865 0.766865     O
O     0.965099 0.733145 0.233145     O
O     0.965099 0.733145 0.766865     O
O     0.965099 0.766865 0.266865     O
O     0.965099 0.766865 0.733145     O
O     0.9664711 0.194275 0.194275     O
O     0.9664711 0.194275 0.805735     O
O     0.9664711 0.305735 0.305735     O
O     0.9664711 0.305735 0.694275     O
O     0.9664711 0.694275 0.305735     O
O     0.9664711 0.694275 0.694275     O
O     0.9664711 0.805735 0.194275     O
O     0.9664711 0.805735 0.805735     O
O     0.973213 0.180043 0.282214     O
O     0.973213 0.180043 0.717794     O
O     0.973213 0.217794 0.319963     O
O     0.973213 0.217794 0.680043     O
O     0.973213 0.282214 0.180043     O
O     0.973213 0.282214 0.819963     O
O     0.973213 0.319963 0.217794     O
O     0.973213 0.319963 0.782214     O
O     0.973213 0.680043 0.217794     O
O     0.973213 0.680043 0.782214     O
O     0.973213 0.717794 0.180043     O
O     0.973213 0.717794 0.819963     O
O     0.973213 0.782214 0.319963     O
O     0.973213 0.782214 0.680043     O
O     0.973213 0.819963 0.282214     O
O     0.973213 0.819963 0.717794     O
