data_I
_chemical_name_common  '/Users/gianmarcoterrones/Downloads/dut-68-zr'
_cell_length_a 53.68060
_cell_length_b 53.68060
_cell_length_c 53.68060
_cell_angle_alpha 90.00000
_cell_angle_beta  90.00000
_cell_angle_gamma 90.00000
_space_group_name_H-M_alt      'P 1'


loop_
_space_group_symop_operation_xyz
  'x, y, z' 

loop_
_atom_site_label
_atom_site_fract_x
_atom_site_fract_y
_atom_site_fract_z
_atom_site_type_symbol
S          0.0 0.116765 0.308155     S
S          0.0 0.116765 0.691855     S
Zr         0.0 0.20404516      0.5    Zr
O          0.0 0.230391 0.471981     O
O          0.0 0.230399 0.528029     O
O          0.0 0.275481 0.462241     O
O          0.0 0.275481 0.537761     O
Zr         0.0 0.29595516      0.5    Zr
S          0.0 0.308155 0.116765     S
S          0.0 0.308155 0.883245     S
O          0.0 0.462241 0.275481     O
O          0.0 0.462241 0.724521     O
O          0.0 0.471981 0.230391     O
O          0.0 0.471981 0.769611     O
Zr         0.0      0.5 0.20404516    Zr
Zr         0.0      0.5 0.29595516    Zr
Zr         0.0      0.5 0.70404516    Zr
Zr         0.0      0.5 0.79595516    Zr
O          0.0 0.528029 0.230399     O
O          0.0 0.528029 0.769619     O
O          0.0 0.537761 0.275481     O
O          0.0 0.537761 0.724521     O
S          0.0 0.691855 0.116765     S
S          0.0 0.691855 0.883245     S
Zr         0.0 0.70404516      0.5    Zr
O          0.0 0.724521 0.462241     O
O          0.0 0.724521 0.537761     O
O          0.0 0.769611 0.471981     O
O          0.0 0.769619 0.528029     O
Zr         0.0 0.79595516      0.5    Zr
S          0.0 0.883245 0.308155     S
S          0.0 0.883245 0.691855     S
C     0.0132013  0.09312  0.34722     C
C     0.0132013  0.09312  0.65282     C
C     0.0132013  0.34722  0.09312     C
C     0.0132013  0.34722  0.90692     C
C     0.0132013  0.65282  0.09312     C
C     0.0132013  0.65282  0.90692     C
C     0.0132013  0.90692  0.34722     C
C     0.0132013  0.90692  0.65282     C
C     0.022731 0.1052916 0.3272114     C
C     0.022731 0.1052916 0.6727914     C
C     0.022731 0.3272114 0.1052916     C
C     0.022731 0.3272114 0.8947116     C
C     0.022731 0.6727914 0.1052916     C
C     0.022731 0.6727914 0.8947116     C
C     0.022731 0.8947116 0.3272114     C
C     0.022731 0.8947116 0.6727914     C
H       0.0229   0.0856   0.3595     H
H       0.0229   0.0856   0.6405     H
H       0.0229   0.3595   0.0856     H
H       0.0229   0.3595   0.9144     H
H       0.0229   0.6405   0.0856     H
H       0.0229   0.6405   0.9144     H
H       0.0229   0.9144   0.3595     H
H       0.0229   0.9144   0.6405     H
O     0.024348 0.182607 0.474137     O
O     0.024348 0.182607 0.525877     O
O     0.024348 0.474137 0.182607     O
O     0.024348 0.474137 0.817407     O
O     0.024348 0.525877 0.182607     O
O     0.024348 0.525877 0.817407     O
O     0.024348 0.817407 0.474137     O
O     0.024348 0.817407 0.525877     O
O     0.025877 0.317407 0.475668     O
O     0.025877 0.317407 0.524348     O
O     0.025877 0.475668 0.317407     O
O     0.025877 0.475668 0.682607     O
O     0.025877 0.524348 0.317407     O
O     0.025877 0.524348 0.682607     O
O     0.025877 0.682607 0.475668     O
O     0.025877 0.682607 0.524348     O
O     0.028021 0.269611      0.5     O
O     0.028021      0.5 0.269611     O
O     0.028021      0.5 0.730391     O
O     0.028021 0.730391      0.5     O
H        0.031   0.1383   0.4489     H
H        0.031   0.1383   0.5511     H
H        0.031   0.4489   0.1383     H
H        0.031   0.4489   0.8617     H
H        0.031   0.5511   0.1383     H
H        0.031   0.5511   0.8617     H
H        0.031   0.8617   0.4489     H
H        0.031   0.8617   0.5511     H
O     0.0310114 0.253251 0.426661     O
O     0.0310114 0.253251 0.573341     O
O     0.0310114 0.426661 0.253251     O
O     0.0310114 0.426661 0.746751     O
O     0.0310114 0.573341 0.253251     O
O     0.0310114 0.573341 0.746751     O
O     0.0310114 0.746751 0.426661     O
O     0.0310114 0.746751 0.573341     O
Zr    0.0329728     0.25 0.4670288    Zr
Zr    0.0329728     0.25 0.5329728    Zr
Zr    0.0329728 0.4670288     0.25    Zr
Zr    0.0329728 0.4670288     0.75    Zr
Zr    0.0329728 0.5329728     0.25    Zr
Zr    0.0329728 0.5329728     0.75    Zr
Zr    0.0329728     0.75 0.4670288    Zr
Zr    0.0329728     0.75 0.5329728    Zr
C     0.0367012 0.1899711 0.4557111     C
C     0.0367012 0.1899711 0.5442911     C
C     0.0367012 0.4557111 0.1899711     C
C     0.0367012 0.4557111 0.8100311     C
C     0.0367012 0.5442911 0.1899711     C
C     0.0367012 0.5442911 0.8100311     C
C     0.0367012 0.8100311 0.4557111     C
C     0.0367012 0.8100311 0.5442911     C
O     0.037761 0.224521      0.5     O
O     0.037761      0.5 0.224521     O
O     0.037761      0.5 0.775481     O
O     0.037761 0.775481      0.5     O
C      0.04162 0.1461613 0.4376516     C
C      0.04162 0.1461613 0.5623516     C
C      0.04162 0.4376516 0.1461613     C
C      0.04162 0.4376516 0.8538413     C
C      0.04162 0.5623516 0.1461613     C
C      0.04162 0.5623516 0.8538413     C
C      0.04162 0.8538413 0.4376516     C
C      0.04162 0.8538413 0.5623516     C
O     0.042311 0.211938 0.450499     O
O     0.042311 0.211938 0.549519     O
O     0.042311 0.450499 0.211938     O
O     0.042311 0.450499 0.788078     O
O     0.042311 0.549519 0.211938     O
O     0.042311 0.549519 0.788078     O
O     0.042311 0.788078 0.450499     O
O     0.042311 0.788078 0.549519     O
C     0.0442911 0.3100311 0.4633012     C
C     0.0442911 0.3100311 0.5367012     C
C     0.0442911 0.4633012 0.3100311     C
C     0.0442911 0.4633012 0.6899711     C
C     0.0442911 0.5367012 0.3100311     C
C     0.0442911 0.5367012 0.6899711     C
C     0.0442911 0.6899711 0.4633012     C
C     0.0442911 0.6899711 0.5367012     C
C     0.0464614 0.1707012 0.4382112     C
C     0.0464614 0.1707012 0.5617912     C
C     0.0464614 0.4382112 0.1707012     C
C     0.0464614 0.4382112 0.8293012     C
C     0.0464614 0.5617912 0.1707012     C
C     0.0464614 0.5617912 0.8293012     C
C     0.0464614 0.8293012 0.4382112     C
C     0.0464614 0.8293012 0.5617912     C
C     0.049361 0.1095311 0.3218411     C
C     0.049361 0.1095311 0.6781611     C
C     0.049361 0.3218411 0.1095311     C
C     0.049361 0.3218411 0.8904711     C
C     0.049361 0.6781611 0.1095311     C
C     0.049361 0.6781611 0.8904711     C
C     0.049361 0.8904711 0.3218411     C
C     0.049361 0.8904711 0.6781611     C
O     0.049519 0.288078 0.457691     O
O     0.049519 0.288078 0.542311     O
O     0.049519 0.457691 0.288078     O
O     0.049519 0.457691 0.711938     O
O     0.049519 0.542311 0.288078     O
O     0.049519 0.542311 0.711938     O
O     0.049519 0.711938 0.457691     O
O     0.049519 0.711938 0.542311     O
H       0.0511   0.3617    0.469     H
H       0.0511   0.3617    0.531     H
H       0.0511    0.469   0.3617     H
H       0.0511    0.469   0.6383     H
H       0.0511    0.531   0.3617     H
H       0.0511    0.531   0.6383     H
H       0.0511   0.6383    0.469     H
H       0.0511   0.6383    0.531     H
H       0.0534   0.1163   0.4151     H
H       0.0534   0.1163   0.5849     H
H       0.0534   0.4151   0.1163     H
H       0.0534   0.4151   0.8837     H
H       0.0534   0.5849   0.1163     H
H       0.0534   0.5849   0.8837     H
H       0.0534   0.8837   0.4151     H
H       0.0534   0.8837   0.5849     H
C      0.05432 0.1334013 0.4179216     C
C      0.05432 0.1334013 0.5820816     C
C      0.05432 0.4179216 0.1334013     C
C      0.05432 0.4179216 0.8666013     C
C      0.05432 0.5820816 0.1334013     C
C      0.05432 0.5820816 0.8666013     C
C      0.05432 0.8666013 0.4179216     C
C      0.05432 0.8666013 0.5820816     C
O     0.054637 0.123169 0.303599     O
O     0.054637 0.123169 0.696419     O
O     0.054637 0.303599 0.123169     O
O     0.054637 0.303599 0.876849     O
O     0.054637 0.696419 0.123169     O
O     0.054637 0.696419 0.876849     O
O     0.054637 0.876849 0.303599     O
O     0.054637 0.876849 0.696419     O
C     0.0617912 0.3293012 0.4535414     C
C     0.0617912 0.3293012 0.5464614     C
C     0.0617912 0.4535414 0.3293012     C
C     0.0617912 0.4535414 0.6707012     C
C     0.0617912 0.5464614 0.3293012     C
C     0.0617912 0.5464614 0.6707012     C
C     0.0617912 0.6707012 0.4535414     C
C     0.0617912 0.6707012 0.5464614     C
C     0.0623516 0.3538413  0.45842     C
C     0.0623516 0.3538413  0.54162     C
C     0.0623516  0.45842 0.3538413     C
C     0.0623516  0.45842 0.6461613     C
C     0.0623516  0.54162 0.3538413     C
C     0.0623516  0.54162 0.6461613     C
C     0.0623516 0.6461613  0.45842     C
C     0.0623516 0.6461613  0.54162     C
O     0.064426 0.099567 0.337017     O
O     0.064426 0.099567 0.662997     O
O     0.064426 0.337017 0.099567     O
O     0.064426 0.337017 0.900447     O
O     0.064426 0.662997 0.099567     O
O     0.064426 0.662997 0.900447     O
O     0.064426 0.900447 0.337017     O
O     0.064426 0.900447 0.662997     O
O     0.064871 0.1690811 0.2899816     O
O     0.064871 0.1690811 0.7100216     O
O     0.064871 0.2899816 0.1690811     O
O     0.064871 0.2899816 0.8309211     O
O     0.064871 0.7100216 0.1690811     O
O     0.064871 0.7100216 0.8309211     O
O     0.064871 0.8309211 0.2899816     O
O     0.064871 0.8309211 0.7100216     O
S     0.065764 0.179513 0.414463     S
S     0.065764 0.179513 0.585543     S
S     0.065764 0.414463 0.179513     S
S     0.065764 0.414463 0.820493     S
S     0.065764 0.585543 0.179513     S
S     0.065764 0.585543 0.820493     S
S     0.065764 0.820493 0.414463     S
S     0.065764 0.820493 0.585543     S
C     0.0679914 0.1494411 0.4038112     C
C     0.0679914 0.1494411 0.5961912     C
C     0.0679914 0.4038112 0.1494411     C
C     0.0679914 0.4038112 0.8505611     C
C     0.0679914 0.5961912 0.1494411     C
C     0.0679914 0.5961912 0.8505611     C
C     0.0679914 0.8505611 0.4038112     C
C     0.0679914 0.8505611 0.5961912     C
H       0.0724   0.1841    0.216     H
H       0.0724   0.1841    0.784     H
H       0.0724    0.216   0.1841     H
H       0.0724    0.216   0.8159     H
H       0.0724    0.784   0.1841     H
H       0.0724    0.784   0.8159     H
H       0.0724   0.8159    0.216     H
H       0.0724   0.8159    0.784     H
O     0.073161 0.1184211 0.257469     O
O     0.073161 0.1184211 0.742549     O
O     0.073161 0.257469 0.1184211     O
O     0.073161 0.257469 0.8815811     O
O     0.073161 0.742549 0.1184211     O
O     0.073161 0.742549 0.8815811     O
O     0.073161 0.8815811 0.257469     O
O     0.073161 0.8815811 0.742549     O
O     0.073341 0.246751 0.4689914     O
O     0.073341 0.246751 0.5310114     O
O     0.073341 0.4689914 0.246751     O
O     0.073341 0.4689914 0.753251     O
O     0.073341 0.5310114 0.246751     O
O     0.073341 0.5310114 0.753251     O
O     0.073341 0.753251 0.4689914     O
O     0.073341 0.753251 0.5310114     O
C     0.0820816 0.3666013  0.44572     C
C     0.0820816 0.3666013  0.55432     C
C     0.0820816  0.44572 0.3666013     C
C     0.0820816  0.44572 0.6334013     C
C     0.0820816  0.55432 0.3666013     C
C     0.0820816  0.55432 0.6334013     C
C     0.0820816 0.6334013  0.44572     C
C     0.0820816 0.6334013  0.55432     C
C     0.0833312 0.1437511 0.3818511     C
C     0.0833312 0.1437511 0.6181511     C
C     0.0833312 0.3818511 0.1437511     C
C     0.0833312 0.3818511 0.8562511     C
C     0.0833312 0.6181511 0.1437511     C
C     0.0833312 0.6181511 0.8562511     C
C     0.0833312 0.8562511 0.3818511     C
C     0.0833312 0.8562511 0.6181511     C
H       0.0849   0.3837   0.4466     H
H       0.0849   0.3837   0.5534     H
H       0.0849   0.4466   0.3837     H
H       0.0849   0.4466   0.6163     H
H       0.0849   0.5534   0.3837     H
H       0.0849   0.5534   0.6163     H
H       0.0849   0.6163   0.4466     H
H       0.0849   0.6163   0.5534     H
O     0.085298 0.121207 0.375437     O
O     0.085298 0.121207 0.624577     O
O     0.085298 0.375437 0.121207     O
O     0.085298 0.375437 0.878807     O
O     0.085298 0.624577 0.121207     O
O     0.085298 0.624577 0.878807     O
O     0.085298 0.878807 0.375437     O
O     0.085298 0.878807 0.624577     O
S     0.085543 0.320493 0.434244     S
S     0.085543 0.320493 0.565764     S
S     0.085543 0.434244 0.320493     S
S     0.085543 0.434244 0.679513     S
S     0.085543 0.565764 0.320493     S
S     0.085543 0.565764 0.679513     S
S     0.085543 0.679513 0.434244     S
S     0.085543 0.679513 0.565764     S
H       0.0856   0.0229   0.3595     H
H       0.0856   0.0229   0.6405     H
H       0.0856   0.3595   0.0229     H
H       0.0856   0.3595   0.9771     H
H       0.0856   0.6405   0.0229     H
H       0.0856   0.6405   0.9771     H
H       0.0856   0.9771   0.3595     H
H       0.0856   0.9771   0.6405     H
C     0.0864816  0.19302 0.2114318     C
C     0.0864816  0.19302 0.7885718     C
C     0.0864816 0.2114318  0.19302     C
C     0.0864816 0.2114318  0.80702     C
C     0.0864816 0.7885718  0.19302     C
C     0.0864816 0.7885718  0.80702     C
C     0.0864816  0.80702 0.2114318     C
C     0.0864816  0.80702 0.7885718     C
O      0.08897  0.21507  0.30107     O
O      0.08897  0.21507  0.69907     O
O      0.08897  0.30107  0.21507     O
O      0.08897  0.30107  0.78507     O
O      0.08897  0.69907  0.21507     O
O      0.08897  0.69907  0.78507     O
O      0.08897  0.78507  0.30107     O
O      0.08897  0.78507  0.69907     O
Zr    0.0912888 0.1378318 0.2875558    Zr
Zr    0.0912888 0.1378318 0.7124458    Zr
Zr    0.0912888 0.2875558 0.1378318    Zr
Zr    0.0912888 0.2875558 0.8621698    Zr
Zr    0.0912888 0.7124458 0.1378318    Zr
Zr    0.0912888 0.7124458 0.8621698    Zr
Zr    0.0912888 0.8621698 0.2875558    Zr
Zr    0.0912888 0.8621698 0.7124458    Zr
O     0.0917112 0.1953111 0.3354513     O
O     0.0917112 0.1953111 0.6645513     O
O     0.0917112 0.3354513 0.1953111     O
O     0.0917112 0.3354513 0.8046911     O
O     0.0917112 0.6645513 0.1953111     O
O     0.0917112 0.6645513 0.8046911     O
O     0.0917112 0.8046911 0.3354513     O
O     0.0917112 0.8046911 0.6645513     O
C      0.09194  0.21039 0.320911     C
C      0.09194  0.21039 0.679111     C
C      0.09194 0.320911  0.21039     C
C      0.09194 0.320911  0.78979     C
C      0.09194 0.679111  0.21039     C
C      0.09194 0.679111  0.78979     C
C      0.09194  0.78979 0.320911     C
C      0.09194  0.78979 0.679111     C
C      0.09312 0.0132013  0.34722     C
C      0.09312 0.0132013  0.65282     C
C      0.09312  0.34722 0.0132013     C
C      0.09312  0.34722 0.9868013     C
C      0.09312  0.65282 0.0132013     C
C      0.09312  0.65282 0.9868013     C
C      0.09312 0.9868013  0.34722     C
C      0.09312 0.9868013  0.65282     C
O     0.093371 0.162328 0.371161     O
O     0.093371 0.162328 0.628841     O
O     0.093371 0.371161 0.162328     O
O     0.093371 0.371161 0.837688     O
O     0.093371 0.628841 0.162328     O
O     0.093371 0.628841 0.837688     O
O     0.093371 0.837688 0.371161     O
O     0.093371 0.837688 0.628841     O
C      0.09488  0.23947  0.33857     C
C      0.09488  0.23947  0.66157     C
C      0.09488  0.33857  0.23947     C
C      0.09488  0.33857  0.76067     C
C      0.09488  0.66157  0.23947     C
C      0.09488  0.66157  0.76067     C
C      0.09488  0.76067  0.33857     C
C      0.09488  0.76067  0.66157     C
C     0.0961912 0.3505611 0.4320114     C
C     0.0961912 0.3505611 0.5679914     C
C     0.0961912 0.4320114 0.3505611     C
C     0.0961912 0.4320114 0.6494411     C
C     0.0961912 0.5679914 0.3505611     C
C     0.0961912 0.5679914 0.6494411     C
C     0.0961912 0.6494411 0.4320114     C
C     0.0961912 0.6494411 0.5679914     C
O     0.097161 0.160751 0.252211     O
O     0.097161 0.252211 0.160751     O
O     0.097161 0.252211 0.839251     O
O     0.097161 0.839251 0.252211     O
O     0.097169 0.160759 0.747799     O
O     0.097169 0.747799 0.160759     O
O     0.097169 0.747799 0.839259     O
O     0.097169 0.839259 0.747799     O
O     0.098438 0.138327 0.325607     O
O     0.098438 0.138327 0.674407     O
O     0.098438 0.325607 0.138327     O
O     0.098438 0.325607 0.861687     O
O     0.098438 0.674407 0.138327     O
O     0.098438 0.674407 0.861687     O
O     0.098438 0.861687 0.325607     O
O     0.098438 0.861687 0.674407     O
O     0.098738 0.098738 0.2993911     O
O     0.098738 0.098738 0.7006111     O
O     0.098738 0.2993911 0.098738     O
O     0.098738 0.2993911 0.901278     O
O     0.098738 0.7006111 0.098738     O
O     0.098738 0.7006111 0.901278     O
O     0.098738 0.901278 0.2993911     O
O     0.098738 0.901278 0.7006111     O
S      0.09884  0.26572  0.32124     S
S      0.09884  0.26572  0.67884     S
S      0.09884  0.32124  0.26572     S
S      0.09884  0.32124  0.73432     S
S      0.09884  0.67884  0.26572     S
S      0.09884  0.67884  0.73432     S
S      0.09884  0.73432  0.32124     S
S      0.09884  0.73432  0.67884     S
O     0.099567 0.064426 0.337017     O
O     0.099567 0.064426 0.662997     O
O     0.099567 0.337017 0.064426     O
O     0.099567 0.337017 0.935586     O
O     0.099567 0.662997 0.064426     O
O     0.099567 0.662997 0.935586     O
O     0.099567 0.935586 0.337017     O
O     0.099567 0.935586 0.662997     O
C      0.10339  0.24379  0.36428     C
C      0.10339  0.24379  0.63588     C
C      0.10339  0.36428  0.24379     C
C      0.10339  0.36428  0.75639     C
C      0.10339  0.63588  0.24379     C
C      0.10339  0.63588  0.75639     C
C      0.10339  0.75639  0.36428     C
C      0.10339  0.75639  0.63588     C
Zr    0.1043337 0.1043337 0.3425821    Zr
Zr    0.1043337 0.1043337 0.6574181    Zr
Zr    0.1043337 0.3425821 0.1043337    Zr
Zr    0.1043337 0.3425821 0.8956677    Zr
Zr    0.1043337 0.6574181 0.1043337    Zr
Zr    0.1043337 0.6574181 0.8956677    Zr
Zr    0.1043337 0.8956677 0.3425821    Zr
Zr    0.1043337 0.8956677 0.6574181    Zr
C     0.1052916 0.022731 0.3272114     C
C     0.1052916 0.022731 0.6727914     C
C     0.1052916 0.3272114 0.022731     C
C     0.1052916 0.3272114 0.977271     C
C     0.1052916 0.6727914 0.022731     C
C     0.1052916 0.6727914 0.977271     C
C     0.1052916 0.977271 0.3272114     C
C     0.1052916 0.977271 0.6727914     C
C     0.1089913 0.1894513 0.2217813     C
C     0.1089913 0.1894513 0.7782213     C
C     0.1089913 0.2217813 0.1894513     C
C     0.1089913 0.2217813 0.8105513     C
C     0.1089913 0.7782213 0.1894513     C
C     0.1089913 0.7782213 0.8105513     C
C     0.1089913 0.8105513 0.2217813     C
C     0.1089913 0.8105513 0.7782213     C
C      0.10938  0.28278  0.34619     C
C      0.10938  0.28278  0.65399     C
C      0.10938  0.34619  0.28278     C
C      0.10938  0.34619  0.71738     C
C      0.10938  0.65399  0.28278     C
C      0.10938  0.65399  0.71738     C
C      0.10938  0.71738  0.34619     C
C      0.10938  0.71738  0.65399     C
C     0.1095311 0.049361 0.3218411     C
C     0.1095311 0.049361 0.6781611     C
C     0.1095311 0.3218411 0.049361     C
C     0.1095311 0.3218411 0.950641     C
C     0.1095311 0.6781611 0.049361     C
C     0.1095311 0.6781611 0.950641     C
C     0.1095311 0.950641 0.3218411     C
C     0.1095311 0.950641 0.6781611     C
C      0.10978  0.26629  0.36799     C
C      0.10978  0.26629  0.63219     C
C      0.10978  0.36799  0.26629     C
C      0.10978  0.36799  0.73389     C
C      0.10978  0.63219  0.26629     C
C      0.10978  0.63219  0.73389     C
C      0.10978  0.73389  0.36799     C
C      0.10978  0.73389  0.63219     C
C     0.1153211 0.1729511 0.2434511     C
C     0.1153211 0.1729511 0.7565511     C
C     0.1153211 0.2434511 0.1729511     C
C     0.1153211 0.2434511 0.8270511     C
C     0.1153211 0.7565511 0.1729511     C
C     0.1153211 0.7565511 0.8270511     C
C     0.1153211 0.8270511 0.2434511     C
C     0.1153211 0.8270511 0.7565511     C
H       0.1163   0.0534   0.4151     H
H       0.1163   0.0534   0.5849     H
H       0.1163   0.4151   0.0534     H
H       0.1163   0.4151   0.9466     H
H       0.1163   0.5849   0.0534     H
H       0.1163   0.5849   0.9466     H
H       0.1163   0.9466   0.4151     H
H       0.1163   0.9466   0.5849     H
O     0.116608 0.169348 0.297248     O
O     0.116608 0.169348 0.702768     O
O     0.116608 0.297248 0.169348     O
O     0.116608 0.297248 0.830668     O
O     0.116608 0.702768 0.169348     O
O     0.116608 0.702768 0.830668     O
O     0.116608 0.830668 0.297248     O
O     0.116608 0.830668 0.702768     O
S     0.116765      0.0 0.308155     S
S     0.116765      0.0 0.691855     S
S     0.116765 0.308155      0.0     S
S     0.116765 0.691855      0.0     S
O      0.11808  0.31784  0.31784     O
O      0.11808  0.31784  0.68224     O
O      0.11808  0.68224  0.31784     O
O      0.11808  0.68224  0.68224     O
C     0.1181511 0.3562511 0.4166712     C
C     0.1181511 0.3562511 0.5833312     C
C     0.1181511 0.4166712 0.3562511     C
C     0.1181511 0.4166712 0.6437511     C
C     0.1181511 0.5833312 0.3562511     C
C     0.1181511 0.5833312 0.6437511     C
C     0.1181511 0.6437511 0.4166712     C
C     0.1181511 0.6437511 0.5833312     C
O     0.1184211 0.073161 0.257469     O
O     0.1184211 0.073161 0.742549     O
O     0.1184211 0.257469 0.073161     O
O     0.1184211 0.257469 0.926841     O
O     0.1184211 0.742549 0.073161     O
O     0.1184211 0.742549 0.926841     O
O     0.1184211 0.926841 0.257469     O
O     0.1184211 0.926841 0.742549     O
Zr    0.1204289 0.1672098 0.3387799    Zr
Zr    0.1204289 0.1672098 0.6612219    Zr
Zr    0.1204289 0.3387799 0.1672098    Zr
Zr    0.1204289 0.3387799 0.8327918    Zr
Zr    0.1204289 0.6612219 0.1672098    Zr
Zr    0.1204289 0.6612219 0.8327918    Zr
Zr    0.1204289 0.8327918 0.3387799    Zr
Zr    0.1204289 0.8327918 0.6612219    Zr
O     0.121207 0.085298 0.375437     O
O     0.121207 0.085298 0.624577     O
O     0.121207 0.375437 0.085298     O
O     0.121207 0.375437 0.914718     O
O     0.121207 0.624577 0.085298     O
O     0.121207 0.624577 0.914718     O
O     0.121207 0.914718 0.375437     O
O     0.121207 0.914718 0.624577     O
C      0.12217  0.30897  0.34037     C
C      0.12217  0.30897  0.65977     C
C      0.12217  0.34037  0.30897     C
C      0.12217  0.34037  0.69117     C
C      0.12217  0.65977  0.30897     C
C      0.12217  0.65977  0.69117     C
C      0.12217  0.69117  0.34037     C
C      0.12217  0.69117  0.65977     C
O     0.123161 0.303591 0.945377     O
O     0.123161 0.696411 0.945377     O
O     0.123161 0.945377 0.303591     O
O     0.123161 0.945377 0.696411     O
O     0.123169 0.054637 0.303599     O
O     0.123169 0.054637 0.696419     O
O     0.123169 0.303599 0.054637     O
O     0.123169 0.696419 0.054637     O
O     0.124577 0.378807 0.414718     O
O     0.124577 0.378807 0.585298     O
O     0.124577 0.414718 0.378807     O
O     0.124577 0.414718 0.621207     O
O     0.124577 0.585298 0.378807     O
O     0.124577 0.585298 0.621207     O
O     0.124577 0.621207 0.414718     O
O     0.124577 0.621207 0.585298     O
O     0.127557 0.127557 0.2782611     O
O     0.127557 0.127557 0.7217411     O
O     0.127557 0.2782611 0.127557     O
O     0.127557 0.2782611 0.872457     O
O     0.127557 0.7217411 0.127557     O
O     0.127557 0.7217411 0.872457     O
O     0.127557 0.872457 0.2782611     O
O     0.127557 0.872457 0.7217411     O
O     0.128111 0.3177211 0.3610713     O
O     0.128111 0.3177211 0.6389313     O
O     0.128111 0.3610713 0.3177211     O
O     0.128111 0.3610713 0.6822811     O
O     0.128111 0.6389313 0.3177211     O
O     0.128111 0.6389313 0.6822811     O
O     0.128111 0.6822811 0.3610713     O
O     0.128111 0.6822811 0.6389313     O
O     0.128841 0.406631 0.662328     O
O     0.128841 0.662328 0.406631     O
O     0.128849 0.337688 0.406631     O
O     0.128849 0.337688 0.593371     O
O     0.128849 0.406631 0.337688     O
O     0.128849 0.593371 0.337688     O
O     0.128849 0.593371 0.662328     O
O     0.128849 0.662328 0.593371     O
S     0.130824 0.209323 0.209323     S
S     0.130824 0.209323 0.790683     S
S     0.130824 0.790683 0.209323     S
S     0.130824 0.790683 0.790683     S
O     0.131937 0.131937 0.3583712     O
O     0.131937 0.131937 0.6416312     O
O     0.131937 0.3583712 0.131937     O
O     0.131937 0.3583712 0.868077     O
O     0.131937 0.6416312 0.131937     O
O     0.131937 0.6416312 0.868077     O
O     0.131937 0.868077 0.3583712     O
O     0.131937 0.868077 0.6416312     O
C      0.13219  0.23389  0.39038     C
C      0.13219  0.23389  0.60978     C
C      0.13219  0.39038  0.23389     C
C      0.13219  0.39038  0.76629     C
C      0.13219  0.60978  0.23389     C
C      0.13219  0.60978  0.76629     C
C      0.13219  0.76629  0.39038     C
C      0.13219  0.76629  0.60978     C
C     0.1334013  0.05432 0.4179216     C
C     0.1334013  0.05432 0.5820816     C
C     0.1334013 0.4179216  0.05432     C
C     0.1334013 0.4179216  0.94572     C
C     0.1334013 0.5820816  0.05432     C
C     0.1334013 0.5820816  0.94572     C
C     0.1334013  0.94572 0.4179216     C
C     0.1334013  0.94572 0.5820816     C
C      0.13588  0.25639  0.39679     C
C      0.13588  0.25639  0.60339     C
C      0.13588  0.39679  0.25639     C
C      0.13588  0.39679  0.74379     C
C      0.13588  0.60339  0.25639     C
C      0.13588  0.60339  0.74379     C
C      0.13588  0.74379  0.39679     C
C      0.13588  0.74379  0.60339     C
O     0.137407 0.172927 0.250937     O
O     0.137407 0.172927 0.749077     O
O     0.137407 0.250937 0.172927     O
O     0.137407 0.250937 0.827087     O
O     0.137407 0.749077 0.172927     O
O     0.137407 0.749077 0.827087     O
O     0.137407 0.827087 0.250937     O
O     0.137407 0.827087 0.749077     O
Zr    0.1378318 0.0912888 0.2875558    Zr
Zr    0.1378318 0.0912888 0.7124458    Zr
Zr    0.1378318 0.2875558 0.0912888    Zr
Zr    0.1378318 0.2875558 0.9087128    Zr
Zr    0.1378318 0.7124458 0.0912888    Zr
Zr    0.1378318 0.7124458 0.9087128    Zr
Zr    0.1378318 0.9087128 0.2875558    Zr
Zr    0.1378318 0.9087128 0.7124458    Zr
H       0.1383    0.031   0.4489     H
H       0.1383    0.031   0.5511     H
H       0.1383   0.4489    0.031     H
H       0.1383   0.4489    0.969     H
H       0.1383   0.5511    0.031     H
H       0.1383   0.5511    0.969     H
H       0.1383    0.969   0.4489     H
H       0.1383    0.969   0.5511     H
O     0.138327 0.098438 0.325607     O
O     0.138327 0.098438 0.674407     O
O     0.138327 0.325607 0.098438     O
O     0.138327 0.325607 0.901578     O
O     0.138327 0.674407 0.098438     O
O     0.138327 0.674407 0.901578     O
O     0.138327 0.901578 0.325607     O
O     0.138327 0.901578 0.674407     O
O     0.1389313 0.1822811 0.371891     O
O     0.1389313 0.1822811 0.628111     O
O     0.1389313 0.371891 0.1822811     O
O     0.1389313 0.371891 0.8177211     O
O     0.1389313 0.628111 0.1822811     O
O     0.1389313 0.628111 0.8177211     O
O     0.1389313 0.8177211 0.371891     O
O     0.1389313 0.8177211 0.628111     O
H       0.1405   0.4144   0.4771     H
H       0.1405   0.4144   0.5229     H
H       0.1405   0.4771   0.4144     H
H       0.1405   0.4771   0.5856     H
H       0.1405   0.5229   0.4144     H
H       0.1405   0.5229   0.5856     H
H       0.1405   0.5856   0.4771     H
H       0.1405   0.5856   0.5229     H
O     0.140891 0.202158 0.327151     O
O     0.140891 0.202158 0.672851     O
O     0.140891 0.327151 0.202158     O
O     0.140891 0.327151 0.797858     O
O     0.140891 0.672851 0.202158     O
O     0.140891 0.672851 0.797858     O
O     0.140891 0.797858 0.327151     O
O     0.140891 0.797858 0.672851     O
O     0.1416312 0.368077 0.368077     O
O     0.1416312 0.368077 0.631937     O
O     0.1416312 0.631937 0.368077     O
O     0.1416312 0.631937 0.631937     O
C     0.1437511 0.0833312 0.3818511     C
C     0.1437511 0.0833312 0.6181511     C
C     0.1437511 0.3818511 0.0833312     C
C     0.1437511 0.3818511 0.9166712     C
C     0.1437511 0.6181511 0.0833312     C
C     0.1437511 0.6181511 0.9166712     C
C     0.1437511 0.9166712 0.3818511     C
C     0.1437511 0.9166712 0.6181511     C
C     0.1461613  0.04162 0.4376516     C
C     0.1461613  0.04162 0.5623516     C
C     0.1461613 0.4376516  0.04162     C
C     0.1461613 0.4376516  0.95842     C
C     0.1461613 0.5623516  0.04162     C
C     0.1461613 0.5623516  0.95842     C
C     0.1461613  0.95842 0.4376516     C
C     0.1461613  0.95842 0.5623516     C
C     0.1494411 0.0679914 0.4038112     C
C     0.1494411 0.0679914 0.5961912     C
C     0.1494411 0.4038112 0.0679914     C
C     0.1494411 0.4038112 0.9320114     C
C     0.1494411 0.5961912 0.0679914     C
C     0.1494411 0.5961912 0.9320114     C
C     0.1494411 0.9320114 0.4038112     C
C     0.1494411 0.9320114 0.5961912     C
O     0.152578 0.152578 0.322761     O
O     0.152578 0.152578 0.677241     O
O     0.152578 0.322761 0.152578     O
O     0.152578 0.322761 0.847438     O
O     0.152578 0.677241 0.152578     O
O     0.152578 0.677241 0.847438     O
O     0.152578 0.847438 0.322761     O
O     0.152578 0.847438 0.677241     O
C      0.15282  0.40692 0.4868013     C
C      0.15282  0.40692 0.5132013     C
C      0.15282 0.4868013  0.40692     C
C      0.15282 0.4868013  0.59312     C
C      0.15282 0.5132013  0.40692     C
C      0.15282 0.5132013  0.59312     C
C      0.15282  0.59312 0.4868013     C
C      0.15282  0.59312 0.5132013     C
C      0.15399  0.21738  0.39078     C
C      0.15399  0.21738  0.60938     C
C      0.15399  0.39078  0.21738     C
C      0.15399  0.39078  0.78278     C
C      0.15399  0.60938  0.21738     C
C      0.15399  0.60938  0.78278     C
C      0.15399  0.78278  0.39078     C
C      0.15399  0.78278  0.60938     C
Zr    0.1543237 0.1543237 0.28392911    Zr
Zr    0.1543237 0.1543237 0.71607111    Zr
Zr    0.1543237 0.28392911 0.1543237    Zr
Zr    0.1543237 0.28392911 0.8456777    Zr
Zr    0.1543237 0.71607111 0.1543237    Zr
Zr    0.1543237 0.71607111 0.8456777    Zr
Zr    0.1543237 0.8456777 0.28392911    Zr
Zr    0.1543237 0.8456777 0.71607111    Zr
C     0.1560913 0.207161 0.3100712     C
C     0.1560913 0.207161 0.6899312     C
C     0.1560913 0.3100712 0.207161     C
C     0.1560913 0.3100712 0.792841     C
C     0.1560913 0.6899312 0.207161     C
C     0.1560913 0.6899312 0.792841     C
C     0.1560913 0.792841 0.3100712     C
C     0.1560913 0.792841 0.6899312     C
Zr    0.1574181 0.3956677 0.3956677    Zr
Zr    0.1574181 0.3956677 0.6043337    Zr
Zr    0.1574181 0.6043337 0.3956677    Zr
Zr    0.1574181 0.6043337 0.6043337    Zr
C      0.15977  0.19117  0.37797     C
C      0.15977  0.19117  0.62217     C
C      0.15977  0.37797  0.19117     C
C      0.15977  0.37797  0.80897     C
C      0.15977  0.62217  0.19117     C
C      0.15977  0.62217  0.80897     C
C      0.15977  0.80897  0.37797     C
C      0.15977  0.80897  0.62217     C
O     0.160429 0.194517 0.290618     O
O     0.160429 0.194517 0.709398     O
O     0.160429 0.290618 0.194517     O
O     0.160429 0.290618 0.805497     O
O     0.160429 0.709398 0.194517     O
O     0.160429 0.709398 0.805497     O
O     0.160429 0.805497 0.290618     O
O     0.160429 0.805497 0.709398     O
O     0.160751 0.097161 0.252211     O
O     0.160751 0.252211 0.097161     O
O     0.160759 0.097169 0.747799     O
O     0.160759 0.252219 0.902849     O
O     0.160759 0.747799 0.097169     O
O     0.160759 0.747799 0.902849     O
O     0.160759 0.902849 0.252219     O
O     0.160759 0.902849 0.747799     O
Zr    0.1612219 0.3327918 0.3795729    Zr
Zr    0.1612219 0.3327918 0.6204289    Zr
Zr    0.1612219 0.3795729 0.3327918    Zr
Zr    0.1612219 0.3795729 0.6672098    Zr
Zr    0.1612219 0.6204289 0.3327918    Zr
Zr    0.1612219 0.6204289 0.6672098    Zr
Zr    0.1612219 0.6672098 0.3795729    Zr
Zr    0.1612219 0.6672098 0.6204289    Zr
C      0.16157  0.26067  0.40528     C
C      0.16157  0.26067  0.59488     C
C      0.16157  0.40528  0.26067     C
C      0.16157  0.40528  0.73947     C
C      0.16157  0.59488  0.26067     C
C      0.16157  0.59488  0.73947     C
C      0.16157  0.73947  0.40528     C
C      0.16157  0.73947  0.59488     C
O     0.162328 0.093371 0.371161     O
O     0.162328 0.093371 0.628841     O
O     0.162328 0.371161 0.093371     O
O     0.162328 0.371169 0.906631     O
O     0.162328 0.628841 0.093371     O
O     0.162328 0.628849 0.906631     O
O     0.162328 0.906631 0.371169     O
O     0.162328 0.906631 0.628849     O
S     0.162773     0.25 0.337233     S
S     0.162773     0.25 0.662773     S
S     0.162773 0.337233     0.25     S
S     0.162773 0.337233     0.75     S
S     0.162773 0.662773     0.25     S
S     0.162773 0.662773     0.75     S
S     0.162773     0.75 0.337233     S
S     0.162773     0.75 0.662773     S
O     0.162997 0.400447 0.435586     O
O     0.162997 0.400447 0.564426     O
O     0.162997 0.435586 0.400447     O
O     0.162997 0.435586 0.599567     O
O     0.162997 0.564426 0.400447     O
O     0.162997 0.564426 0.599567     O
O     0.162997 0.599567 0.435586     O
O     0.162997 0.599567 0.564426     O
O     0.1645513 0.3046911 0.4082912     O
O     0.1645513 0.3046911 0.5917112     O
O     0.1645513 0.4082912 0.3046911     O
O     0.1645513 0.4082912 0.6953111     O
O     0.1645513 0.5917112 0.3046911     O
O     0.1645513 0.5917112 0.6953111     O
O     0.1645513 0.6953111 0.4082912     O
O     0.1645513 0.6953111 0.5917112     O
Zr    0.1672098 0.1204289 0.3387799    Zr
Zr    0.1672098 0.1204289 0.6612219    Zr
Zr    0.1672098 0.3387799 0.1204289    Zr
Zr    0.1672098 0.3387799 0.8795729    Zr
Zr    0.1672098 0.6612219 0.1204289    Zr
Zr    0.1672098 0.6612219 0.8795729    Zr
Zr    0.1672098 0.8795729 0.3387799    Zr
Zr    0.1672098 0.8795729 0.6612219    Zr
O     0.1690811 0.064871 0.2899816     O
O     0.1690811 0.064871 0.7100216     O
O     0.1690811 0.2899816 0.064871     O
O     0.1690811 0.2899816 0.935131     O
O     0.1690811 0.7100216 0.064871     O
O     0.1690811 0.7100216 0.935131     O
O     0.1690811 0.935131 0.2899816     O
O     0.1690811 0.935131 0.7100216     O
O     0.169348 0.116608 0.297248     O
O     0.169348 0.116608 0.702768     O
O     0.169348 0.297248 0.116608     O
O     0.169348 0.297248 0.883408     O
O     0.169348 0.702768 0.116608     O
O     0.169348 0.702768 0.883408     O
O     0.169348 0.883408 0.297248     O
O     0.169348 0.883408 0.702768     O
C     0.1705513 0.230541 0.3132712     C
C     0.1705513 0.230541 0.6867312     C
C     0.1705513 0.3132712 0.230541     C
C     0.1705513 0.3132712 0.769461     C
C     0.1705513 0.6867312 0.230541     C
C     0.1705513 0.6867312 0.769461     C
C     0.1705513 0.769461 0.3132712     C
C     0.1705513 0.769461 0.6867312     C
C     0.1707012 0.0464614 0.4382112     C
C     0.1707012 0.0464614 0.5617912     C
C     0.1707012 0.4382112 0.0464614     C
C     0.1707012 0.4382112 0.9535414     C
C     0.1707012 0.5617912 0.0464614     C
C     0.1707012 0.5617912 0.9535414     C
C     0.1707012 0.9535414 0.4382112     C
C     0.1707012 0.9535414 0.5617912     C
C     0.1727914 0.3947116 0.477271     C
C     0.1727914 0.3947116 0.522731     C
C     0.1727914 0.477271 0.3947116     C
C     0.1727914 0.477271 0.6052916     C
C     0.1727914 0.522731 0.3947116     C
C     0.1727914 0.522731 0.6052916     C
C     0.1727914 0.6052916 0.477271     C
C     0.1727914 0.6052916 0.522731     C
O     0.172851 0.297858 0.359111     O
O     0.172851 0.297858 0.640891     O
O     0.172851 0.359111 0.297858     O
O     0.172851 0.359111 0.702158     O
O     0.172851 0.640891 0.297858     O
O     0.172851 0.640891 0.702158     O
O     0.172851 0.702158 0.359111     O
O     0.172851 0.702158 0.640891     O
O     0.172927 0.137407 0.250937     O
O     0.172927 0.137407 0.749077     O
O     0.172927 0.250937 0.137407     O
O     0.172927 0.250937 0.862607     O
O     0.172927 0.749077 0.137407     O
O     0.172927 0.749077 0.862607     O
O     0.172927 0.862607 0.250937     O
O     0.172927 0.862607 0.749077     O
C     0.1729511 0.1153211 0.2434511     C
C     0.1729511 0.1153211 0.7565511     C
C     0.1729511 0.2434511 0.1153211     C
C     0.1729511 0.2434511 0.8846811     C
C     0.1729511 0.7565511 0.1153211     C
C     0.1729511 0.7565511 0.8846811     C
C     0.1729511 0.8846811 0.2434511     C
C     0.1729511 0.8846811 0.7565511     C
O     0.174407 0.361687 0.401578     O
O     0.174407 0.361687 0.598438     O
O     0.174407 0.401578 0.361687     O
O     0.174407 0.401578 0.638327     O
O     0.174407 0.598438 0.361687     O
O     0.174407 0.598438 0.638327     O
O     0.174407 0.638327 0.401578     O
O     0.174407 0.638327 0.598438     O
O     0.177241 0.347438 0.347438     O
O     0.177241 0.347438 0.652578     O
O     0.177241 0.652578 0.347438     O
O     0.177241 0.652578 0.652578     O
C     0.1781611 0.3904711 0.450641     C
C     0.1781611 0.3904711 0.549361     C
C     0.1781611 0.450641 0.3904711     C
C     0.1781611 0.450641 0.6095311     C
C     0.1781611 0.549361 0.3904711     C
C     0.1781611 0.549361 0.6095311     C
C     0.1781611 0.6095311 0.450641     C
C     0.1781611 0.6095311 0.549361     C
S      0.17884  0.23432  0.40124     S
S      0.17884  0.23432  0.59884     S
S      0.17884  0.40124  0.23432     S
S      0.17884  0.40124  0.76572     S
S      0.17884  0.59884  0.23432     S
S      0.17884  0.59884  0.76572     S
S      0.17884  0.76572  0.40124     S
S      0.17884  0.76572  0.59884     S
C     0.179111  0.28979  0.40814     C
C     0.179111  0.28979  0.59194     C
C     0.179111  0.40814  0.28979     C
C     0.179111  0.40814  0.71039     C
C     0.179111  0.59194  0.28979     C
C     0.179111  0.59194  0.71039     C
C     0.179111  0.71039  0.40814     C
C     0.179111  0.71039  0.59194     C
S     0.179513 0.065764 0.414463     S
S     0.179513 0.065764 0.585543     S
S     0.179513 0.414463 0.065764     S
S     0.179513 0.414463 0.934244     S
S     0.179513 0.585543 0.065764     S
S     0.179513 0.585543 0.934244     S
S     0.179513 0.934244 0.414463     S
S     0.179513 0.934244 0.585543     S
O      0.18224  0.18224  0.38208     O
O      0.18224  0.18224  0.61808     O
O      0.18224  0.38208  0.18224     O
O      0.18224  0.38208  0.81784     O
O      0.18224  0.61808  0.18224     O
O      0.18224  0.61808  0.81784     O
O      0.18224  0.81784  0.38208     O
O      0.18224  0.81784  0.61808     O
O     0.1822811 0.1389313 0.371891     O
O     0.1822811 0.1389313 0.628111     O
O     0.1822811 0.371891 0.1389313     O
O     0.1822811 0.371891 0.8610713     O
O     0.1822811 0.628111 0.1389313     O
O     0.1822811 0.628111 0.8610713     O
O     0.1822811 0.8610713 0.371891     O
O     0.1822811 0.8610713 0.628111     O
O     0.182607 0.024348 0.474137     O
O     0.182607 0.024348 0.525877     O
O     0.182607 0.474137 0.024348     O
O     0.182607 0.474137 0.975668     O
O     0.182607 0.525877 0.024348     O
O     0.182607 0.525877 0.975668     O
O     0.182607 0.975668 0.474137     O
O     0.182607 0.975668 0.525877     O
H       0.1841   0.0724    0.216     H
H       0.1841   0.0724    0.784     H
H       0.1841    0.216   0.0724     H
H       0.1841    0.216   0.9276     H
H       0.1841    0.784   0.0724     H
H       0.1841    0.784   0.9276     H
H       0.1841   0.9276    0.216     H
H       0.1841   0.9276    0.784     H
C     0.1867312 0.269461 0.3294513     C
C     0.1867312 0.269461 0.6705513     C
C     0.1867312 0.3294513 0.269461     C
C     0.1867312 0.3294513 0.730541     C
C     0.1867312 0.6705513 0.269461     C
C     0.1867312 0.6705513 0.730541     C
C     0.1867312 0.730541 0.3294513     C
C     0.1867312 0.730541 0.6705513     C
C     0.1894513 0.1089913 0.2217813     C
C     0.1894513 0.1089913 0.7782213     C
C     0.1894513 0.2217813 0.1089913     C
C     0.1894513 0.2217813 0.8910113     C
C     0.1894513 0.7782213 0.1089913     C
C     0.1894513 0.7782213 0.8910113     C
C     0.1894513 0.8910113 0.2217813     C
C     0.1894513 0.8910113 0.7782213     C
C     0.1899312 0.292841 0.3439113     C
C     0.1899312 0.292841 0.6560913     C
C     0.1899312 0.3439113 0.292841     C
C     0.1899312 0.3439113 0.707161     C
C     0.1899312 0.6560913 0.292841     C
C     0.1899312 0.6560913 0.707161     C
C     0.1899312 0.707161 0.3439113     C
C     0.1899312 0.707161 0.6560913     C
C     0.1899711 0.0367012 0.4557111     C
C     0.1899711 0.0367012 0.5442911     C
C     0.1899711 0.4557111 0.0367012     C
C     0.1899711 0.4557111 0.9633012     C
C     0.1899711 0.5442911 0.0367012     C
C     0.1899711 0.5442911 0.9633012     C
C     0.1899711 0.9633012 0.4557111     C
C     0.1899711 0.9633012 0.5442911     C
C     0.1905614 0.2388012 0.3001314     C
C     0.1905614 0.2388012 0.6998714     C
C     0.1905614 0.3001314 0.2388012     C
C     0.1905614 0.3001314 0.7612012     C
C     0.1905614 0.6998714 0.2388012     C
C     0.1905614 0.6998714 0.7612012     C
C     0.1905614 0.7612012 0.3001314     C
C     0.1905614 0.7612012 0.6998714     C
C      0.19117  0.15977  0.37797     C
C      0.19117  0.15977  0.62217     C
C      0.19117  0.37797  0.15977     C
C      0.19117  0.37797  0.84037     C
C      0.19117  0.62217  0.15977     C
C      0.19117  0.62217  0.84037     C
C      0.19117  0.84037  0.37797     C
C      0.19117  0.84037  0.62217     C
S     0.191855 0.383245      0.5     S
S     0.191855      0.5 0.383245     S
S     0.191855      0.5 0.616765     S
S     0.191855 0.616765      0.5     S
C      0.19302 0.0864816 0.2114318     C
C      0.19302 0.0864816 0.7885718     C
C      0.19302 0.2114318 0.0864816     C
C      0.19302 0.2114318 0.9135216     C
C      0.19302 0.7885718 0.0864816     C
C      0.19302 0.7885718 0.9135216     C
C      0.19302 0.9135216 0.2114318     C
C      0.19302 0.9135216 0.7885718     C
O     0.194517 0.160429 0.290618     O
O     0.194517 0.160429 0.709398     O
O     0.194517 0.290618 0.160429     O
O     0.194517 0.290618 0.839589     O
O     0.194517 0.709398 0.160429     O
O     0.194517 0.709398 0.839589     O
O     0.194517 0.839589 0.290618     O
O     0.194517 0.839589 0.709398     O
O     0.1953111 0.0917112 0.3354513     O
O     0.1953111 0.0917112 0.6645513     O
O     0.1953111 0.3354513 0.0917112     O
O     0.1953111 0.3354513 0.9082912     O
O     0.1953111 0.6645513 0.0917112     O
O     0.1953111 0.6645513 0.9082912     O
O     0.1953111 0.9082912 0.3354513     O
O     0.1953111 0.9082912 0.6645513     O
O     0.196411 0.376841 0.554637     O
O     0.196411 0.554637 0.376841     O
O     0.196411 0.554637 0.623161     O
O     0.196411 0.623161 0.554637     O
O     0.196419 0.376849 0.445377     O
O     0.196419 0.445377 0.376849     O
O     0.196419 0.445377 0.623169     O
O     0.196419 0.623169 0.445377     O
H       0.1973   0.2305   0.2865     H
H       0.1973   0.2305   0.7135     H
H       0.1973   0.2865   0.2305     H
H       0.1973   0.2865   0.7695     H
H       0.1973   0.7135   0.2305     H
H       0.1973   0.7135   0.7695     H
H       0.1973   0.7695   0.2865     H
H       0.1973   0.7695   0.7135     H
O      0.19907  0.28507  0.41117     O
O      0.19907  0.28507  0.58897     O
O      0.19907  0.41117  0.28507     O
O      0.19907  0.41117  0.71507     O
O      0.19907  0.58897  0.28507     O
O      0.19907  0.58897  0.71507     O
O      0.19907  0.71507  0.41117     O
O      0.19907  0.71507  0.58897     O
C     0.1998714 0.2612012 0.3094414     C
C     0.1998714 0.2612012 0.6905614     C
C     0.1998714 0.3094414 0.2612012     C
C     0.1998714 0.3094414 0.7388012     C
C     0.1998714 0.6905614 0.2612012     C
C     0.1998714 0.6905614 0.7388012     C
C     0.1998714 0.7388012 0.3094414     C
C     0.1998714 0.7388012 0.6905614     C
O     0.2006111 0.401278 0.401278     O
O     0.2006111 0.401278 0.598738     O
O     0.2006111 0.598738 0.401278     O
O     0.2006111 0.598738 0.598738     O
O     0.202158 0.140891 0.327151     O
O     0.202158 0.140891 0.672851     O
O     0.202158 0.327151 0.140891     O
O     0.202158 0.327151 0.859111     O
O     0.202158 0.672851 0.140891     O
O     0.202158 0.672851 0.859111     O
O     0.202158 0.859111 0.327151     O
O     0.202158 0.859111 0.672851     O
O     0.202768 0.330668 0.383408     O
O     0.202768 0.330668 0.616608     O
O     0.202768 0.383408 0.330668     O
O     0.202768 0.383408 0.669348     O
O     0.202768 0.616608 0.330668     O
O     0.202768 0.616608 0.669348     O
O     0.202768 0.669348 0.383408     O
O     0.202768 0.669348 0.616608     O
Zr    0.20404516      0.0      0.5    Zr
Zr    0.20404516      0.5      0.0    Zr
C     0.207161 0.1560913 0.3100712     C
C     0.207161 0.1560913 0.6899312     C
C     0.207161 0.3100712 0.1560913     C
C     0.207161 0.3100712 0.8439113     C
C     0.207161 0.6899312 0.1560913     C
C     0.207161 0.6899312 0.8439113     C
C     0.207161 0.8439113 0.3100712     C
C     0.207161 0.8439113 0.6899312     C
S     0.209323 0.130824 0.209323     S
S     0.209323 0.130824 0.790683     S
S     0.209323 0.209323 0.130824     S
S     0.209323 0.209323 0.869184     S
S     0.209323 0.790683 0.130824     S
S     0.209323 0.790683 0.869184     S
S     0.209323 0.869184 0.209323     S
S     0.209323 0.869184 0.790683     S
O     0.209398 0.305497 0.339581     O
O     0.209398 0.305497 0.660421     O
O     0.209398 0.339581 0.305497     O
O     0.209398 0.339589 0.694517     O
O     0.209398 0.660421 0.305497     O
O     0.209398 0.660429 0.694517     O
O     0.209398 0.694517 0.339589     O
O     0.209398 0.694517 0.660429     O
O     0.2100216 0.3309211 0.435131     O
O     0.2100216 0.3309211 0.564871     O
O     0.2100216 0.435131 0.3309211     O
O     0.2100216 0.435131 0.6690811     O
O     0.2100216 0.564871 0.3309211     O
O     0.2100216 0.564871 0.6690811     O
O     0.2100216 0.6690811 0.435131     O
O     0.2100216 0.6690811 0.564871     O
C      0.21039  0.09194 0.320911     C
C      0.21039  0.09194 0.679111     C
C      0.21039 0.320911  0.09194     C
C      0.21039 0.320911  0.90814     C
C      0.21039 0.679111  0.09194     C
C      0.21039 0.679111  0.90814     C
C      0.21039  0.90814 0.320911     C
C      0.21039  0.90814 0.679111     C
C     0.2114318 0.0864816  0.19302     C
C     0.2114318 0.0864816  0.80702     C
C     0.2114318  0.19302 0.0864816     C
C     0.2114318  0.19302 0.9135216     C
C     0.2114318  0.80702 0.0864816     C
C     0.2114318  0.80702 0.9135216     C
C     0.2114318 0.9135216  0.19302     C
C     0.2114318 0.9135216  0.80702     C
O     0.211938 0.042311 0.450499     O
O     0.211938 0.042311 0.549519     O
O     0.211938 0.450499 0.042311     O
O     0.211938 0.450499 0.957691     O
O     0.211938 0.549519 0.042311     O
O     0.211938 0.549519 0.957691     O
O     0.211938 0.957691 0.450499     O
O     0.211938 0.957691 0.549519     O
Zr    0.2124458 0.3621698 0.4087128    Zr
Zr    0.2124458 0.3621698 0.5912888    Zr
Zr    0.2124458 0.4087128 0.3621698    Zr
Zr    0.2124458 0.4087128 0.6378318    Zr
Zr    0.2124458 0.5912888 0.3621698    Zr
Zr    0.2124458 0.6378318 0.4087128    Zr
Zr    0.2124459 0.5912889 0.6378319    Zr
Zr    0.2124459 0.6378319 0.5912889    Zr
H       0.2135   0.2695   0.3027     H
H       0.2135   0.2695   0.6973     H
H       0.2135   0.3027   0.2695     H
H       0.2135   0.3027   0.7305     H
H       0.2135   0.6973   0.2695     H
H       0.2135   0.6973   0.7305     H
H       0.2135   0.7305   0.3027     H
H       0.2135   0.7305   0.6973     H
O      0.21507  0.08897  0.30107     O
O      0.21507  0.08897  0.69907     O
O      0.21507  0.30107  0.08897     O
O      0.21507  0.30107  0.91117     O
O      0.21507  0.69907  0.08897     O
O      0.21507  0.69907  0.91117     O
O      0.21507  0.91117  0.30107     O
O      0.21507  0.91117  0.69907     O
H        0.216   0.0724   0.1841     H
H        0.216   0.0724   0.8159     H
H        0.216   0.1841   0.0724     H
H        0.216   0.1841   0.9276     H
H        0.216   0.8159   0.0724     H
H        0.216   0.8159   0.9276     H
H        0.216   0.9276   0.1841     H
H        0.216   0.9276   0.8159     H
Zr    0.21607111 0.3456777 0.3456777    Zr
Zr    0.21607111 0.3456777 0.6543237    Zr
Zr    0.21607111 0.6543237 0.3456777    Zr
Zr    0.21607111 0.6543237 0.6543237    Zr
C      0.21738  0.15399  0.39078     C
C      0.21738  0.15399  0.60938     C
C      0.21738  0.39078  0.15399     C
C      0.21738  0.39078  0.84619     C
C      0.21738  0.60938  0.15399     C
C      0.21738  0.60938  0.84619     C
C      0.21738  0.84619  0.39078     C
C      0.21738  0.84619  0.60938     C
O     0.2217411 0.372457 0.372457     O
O     0.2217411 0.372457 0.627557     O
O     0.2217411 0.627557 0.372457     O
O     0.2217411 0.627557 0.627557     O
C     0.2217813 0.1089913 0.1894513     C
C     0.2217813 0.1089913 0.8105513     C
C     0.2217813 0.1894513 0.1089913     C
C     0.2217813 0.1894513 0.8910113     C
C     0.2217813 0.8105513 0.1089913     C
C     0.2217813 0.8105513 0.8910113     C
C     0.2217813 0.8910113 0.1894513     C
C     0.2217813 0.8910113 0.8105513     C
O     0.224521 0.037761      0.5     O
O     0.224521      0.5 0.037761     O
O     0.224521      0.5 0.962241     O
O     0.224521 0.962241      0.5     O
O     0.230391      0.0 0.471981     O
O     0.230391 0.471981      0.0     O
O     0.230399      0.0 0.528029     O
O     0.230399 0.528029      0.0     O
H       0.2305   0.1973   0.2865     H
H       0.2305   0.1973   0.7135     H
H       0.2305   0.2865   0.1973     H
H       0.2305   0.2865   0.8027     H
H       0.2305   0.7135   0.1973     H
H       0.2305   0.7135   0.8027     H
H       0.2305   0.8027   0.2865     H
H       0.2305   0.8027   0.7135     H
C     0.230541 0.1705513 0.3132712     C
C     0.230541 0.1705513 0.6867312     C
C     0.230541 0.3132712 0.1705513     C
C     0.230541 0.3132712 0.8294513     C
C     0.230541 0.6867312 0.1705513     C
C     0.230541 0.6867312 0.8294513     C
C     0.230541 0.8294513 0.3132712     C
C     0.230541 0.8294513 0.6867312     C
C      0.23389  0.13219  0.39038     C
C      0.23389  0.13219  0.60978     C
C      0.23389  0.39038  0.13219     C
C      0.23389  0.39038  0.86799     C
C      0.23389  0.60978  0.13219     C
C      0.23389  0.60978  0.86799     C
C      0.23389  0.86799  0.39038     C
C      0.23389  0.86799  0.60978     C
S      0.23432  0.17884  0.40124     S
S      0.23432  0.17884  0.59884     S
S      0.23432  0.40124  0.17884     S
S      0.23432  0.40124  0.82124     S
S      0.23432  0.59884  0.17884     S
S      0.23432  0.59884  0.82124     S
S      0.23432  0.82124  0.40124     S
S      0.23432  0.82124  0.59884     S
C     0.2388012 0.1905614 0.3001314     C
C     0.2388012 0.1905614 0.6998714     C
C     0.2388012 0.3001314 0.1905614     C
C     0.2388012 0.3001314 0.8094414     C
C     0.2388012 0.6998714 0.1905614     C
C     0.2388012 0.6998714 0.8094414     C
C     0.2388012 0.8094414 0.3001314     C
C     0.2388012 0.8094414 0.6998714     C
C      0.23947  0.09488  0.33857     C
C      0.23947  0.09488  0.66157     C
C      0.23947  0.33857  0.09488     C
C      0.23947  0.33857  0.90528     C
C      0.23947  0.66157  0.09488     C
C      0.23947  0.66157  0.90528     C
C      0.23947  0.90528  0.33857     C
C      0.23947  0.90528  0.66157     C
O     0.242549 0.3815811 0.426841     O
O     0.242549 0.3815811 0.573161     O
O     0.242549 0.426841 0.3815811     O
O     0.242549 0.426841 0.6184211     O
O     0.242549 0.573161 0.3815811     O
O     0.242549 0.573161 0.6184211     O
O     0.242549 0.6184211 0.426841     O
O     0.242549 0.6184211 0.573161     O
C     0.2434511 0.1153211 0.1729511     C
C     0.2434511 0.1153211 0.8270511     C
C     0.2434511 0.1729511 0.1153211     C
C     0.2434511 0.1729511 0.8846811     C
C     0.2434511 0.8270511 0.1153211     C
C     0.2434511 0.8270511 0.8846811     C
C     0.2434511 0.8846811 0.1729511     C
C     0.2434511 0.8846811 0.8270511     C
C      0.24379  0.10339  0.36428     C
C      0.24379  0.10339  0.63588     C
C      0.24379  0.36428  0.10339     C
C      0.24379  0.36428  0.89679     C
C      0.24379  0.63588  0.10339     C
C      0.24379  0.63588  0.89679     C
C      0.24379  0.89679  0.36428     C
C      0.24379  0.89679  0.63588     C
O     0.246751 0.073341 0.4689914     O
O     0.246751 0.073341 0.5310114     O
O     0.246751 0.4689914 0.073341     O
O     0.246751 0.4689914 0.926661     O
O     0.246751 0.5310114 0.073341     O
O     0.246751 0.5310114 0.926661     O
O     0.246751 0.926661 0.4689914     O
O     0.246751 0.926661 0.5310114     O
O     0.247791 0.339251 0.402841     O
O     0.247791 0.402841 0.339251     O
O     0.247791 0.402841 0.660751     O
O     0.247791 0.660751 0.402841     O
O     0.247799 0.339259 0.597169     O
O     0.247799 0.597169 0.339259     O
O     0.247799 0.597169 0.660759     O
O     0.247799 0.660759 0.597169     O
O     0.249077 0.327087 0.362607     O
O     0.249077 0.327087 0.637407     O
O     0.249077 0.362607 0.327087     O
O     0.249077 0.362607 0.672927     O
O     0.249077 0.637407 0.327087     O
O     0.249077 0.637407 0.672927     O
O     0.249077 0.672927 0.362607     O
O     0.249077 0.672927 0.637407     O
Zr        0.25 0.0329728 0.4670288    Zr
Zr        0.25 0.0329728 0.5329728    Zr
S         0.25 0.162773 0.337233     S
S         0.25 0.162773 0.662773     S
S         0.25 0.337233 0.162773     S
S         0.25 0.337233 0.837233     S
Zr        0.25 0.4670288 0.0329728    Zr
Zr        0.25 0.4670288 0.9670288    Zr
Zr        0.25 0.5329728 0.0329728    Zr
Zr        0.25 0.5329728 0.9670288    Zr
S         0.25 0.662773 0.162773     S
S         0.25 0.662773 0.837233     S
S         0.25 0.837233 0.337233     S
S         0.25 0.837233 0.662773     S
Zr        0.25 0.9670288 0.4670288    Zr
Zr        0.25 0.9670288 0.5329728    Zr
O     0.250937 0.137407 0.172927     O
O     0.250937 0.137407 0.827087     O
O     0.250937 0.172927 0.137407     O
O     0.250937 0.172927 0.862607     O
O     0.250937 0.827087 0.137407     O
O     0.250937 0.827087 0.862607     O
O     0.250937 0.862607 0.172927     O
O     0.250937 0.862607 0.827087     O
O     0.252211 0.097161 0.160751     O
O     0.252211 0.097161 0.839251     O
O     0.252211 0.160751 0.097161     O
O     0.252211 0.839251 0.097161     O
O     0.252219 0.160759 0.902849     O
O     0.252219 0.839259 0.902849     O
O     0.252219 0.902849 0.160759     O
O     0.252219 0.902849 0.839259     O
O     0.253251 0.0310114 0.426661     O
O     0.253251 0.0310114 0.573341     O
O     0.253251 0.426661 0.0310114     O
O     0.253251 0.426661 0.9689914     O
O     0.253251 0.573341 0.0310114     O
O     0.253251 0.573341 0.9689914     O
O     0.253251 0.9689914 0.426661     O
O     0.253251 0.9689914 0.573341     O
C      0.25639  0.13588  0.39679     C
C      0.25639  0.13588  0.60339     C
C      0.25639  0.39679  0.13588     C
C      0.25639  0.39679  0.86428     C
C      0.25639  0.60339  0.13588     C
C      0.25639  0.60339  0.86428     C
C      0.25639  0.86428  0.39679     C
C      0.25639  0.86428  0.60339     C
C     0.2565511 0.3270511 0.3846811     C
C     0.2565511 0.3270511 0.6153211     C
C     0.2565511 0.3846811 0.3270511     C
C     0.2565511 0.3846811 0.6729511     C
C     0.2565511 0.6153211 0.3270511     C
C     0.2565511 0.6153211 0.6729511     C
C     0.2565511 0.6729511 0.3846811     C
C     0.2565511 0.6729511 0.6153211     C
O     0.257469 0.073161 0.1184211     O
O     0.257469 0.073161 0.8815811     O
O     0.257469 0.1184211 0.073161     O
O     0.257469 0.1184211 0.926841     O
O     0.257469 0.8815811 0.073161     O
O     0.257469 0.8815811 0.926841     O
O     0.257469 0.926841 0.1184211     O
O     0.257469 0.926841 0.8815811     O
C      0.26067  0.16157  0.40528     C
C      0.26067  0.16157  0.59488     C
C      0.26067  0.40528  0.16157     C
C      0.26067  0.40528  0.83857     C
C      0.26067  0.59488  0.16157     C
C      0.26067  0.59488  0.83857     C
C      0.26067  0.83857  0.40528     C
C      0.26067  0.83857  0.59488     C
C     0.2612012 0.1998714 0.3094414     C
C     0.2612012 0.1998714 0.6905614     C
C     0.2612012 0.3094414 0.1998714     C
C     0.2612012 0.3094414 0.8001314     C
C     0.2612012 0.6905614 0.1998714     C
C     0.2612012 0.6905614 0.8001314     C
C     0.2612012 0.8001314 0.3094414     C
C     0.2612012 0.8001314 0.6905614     C
S      0.26572  0.09884  0.32124     S
S      0.26572  0.09884  0.67884     S
S      0.26572  0.32124  0.09884     S
S      0.26572  0.32124  0.90124     S
S      0.26572  0.67884  0.09884     S
S      0.26572  0.67884  0.90124     S
S      0.26572  0.90124  0.32124     S
S      0.26572  0.90124  0.67884     S
C      0.26629  0.10978  0.36799     C
C      0.26629  0.10978  0.63219     C
C      0.26629  0.36799  0.10978     C
C      0.26629  0.36799  0.89038     C
C      0.26629  0.63219  0.10978     C
C      0.26629  0.63219  0.89038     C
C      0.26629  0.89038  0.36799     C
C      0.26629  0.89038  0.63219     C
C     0.269461 0.1867312 0.3294513     C
C     0.269461 0.1867312 0.6705513     C
C     0.269461 0.3294513 0.1867312     C
C     0.269461 0.3294513 0.8132712     C
C     0.269461 0.6705513 0.1867312     C
C     0.269461 0.6705513 0.8132712     C
C     0.269461 0.8132712 0.3294513     C
C     0.269461 0.8132712 0.6705513     C
H       0.2695   0.2135   0.3027     H
H       0.2695   0.2135   0.6973     H
H       0.2695   0.3027   0.2135     H
H       0.2695   0.3027   0.7865     H
H       0.2695   0.6973   0.2135     H
H       0.2695   0.6973   0.7865     H
H       0.2695   0.7865   0.3027     H
H       0.2695   0.7865   0.6973     H
O     0.269611 0.028021      0.5     O
O     0.269611      0.5 0.028021     O
O     0.269619      0.5 0.971989     O
O     0.269619 0.971989      0.5     O
O     0.275481      0.0 0.462241     O
O     0.275481      0.0 0.537761     O
O     0.275481 0.462241      0.0     O
O     0.275481 0.537761      0.0     O
C     0.2782213 0.3105513 0.3910113     C
C     0.2782213 0.3105513 0.6089913     C
C     0.2782213 0.3910113 0.3105513     C
C     0.2782213 0.3910113 0.6894513     C
C     0.2782213 0.6089913 0.3105513     C
C     0.2782213 0.6089913 0.6894513     C
C     0.2782213 0.6894513 0.3910113     C
C     0.2782213 0.6894513 0.6089913     C
O     0.2782611 0.127557 0.127557     O
O     0.2782611 0.127557 0.872457     O
O     0.2782611 0.872457 0.127557     O
O     0.2782611 0.872457 0.872457     O
C      0.28278  0.10938  0.34619     C
C      0.28278  0.10938  0.65399     C
C      0.28278  0.34619  0.10938     C
C      0.28278  0.34619  0.89078     C
C      0.28278  0.65399  0.10938     C
C      0.28278  0.65399  0.89078     C
C      0.28278  0.89078  0.34619     C
C      0.28278  0.89078  0.65399     C
Zr    0.28392911 0.1543237 0.1543237    Zr
Zr    0.28392911 0.1543237 0.8456777    Zr
Zr    0.28392911 0.8456777 0.1543237    Zr
Zr    0.28392911 0.8456777 0.8456777    Zr
H        0.284   0.3159   0.4276     H
H        0.284   0.3159   0.5724     H
H        0.284   0.4276   0.3159     H
H        0.284   0.4276   0.6841     H
H        0.284   0.5724   0.3159     H
H        0.284   0.5724   0.6841     H
H        0.284   0.6841   0.4276     H
H        0.284   0.6841   0.5724     H
O      0.28507  0.19907  0.41117     O
O      0.28507  0.19907  0.58897     O
O      0.28507  0.41117  0.19907     O
O      0.28507  0.41117  0.80107     O
O      0.28507  0.58897  0.19907     O
O      0.28507  0.58897  0.80107     O
O      0.28507  0.80107  0.41117     O
O      0.28507  0.80107  0.58897     O
H       0.2865   0.1973   0.2305     H
H       0.2865   0.1973   0.7695     H
H       0.2865   0.2305   0.1973     H
H       0.2865   0.2305   0.8027     H
H       0.2865   0.7695   0.1973     H
H       0.2865   0.7695   0.8027     H
H       0.2865   0.8027   0.2305     H
H       0.2865   0.8027   0.7695     H
Zr    0.2875558 0.0912888 0.1378318    Zr
Zr    0.2875558 0.0912888 0.8621698    Zr
Zr    0.2875558 0.1378318 0.0912888    Zr
Zr    0.2875558 0.1378318 0.9087128    Zr
Zr    0.2875558 0.8621698 0.0912888    Zr
Zr    0.2875558 0.8621698 0.9087128    Zr
Zr    0.2875558 0.9087128 0.1378318    Zr
Zr    0.2875558 0.9087128 0.8621698    Zr
O     0.288078 0.049519 0.457691     O
O     0.288078 0.049519 0.542311     O
O     0.288078 0.457691 0.049519     O
O     0.288078 0.457691 0.950499     O
O     0.288078 0.542311 0.049519     O
O     0.288078 0.542311 0.950499     O
O     0.288078 0.950499 0.457691     O
O     0.288078 0.950499 0.542311     O
C     0.2885718  0.30702 0.4135216     C
C     0.2885718  0.30702 0.5864816     C
C     0.2885718 0.4135216  0.30702     C
C     0.2885718 0.4135216  0.69302     C
C     0.2885718 0.5864816  0.30702     C
C     0.2885718 0.5864816  0.69302     C
C     0.2885718  0.69302 0.4135216     C
C     0.2885718  0.69302 0.5864816     C
C      0.28979 0.179111  0.40814     C
C      0.28979 0.179111  0.59194     C
C      0.28979  0.40814 0.179111     C
C      0.28979  0.40814 0.820911     C
C      0.28979  0.59194 0.179111     C
C      0.28979  0.59194 0.820911     C
C      0.28979 0.820911  0.40814     C
C      0.28979 0.820911  0.59194     C
O     0.2899816 0.064871 0.1690811     O
O     0.2899816 0.064871 0.8309211     O
O     0.2899816 0.1690811 0.064871     O
O     0.2899816 0.1690811 0.935131     O
O     0.2899816 0.8309211 0.064871     O
O     0.2899816 0.8309211 0.935131     O
O     0.2899816 0.935131 0.1690811     O
O     0.2899816 0.935131 0.8309211     O
O     0.290618 0.160429 0.194517     O
O     0.290618 0.160429 0.805497     O
O     0.290618 0.194517 0.160429     O
O     0.290618 0.194517 0.839589     O
O     0.290618 0.805497 0.160429     O
O     0.290618 0.805497 0.839589     O
O     0.290618 0.839589 0.194517     O
O     0.290618 0.839589 0.805497     O
S     0.290683 0.290683 0.369184     S
S     0.290683 0.290683 0.630824     S
S     0.290683 0.369184 0.290683     S
S     0.290683 0.369184 0.709323     S
S     0.290683 0.630824 0.290683     S
S     0.290683 0.630824 0.709323     S
S     0.290683 0.709323 0.369184     S
S     0.290683 0.709323 0.630824     S
C     0.292841 0.1899312 0.3439113     C
C     0.292841 0.1899312 0.6560913     C
C     0.292841 0.3439113 0.1899312     C
C     0.292841 0.3439113 0.8100712     C
C     0.292841 0.6560913 0.1899312     C
C     0.292841 0.6560913 0.8100712     C
C     0.292841 0.8100712 0.3439113     C
C     0.292841 0.8100712 0.6560913     C
Zr    0.29595516      0.0      0.5    Zr
Zr    0.29595516      0.5      0.0    Zr
O     0.297248 0.116608 0.169348     O
O     0.297248 0.116608 0.830668     O
O     0.297248 0.169348 0.116608     O
O     0.297248 0.169348 0.883408     O
O     0.297248 0.830668 0.116608     O
O     0.297248 0.830668 0.883408     O
O     0.297248 0.883408 0.169348     O
O     0.297248 0.883408 0.830668     O
O     0.297858 0.172851 0.359111     O
O     0.297858 0.172851 0.640891     O
O     0.297858 0.359111 0.172851     O
O     0.297858 0.359111 0.827151     O
O     0.297858 0.640891 0.172851     O
O     0.297858 0.640891 0.827151     O
O     0.297858 0.827151 0.359111     O
O     0.297858 0.827151 0.640891     O
O     0.2993911 0.098738 0.098738     O
O     0.2993911 0.098738 0.901278     O
O     0.2993911 0.901278 0.098738     O
O     0.2993911 0.901278 0.901278     O
C     0.3001314 0.1905614 0.2388012     C
C     0.3001314 0.1905614 0.7612012     C
C     0.3001314 0.2388012 0.1905614     C
C     0.3001314 0.2388012 0.8094414     C
C     0.3001314 0.7612012 0.1905614     C
C     0.3001314 0.7612012 0.8094414     C
C     0.3001314 0.8094414 0.2388012     C
C     0.3001314 0.8094414 0.7612012     C
O      0.30107  0.08897  0.21507     O
O      0.30107  0.08897  0.78507     O
O      0.30107  0.21507  0.08897     O
O      0.30107  0.21507  0.91117     O
O      0.30107  0.78507  0.08897     O
O      0.30107  0.78507  0.91117     O
O      0.30107  0.91117  0.21507     O
O      0.30107  0.91117  0.78507     O
H       0.3027   0.2135   0.2695     H
H       0.3027   0.2135   0.7305     H
H       0.3027   0.2695   0.2135     H
H       0.3027   0.2695   0.7865     H
H       0.3027   0.7305   0.2135     H
H       0.3027   0.7305   0.7865     H
H       0.3027   0.7865   0.2695     H
H       0.3027   0.7865   0.7305     H
O     0.303591 0.123161 0.945377     O
O     0.303591 0.876841 0.945377     O
O     0.303591 0.945377 0.123161     O
O     0.303591 0.945377 0.876841     O
O     0.303599 0.054637 0.123169     O
O     0.303599 0.054637 0.876849     O
O     0.303599 0.123169 0.054637     O
O     0.303599 0.876849 0.054637     O
O     0.3046911 0.1645513 0.4082912     O
O     0.3046911 0.1645513 0.5917112     O
O     0.3046911 0.4082912 0.1645513     O
O     0.3046911 0.4082912 0.8354513     O
O     0.3046911 0.5917112 0.1645513     O
O     0.3046911 0.5917112 0.8354513     O
O     0.3046911 0.8354513 0.4082912     O
O     0.3046911 0.8354513 0.5917112     O
O     0.305497 0.209398 0.339581     O
O     0.305497 0.209398 0.660421     O
O     0.305497 0.339581 0.209398     O
O     0.305497 0.339581 0.790618     O
O     0.305497 0.660421 0.209398     O
O     0.305497 0.660421 0.790618     O
O     0.305497 0.790618 0.339581     O
O     0.305497 0.790618 0.660421     O
C      0.30702 0.2885718 0.4135216     C
C      0.30702 0.2885718 0.5864816     C
C      0.30702 0.4135216 0.2885718     C
C      0.30702 0.4135216 0.7114318     C
C      0.30702 0.5864816 0.2885718     C
C      0.30702 0.5864816 0.7114318     C
C      0.30702 0.7114318 0.4135216     C
C      0.30702 0.7114318 0.5864816     C
S     0.308155      0.0 0.116765     S
S     0.308155      0.0 0.883245     S
S     0.308155 0.116765      0.0     S
S     0.308155 0.883245      0.0     S
C      0.30897  0.12217  0.34037     C
C      0.30897  0.12217  0.65977     C
C      0.30897  0.34037  0.12217     C
C      0.30897  0.34037  0.87797     C
C      0.30897  0.65977  0.12217     C
C      0.30897  0.65977  0.87797     C
C      0.30897  0.87797  0.34037     C
C      0.30897  0.87797  0.65977     C
C     0.3094414 0.1998714 0.2612012     C
C     0.3094414 0.1998714 0.7388012     C
C     0.3094414 0.2612012 0.1998714     C
C     0.3094414 0.2612012 0.8001314     C
C     0.3094414 0.7388012 0.1998714     C
C     0.3094414 0.7388012 0.8001314     C
C     0.3094414 0.8001314 0.2612012     C
C     0.3094414 0.8001314 0.7388012     C
C     0.3100311 0.0442911 0.4633012     C
C     0.3100311 0.0442911 0.5367012     C
C     0.3100311 0.4633012 0.0442911     C
C     0.3100311 0.4633012 0.9557111     C
C     0.3100311 0.5367012 0.0442911     C
C     0.3100311 0.5367012 0.9557111     C
C     0.3100311 0.9557111 0.4633012     C
C     0.3100311 0.9557111 0.5367012     C
C     0.3100712 0.1560913 0.207161     C
C     0.3100712 0.1560913 0.792841     C
C     0.3100712 0.207161 0.1560913     C
C     0.3100712 0.207161 0.8439113     C
C     0.3100712 0.792841 0.1560913     C
C     0.3100712 0.792841 0.8439113     C
C     0.3100712 0.8439113 0.207161     C
C     0.3100712 0.8439113 0.792841     C
C     0.3105513 0.2782213 0.3910113     C
C     0.3105513 0.2782213 0.6089913     C
C     0.3105513 0.3910113 0.2782213     C
C     0.3105513 0.3910113 0.7217813     C
C     0.3105513 0.6089913 0.2782213     C
C     0.3105513 0.6089913 0.7217813     C
C     0.3105513 0.7217813 0.3910113     C
C     0.3105513 0.7217813 0.6089913     C
C     0.3132712 0.1705513 0.230541     C
C     0.3132712 0.1705513 0.769461     C
C     0.3132712 0.230541 0.1705513     C
C     0.3132712 0.230541 0.8294513     C
C     0.3132712 0.769461 0.1705513     C
C     0.3132712 0.769461 0.8294513     C
C     0.3132712 0.8294513 0.230541     C
C     0.3132712 0.8294513 0.769461     C
H       0.3159    0.284   0.4276     H
H       0.3159    0.284   0.5724     H
H       0.3159   0.4276    0.284     H
H       0.3159   0.4276    0.716     H
H       0.3159   0.5724    0.284     H
H       0.3159   0.5724    0.716     H
H       0.3159    0.716   0.4276     H
H       0.3159    0.716   0.5724     H
O     0.317407 0.025877 0.475668     O
O     0.317407 0.025877 0.524348     O
O     0.317407 0.475668 0.025877     O
O     0.317407 0.475668 0.974137     O
O     0.317407 0.524348 0.025877     O
O     0.317407 0.524348 0.974137     O
O     0.317407 0.974137 0.475668     O
O     0.317407 0.974137 0.524348     O
O     0.3177211 0.128111 0.3610713     O
O     0.3177211 0.128111 0.6389313     O
O     0.3177211 0.3610713 0.128111     O
O     0.3177211 0.3610713 0.871891     O
O     0.3177211 0.6389313 0.128111     O
O     0.3177211 0.6389313 0.871891     O
O     0.3177211 0.871891 0.3610713     O
O     0.3177211 0.871891 0.6389313     O
O      0.31784  0.11808  0.31784     O
O      0.31784  0.11808  0.68224     O
O      0.31784  0.31784  0.11808     O
O      0.31784  0.31784  0.88208     O
O      0.31784  0.68224  0.11808     O
O      0.31784  0.68224  0.88208     O
O      0.31784  0.88208  0.31784     O
O      0.31784  0.88208  0.68224     O
S     0.320493 0.085543 0.434244     S
S     0.320493 0.085543 0.565764     S
S     0.320493 0.434244 0.085543     S
S     0.320493 0.434244 0.914463     S
S     0.320493 0.565764 0.085543     S
S     0.320493 0.565764 0.914463     S
S     0.320493 0.914463 0.434244     S
S     0.320493 0.914463 0.565764     S
C     0.320911  0.09194  0.21039     C
C     0.320911  0.09194  0.78979     C
C     0.320911  0.21039  0.09194     C
C     0.320911  0.21039  0.90814     C
C     0.320911  0.78979  0.09194     C
C     0.320911  0.78979  0.90814     C
C     0.320911  0.90814  0.21039     C
C     0.320911  0.90814  0.78979     C
S      0.32124  0.09884  0.26572     S
S      0.32124  0.09884  0.73432     S
S      0.32124  0.26572  0.09884     S
S      0.32124  0.26572  0.90124     S
S      0.32124  0.73432  0.09884     S
S      0.32124  0.73432  0.90124     S
S      0.32124  0.90124  0.26572     S
S      0.32124  0.90124  0.73432     S
C     0.3218411 0.049361 0.1095311     C
C     0.3218411 0.049361 0.8904711     C
C     0.3218411 0.1095311 0.049361     C
C     0.3218411 0.1095311 0.950641     C
C     0.3218411 0.8904711 0.049361     C
C     0.3218411 0.8904711 0.950641     C
C     0.3218411 0.950641 0.1095311     C
C     0.3218411 0.950641 0.8904711     C
O     0.322761 0.152578 0.152578     O
O     0.322761 0.152578 0.847438     O
O     0.322761 0.847438 0.152578     O
O     0.322761 0.847438 0.847438     O
O     0.325607 0.098438 0.138327     O
O     0.325607 0.098438 0.861687     O
O     0.325607 0.138327 0.098438     O
O     0.325607 0.138327 0.901578     O
O     0.325607 0.861687 0.098438     O
O     0.325607 0.861687 0.901578     O
O     0.325607 0.901578 0.138327     O
O     0.325607 0.901578 0.861687     O
C     0.3270511 0.2565511 0.3846811     C
C     0.3270511 0.2565511 0.6153211     C
C     0.3270511 0.3846811 0.2565511     C
C     0.3270511 0.3846811 0.7434511     C
C     0.3270511 0.6153211 0.2565511     C
C     0.3270511 0.6153211 0.7434511     C
C     0.3270511 0.7434511 0.3846811     C
C     0.3270511 0.7434511 0.6153211     C
O     0.327087 0.249077 0.362607     O
O     0.327087 0.249077 0.637407     O
O     0.327087 0.362607 0.249077     O
O     0.327087 0.362607 0.750937     O
O     0.327087 0.637407 0.249077     O
O     0.327087 0.637407 0.750937     O
O     0.327087 0.750937 0.362607     O
O     0.327087 0.750937 0.637407     O
O     0.327151 0.140891 0.202158     O
O     0.327151 0.140891 0.797858     O
O     0.327151 0.202158 0.140891     O
O     0.327151 0.202158 0.859111     O
O     0.327151 0.797858 0.140891     O
O     0.327151 0.797858 0.859111     O
O     0.327151 0.859111 0.202158     O
O     0.327151 0.859111 0.797858     O
C     0.3272114 0.022731 0.1052916     C
C     0.3272114 0.022731 0.8947116     C
C     0.3272114 0.1052916 0.022731     C
C     0.3272114 0.1052916 0.977271     C
C     0.3272114 0.8947116 0.022731     C
C     0.3272114 0.8947116 0.977271     C
C     0.3272114 0.977271 0.1052916     C
C     0.3272114 0.977271 0.8947116     C
C     0.3293012 0.0617912 0.4535414     C
C     0.3293012 0.0617912 0.5464614     C
C     0.3293012 0.4535414 0.0617912     C
C     0.3293012 0.4535414 0.9382112     C
C     0.3293012 0.5464614 0.0617912     C
C     0.3293012 0.5464614 0.9382112     C
C     0.3293012 0.9382112 0.4535414     C
C     0.3293012 0.9382112 0.5464614     C
C     0.3294513 0.1867312 0.269461     C
C     0.3294513 0.1867312 0.730541     C
C     0.3294513 0.269461 0.1867312     C
C     0.3294513 0.269461 0.8132712     C
C     0.3294513 0.730541 0.1867312     C
C     0.3294513 0.730541 0.8132712     C
C     0.3294513 0.8132712 0.269461     C
C     0.3294513 0.8132712 0.730541     C
O     0.330668 0.202768 0.383408     O
O     0.330668 0.202768 0.616608     O
O     0.330668 0.383408 0.202768     O
O     0.330668 0.383408 0.797248     O
O     0.330668 0.616608 0.202768     O
O     0.330668 0.616608 0.797248     O
O     0.330668 0.797248 0.383408     O
O     0.330668 0.797248 0.616608     O
O     0.3309211 0.2100216 0.435131     O
O     0.3309211 0.2100216 0.564871     O
O     0.3309211 0.435131 0.2100216     O
O     0.3309211 0.435131 0.7899816     O
O     0.3309211 0.564871 0.2100216     O
O     0.3309211 0.564871 0.7899816     O
O     0.3309211 0.7899816 0.435131     O
O     0.3309211 0.7899816 0.564871     O
Zr    0.3327918 0.1612219 0.3795729    Zr
Zr    0.3327918 0.1612219 0.6204289    Zr
Zr    0.3327918 0.3795729 0.1612219    Zr
Zr    0.3327918 0.3795729 0.8387799    Zr
Zr    0.3327918 0.6204289 0.1612219    Zr
Zr    0.3327918 0.6204289 0.8387799    Zr
Zr    0.3327918 0.8387799 0.3795729    Zr
Zr    0.3327918 0.8387799 0.6204289    Zr
O     0.3354513 0.0917112 0.1953111     O
O     0.3354513 0.0917112 0.8046911     O
O     0.3354513 0.1953111 0.0917112     O
O     0.3354513 0.1953111 0.9082912     O
O     0.3354513 0.8046911 0.0917112     O
O     0.3354513 0.8046911 0.9082912     O
O     0.3354513 0.9082912 0.1953111     O
O     0.3354513 0.9082912 0.8046911     O
O     0.337017 0.064426 0.099567     O
O     0.337017 0.064426 0.900447     O
O     0.337017 0.099567 0.064426     O
O     0.337017 0.099567 0.935586     O
O     0.337017 0.900447 0.064426     O
O     0.337017 0.900447 0.935586     O
O     0.337017 0.935586 0.099567     O
O     0.337017 0.935586 0.900447     O
S     0.337233 0.162773     0.25     S
S     0.337233 0.162773     0.75     S
S     0.337233     0.25 0.162773     S
S     0.337233     0.25 0.837233     S
S     0.337233     0.75 0.162773     S
S     0.337233     0.75 0.837233     S
S     0.337233 0.837233     0.25     S
S     0.337233 0.837233     0.75     S
O     0.337688 0.128849 0.406631     O
O     0.337688 0.128849 0.593371     O
O     0.337688 0.406631 0.128849     O
O     0.337688 0.406631 0.871169     O
O     0.337688 0.593371 0.128849     O
O     0.337688 0.593371 0.871169     O
O     0.337688 0.871169 0.406631     O
O     0.337688 0.871169 0.593371     O
C      0.33857  0.09488  0.23947     C
C      0.33857  0.09488  0.76067     C
C      0.33857  0.23947  0.09488     C
C      0.33857  0.23947  0.90528     C
C      0.33857  0.76067  0.09488     C
C      0.33857  0.76067  0.90528     C
C      0.33857  0.90528  0.23947     C
C      0.33857  0.90528  0.76067     C
Zr    0.3387799 0.1204289 0.1672098    Zr
Zr    0.3387799 0.1204289 0.8327918    Zr
Zr    0.3387799 0.1672098 0.1204289    Zr
Zr    0.3387799 0.1672098 0.8795729    Zr
Zr    0.3387799 0.8327918 0.1204289    Zr
Zr    0.3387799 0.8327918 0.8795729    Zr
Zr    0.3387799 0.8795729 0.1672098    Zr
Zr    0.3387799 0.8795729 0.8327918    Zr
O     0.339251 0.247791 0.402841     O
O     0.339251 0.402841 0.247791     O
O     0.339251 0.402841 0.752211     O
O     0.339251 0.752211 0.402841     O
O     0.339259 0.247799 0.597169     O
O     0.339259 0.597169 0.247799     O
O     0.339259 0.597169 0.752219     O
O     0.339259 0.752219 0.597169     O
O     0.339581 0.209398 0.305497     O
O     0.339581 0.305497 0.209398     O
O     0.339581 0.305497 0.790618     O
O     0.339581 0.790618 0.305497     O
O     0.339589 0.209398 0.694517     O
O     0.339589 0.694517 0.209398     O
O     0.339589 0.694517 0.790618     O
O     0.339589 0.790618 0.694517     O
C      0.34037  0.12217  0.30897     C
C      0.34037  0.12217  0.69117     C
C      0.34037  0.30897  0.12217     C
C      0.34037  0.30897  0.87797     C
C      0.34037  0.69117  0.12217     C
C      0.34037  0.69117  0.87797     C
C      0.34037  0.87797  0.30897     C
C      0.34037  0.87797  0.69117     C
Zr    0.3425821 0.1043337 0.1043337    Zr
Zr    0.3425821 0.1043337 0.8956677    Zr
Zr    0.3425821 0.8956677 0.1043337    Zr
Zr    0.3425821 0.8956677 0.8956677    Zr
C     0.3439113 0.1899312 0.292841     C
C     0.3439113 0.1899312 0.707161     C
C     0.3439113 0.292841 0.1899312     C
C     0.3439113 0.292841 0.8100712     C
C     0.3439113 0.707161 0.1899312     C
C     0.3439113 0.707161 0.8100712     C
C     0.3439113 0.8100712 0.292841     C
C     0.3439113 0.8100712 0.707161     C
Zr    0.3456777 0.21607111 0.3456777    Zr
Zr    0.3456777 0.21607111 0.6543237    Zr
Zr    0.3456777 0.3456777 0.21607111    Zr
Zr    0.3456777 0.3456777 0.78392911    Zr
Zr    0.3456777 0.6543237 0.21607111    Zr
Zr    0.3456777 0.6543237 0.78392911    Zr
Zr    0.3456777 0.78392911 0.3456777    Zr
Zr    0.3456777 0.78392911 0.6543237    Zr
C      0.34619  0.10938  0.28278     C
C      0.34619  0.10938  0.71738     C
C      0.34619  0.28278  0.10938     C
C      0.34619  0.28278  0.89078     C
C      0.34619  0.71738  0.10938     C
C      0.34619  0.71738  0.89078     C
C      0.34619  0.89078  0.28278     C
C      0.34619  0.89078  0.71738     C
C      0.34722 0.0132013  0.09312     C
C      0.34722 0.0132013  0.90692     C
C      0.34722  0.09312 0.0132013     C
C      0.34722  0.09312 0.9868013     C
C      0.34722  0.90692 0.0132013     C
C      0.34722  0.90692 0.9868013     C
C      0.34722 0.9868013  0.09312     C
C      0.34722 0.9868013  0.90692     C
O     0.347438 0.177241 0.347438     O
O     0.347438 0.177241 0.652578     O
O     0.347438 0.347438 0.177241     O
O     0.347438 0.347438 0.822761     O
O     0.347438 0.652578 0.177241     O
O     0.347438 0.652578 0.822761     O
O     0.347438 0.822761 0.347438     O
O     0.347438 0.822761 0.652578     O
C     0.3505611 0.0961912 0.4320114     C
C     0.3505611 0.0961912 0.5679914     C
C     0.3505611 0.4320114 0.0961912     C
C     0.3505611 0.4320114 0.9038112     C
C     0.3505611 0.5679914 0.0961912     C
C     0.3505611 0.5679914 0.9038112     C
C     0.3505611 0.9038112 0.4320114     C
C     0.3505611 0.9038112 0.5679914     C
C     0.3538413 0.0623516  0.45842     C
C     0.3538413 0.0623516  0.54162     C
C     0.3538413  0.45842 0.0623516     C
C     0.3538413  0.45842 0.9376516     C
C     0.3538413  0.54162 0.0623516     C
C     0.3538413  0.54162 0.9376516     C
C     0.3538413 0.9376516  0.45842     C
C     0.3538413 0.9376516  0.54162     C
C     0.3562511 0.1181511 0.4166712     C
C     0.3562511 0.1181511 0.5833312     C
C     0.3562511 0.4166712 0.1181511     C
C     0.3562511 0.4166712 0.8818511     C
C     0.3562511 0.5833312 0.1181511     C
C     0.3562511 0.5833312 0.8818511     C
C     0.3562511 0.8818511 0.4166712     C
C     0.3562511 0.8818511 0.5833312     C
O     0.3583712 0.131937 0.131937     O
O     0.3583712 0.131937 0.868077     O
O     0.3583712 0.868077 0.131937     O
O     0.3583712 0.868077 0.868077     O
O     0.359111 0.172851 0.297858     O
O     0.359111 0.172851 0.702158     O
O     0.359111 0.297858 0.172851     O
O     0.359111 0.297858 0.827151     O
O     0.359111 0.702158 0.172851     O
O     0.359111 0.702158 0.827151     O
O     0.359111 0.827151 0.297858     O
O     0.359111 0.827151 0.702158     O
H       0.3595   0.0229   0.0856     H
H       0.3595   0.0229   0.9144     H
H       0.3595   0.0856   0.0229     H
H       0.3595   0.0856   0.9771     H
H       0.3595   0.9144   0.0229     H
H       0.3595   0.9144   0.9771     H
H       0.3595   0.9771   0.0856     H
H       0.3595   0.9771   0.9144     H
O     0.3610713 0.128111 0.3177211     O
O     0.3610713 0.128111 0.6822811     O
O     0.3610713 0.3177211 0.128111     O
O     0.3610713 0.3177211 0.871891     O
O     0.3610713 0.6822811 0.128111     O
O     0.3610713 0.6822811 0.871891     O
O     0.3610713 0.871891 0.3177211     O
O     0.3610713 0.871891 0.6822811     O
O     0.361687 0.174407 0.401578     O
O     0.361687 0.174407 0.598438     O
O     0.361687 0.401578 0.174407     O
O     0.361687 0.401578 0.825607     O
O     0.361687 0.598438 0.174407     O
O     0.361687 0.598438 0.825607     O
O     0.361687 0.825607 0.401578     O
O     0.361687 0.825607 0.598438     O
H       0.3617   0.0511    0.469     H
H       0.3617   0.0511    0.531     H
H       0.3617    0.469   0.0511     H
H       0.3617    0.469   0.9489     H
H       0.3617    0.531   0.0511     H
H       0.3617    0.531   0.9489     H
H       0.3617   0.9489    0.469     H
H       0.3617   0.9489    0.531     H
Zr    0.3621698 0.2124458 0.4087128    Zr
Zr    0.3621698 0.2124458 0.5912888    Zr
Zr    0.3621698 0.4087128 0.2124458    Zr
Zr    0.3621698 0.4087128 0.7875558    Zr
Zr    0.3621698 0.5912888 0.2124458    Zr
Zr    0.3621698 0.5912888 0.7875558    Zr
Zr    0.3621698 0.7875558 0.4087128    Zr
Zr    0.3621698 0.7875558 0.5912888    Zr
O     0.362607 0.249077 0.327087     O
O     0.362607 0.249077 0.672927     O
O     0.362607 0.327087 0.249077     O
O     0.362607 0.327087 0.750937     O
O     0.362607 0.672927 0.249077     O
O     0.362607 0.672927 0.750937     O
O     0.362607 0.750937 0.327087     O
O     0.362607 0.750937 0.672927     O
C      0.36428  0.10339  0.24379     C
C      0.36428  0.10339  0.75639     C
C      0.36428  0.24379  0.10339     C
C      0.36428  0.24379  0.89679     C
C      0.36428  0.75639  0.10339     C
C      0.36428  0.75639  0.89679     C
C      0.36428  0.89679  0.24379     C
C      0.36428  0.89679  0.75639     C
C     0.3666013 0.0820816  0.44572     C
C     0.3666013 0.0820816  0.55432     C
C     0.3666013  0.44572 0.0820816     C
C     0.3666013  0.44572 0.9179216     C
C     0.3666013  0.55432 0.0820816     C
C     0.3666013  0.55432 0.9179216     C
C     0.3666013 0.9179216  0.44572     C
C     0.3666013 0.9179216  0.55432     C
C      0.36799  0.10978  0.26629     C
C      0.36799  0.10978  0.73389     C
C      0.36799  0.26629  0.10978     C
C      0.36799  0.26629  0.89038     C
C      0.36799  0.73389  0.10978     C
C      0.36799  0.73389  0.89038     C
C      0.36799  0.89038  0.26629     C
C      0.36799  0.89038  0.73389     C
O     0.368077 0.1416312 0.368077     O
O     0.368077 0.1416312 0.631937     O
O     0.368077 0.368077 0.1416312     O
O     0.368077 0.368077 0.8583712     O
O     0.368077 0.631937 0.1416312     O
O     0.368077 0.631937 0.8583712     O
O     0.368077 0.8583712 0.368077     O
O     0.368077 0.8583712 0.631937     O
S     0.369184 0.290683 0.290683     S
S     0.369184 0.290683 0.709323     S
S     0.369184 0.709323 0.290683     S
S     0.369184 0.709323 0.709323     S
O     0.371161 0.093371 0.162328     O
O     0.371161 0.093371 0.837688     O
O     0.371161 0.162328 0.093371     O
O     0.371161 0.837688 0.093371     O
O     0.371169 0.162328 0.906631     O
O     0.371169 0.837688 0.906631     O
O     0.371169 0.906631 0.162328     O
O     0.371169 0.906631 0.837688     O
O     0.371891 0.1389313 0.1822811     O
O     0.371891 0.1389313 0.8177211     O
O     0.371891 0.1822811 0.1389313     O
O     0.371891 0.1822811 0.8610713     O
O     0.371891 0.8177211 0.1389313     O
O     0.371891 0.8177211 0.8610713     O
O     0.371891 0.8610713 0.1822811     O
O     0.371891 0.8610713 0.8177211     O
O     0.372457 0.2217411 0.372457     O
O     0.372457 0.2217411 0.627557     O
O     0.372457 0.372457 0.2217411     O
O     0.372457 0.372457 0.7782611     O
O     0.372457 0.627557 0.2217411     O
O     0.372457 0.627557 0.7782611     O
O     0.372457 0.7782611 0.372457     O
O     0.372457 0.7782611 0.627557     O
O     0.375437 0.085298 0.121207     O
O     0.375437 0.085298 0.878807     O
O     0.375437 0.121207 0.085298     O
O     0.375437 0.121207 0.914718     O
O     0.375437 0.878807 0.085298     O
O     0.375437 0.878807 0.914718     O
O     0.375437 0.914718 0.121207     O
O     0.375437 0.914718 0.878807     O
O     0.376841 0.196411 0.554637     O
O     0.376841 0.554637 0.196411     O
O     0.376841 0.554637 0.803591     O
O     0.376841 0.803591 0.554637     O
O     0.376849 0.196419 0.445377     O
O     0.376849 0.445377 0.196419     O
O     0.376849 0.445377 0.803599     O
O     0.376849 0.803599 0.445377     O
C      0.37797  0.15977  0.19117     C
C      0.37797  0.15977  0.80897     C
C      0.37797  0.19117  0.15977     C
C      0.37797  0.19117  0.84037     C
C      0.37797  0.80897  0.15977     C
C      0.37797  0.80897  0.84037     C
C      0.37797  0.84037  0.19117     C
C      0.37797  0.84037  0.80897     C
O     0.378807 0.124577 0.414718     O
O     0.378807 0.124577 0.585298     O
O     0.378807 0.414718 0.124577     O
O     0.378807 0.414718 0.875437     O
O     0.378807 0.585298 0.124577     O
O     0.378807 0.585298 0.875437     O
O     0.378807 0.875437 0.414718     O
O     0.378807 0.875437 0.585298     O
Zr    0.3795729 0.1612219 0.3327918    Zr
Zr    0.3795729 0.1612219 0.6672098    Zr
Zr    0.3795729 0.3327918 0.1612219    Zr
Zr    0.3795729 0.3327918 0.8387799    Zr
Zr    0.3795729 0.6672098 0.1612219    Zr
Zr    0.3795729 0.6672098 0.8387799    Zr
Zr    0.3795729 0.8387799 0.3327918    Zr
Zr    0.3795729 0.8387799 0.6672098    Zr
O     0.3815811 0.242549 0.426841     O
O     0.3815811 0.242549 0.573161     O
O     0.3815811 0.426841 0.242549     O
O     0.3815811 0.426841 0.757469     O
O     0.3815811 0.573161 0.242549     O
O     0.3815811 0.573161 0.757469     O
O     0.3815811 0.757469 0.426841     O
O     0.3815811 0.757469 0.573161     O
C     0.3818511 0.0833312 0.1437511     C
C     0.3818511 0.0833312 0.8562511     C
C     0.3818511 0.1437511 0.0833312     C
C     0.3818511 0.1437511 0.9166712     C
C     0.3818511 0.8562511 0.0833312     C
C     0.3818511 0.8562511 0.9166712     C
C     0.3818511 0.9166712 0.1437511     C
C     0.3818511 0.9166712 0.8562511     C
O      0.38208  0.18224  0.18224     O
O      0.38208  0.18224  0.81784     O
O      0.38208  0.81784  0.18224     O
O      0.38208  0.81784  0.81784     O
S     0.383245 0.191855      0.5     S
S     0.383245      0.5 0.191855     S
S     0.383245      0.5 0.808155     S
S     0.383245 0.808155      0.5     S
O     0.383408 0.202768 0.330668     O
O     0.383408 0.202768 0.669348     O
O     0.383408 0.330668 0.202768     O
O     0.383408 0.330668 0.797248     O
O     0.383408 0.669348 0.202768     O
O     0.383408 0.669348 0.797248     O
O     0.383408 0.797248 0.330668     O
O     0.383408 0.797248 0.669348     O
H       0.3837   0.0849   0.4466     H
H       0.3837   0.0849   0.5534     H
H       0.3837   0.4466   0.0849     H
H       0.3837   0.4466   0.9151     H
H       0.3837   0.5534   0.0849     H
H       0.3837   0.5534   0.9151     H
H       0.3837   0.9151   0.4466     H
H       0.3837   0.9151   0.5534     H
C     0.3846811 0.2565511 0.3270511     C
C     0.3846811 0.2565511 0.6729511     C
C     0.3846811 0.3270511 0.2565511     C
C     0.3846811 0.3270511 0.7434511     C
C     0.3846811 0.6729511 0.2565511     C
C     0.3846811 0.6729511 0.7434511     C
C     0.3846811 0.7434511 0.3270511     C
C     0.3846811 0.7434511 0.6729511     C
C      0.39038  0.13219  0.23389     C
C      0.39038  0.13219  0.76629     C
C      0.39038  0.23389  0.13219     C
C      0.39038  0.23389  0.86799     C
C      0.39038  0.76629  0.13219     C
C      0.39038  0.76629  0.86799     C
C      0.39038  0.86799  0.23389     C
C      0.39038  0.86799  0.76629     C
C     0.3904711 0.1781611 0.450641     C
C     0.3904711 0.1781611 0.549361     C
C     0.3904711 0.450641 0.1781611     C
C     0.3904711 0.450641 0.8218411     C
C     0.3904711 0.549361 0.1781611     C
C     0.3904711 0.549361 0.8218411     C
C     0.3904711 0.8218411 0.450641     C
C     0.3904711 0.8218411 0.549361     C
C      0.39078  0.15399  0.21738     C
C      0.39078  0.15399  0.78278     C
C      0.39078  0.21738  0.15399     C
C      0.39078  0.21738  0.84619     C
C      0.39078  0.78278  0.15399     C
C      0.39078  0.78278  0.84619     C
C      0.39078  0.84619  0.21738     C
C      0.39078  0.84619  0.78278     C
C     0.3910113 0.2782213 0.3105513     C
C     0.3910113 0.2782213 0.6894513     C
C     0.3910113 0.3105513 0.2782213     C
C     0.3910113 0.3105513 0.7217813     C
C     0.3910113 0.6894513 0.2782213     C
C     0.3910113 0.6894513 0.7217813     C
C     0.3910113 0.7217813 0.3105513     C
C     0.3910113 0.7217813 0.6894513     C
C     0.3947116 0.1727914 0.477271     C
C     0.3947116 0.1727914 0.522731     C
C     0.3947116 0.477271 0.1727914     C
C     0.3947116 0.477271 0.8272114     C
C     0.3947116 0.522731 0.1727914     C
C     0.3947116 0.522731 0.8272114     C
C     0.3947116 0.8272114 0.477271     C
C     0.3947116 0.8272114 0.522731     C
Zr    0.3956677 0.1574181 0.3956677    Zr
Zr    0.3956677 0.1574181 0.6043337    Zr
Zr    0.3956677 0.3956677 0.1574181    Zr
Zr    0.3956677 0.3956677 0.8425821    Zr
Zr    0.3956677 0.6043337 0.1574181    Zr
Zr    0.3956677 0.6043337 0.8425821    Zr
Zr    0.3956677 0.8425821 0.3956677    Zr
Zr    0.3956677 0.8425821 0.6043337    Zr
C      0.39679  0.13588  0.25639     C
C      0.39679  0.13588  0.74379     C
C      0.39679  0.25639  0.13588     C
C      0.39679  0.25639  0.86428     C
C      0.39679  0.74379  0.13588     C
C      0.39679  0.74379  0.86428     C
C      0.39679  0.86428  0.25639     C
C      0.39679  0.86428  0.74379     C
O     0.400447 0.162997 0.435586     O
O     0.400447 0.162997 0.564426     O
O     0.400447 0.435586 0.162997     O
O     0.400447 0.435586 0.837017     O
O     0.400447 0.564426 0.162997     O
O     0.400447 0.564426 0.837017     O
O     0.400447 0.837017 0.435586     O
O     0.400447 0.837017 0.564426     O
S      0.40124  0.17884  0.23432     S
S      0.40124  0.17884  0.76572     S
S      0.40124  0.23432  0.17884     S
S      0.40124  0.23432  0.82124     S
S      0.40124  0.76572  0.17884     S
S      0.40124  0.76572  0.82124     S
S      0.40124  0.82124  0.23432     S
S      0.40124  0.82124  0.76572     S
O     0.401278 0.2006111 0.401278     O
O     0.401278 0.2006111 0.598738     O
O     0.401278 0.401278 0.2006111     O
O     0.401278 0.401278 0.7993911     O
O     0.401278 0.598738 0.2006111     O
O     0.401278 0.598738 0.7993911     O
O     0.401278 0.7993911 0.401278     O
O     0.401278 0.7993911 0.598738     O
O     0.401578 0.174407 0.361687     O
O     0.401578 0.174407 0.638327     O
O     0.401578 0.361687 0.174407     O
O     0.401578 0.361687 0.825607     O
O     0.401578 0.638327 0.174407     O
O     0.401578 0.638327 0.825607     O
O     0.401578 0.825607 0.361687     O
O     0.401578 0.825607 0.638327     O
O     0.402841 0.247791 0.339251     O
O     0.402841 0.247791 0.660751     O
O     0.402841 0.339251 0.247791     O
O     0.402841 0.339251 0.752211     O
O     0.402841 0.660751 0.247791     O
O     0.402841 0.660751 0.752211     O
O     0.402841 0.752211 0.339251     O
O     0.402841 0.752211 0.660751     O
C     0.4038112 0.0679914 0.1494411     C
C     0.4038112 0.0679914 0.8505611     C
C     0.4038112 0.1494411 0.0679914     C
C     0.4038112 0.1494411 0.9320114     C
C     0.4038112 0.8505611 0.0679914     C
C     0.4038112 0.8505611 0.9320114     C
C     0.4038112 0.9320114 0.1494411     C
C     0.4038112 0.9320114 0.8505611     C
C      0.40528  0.16157  0.26067     C
C      0.40528  0.16157  0.73947     C
C      0.40528  0.26067  0.16157     C
C      0.40528  0.26067  0.83857     C
C      0.40528  0.73947  0.16157     C
C      0.40528  0.73947  0.83857     C
C      0.40528  0.83857  0.26067     C
C      0.40528  0.83857  0.73947     C
O     0.406631 0.128841 0.662328     O
O     0.406631 0.128849 0.337688     O
O     0.406631 0.337688 0.128849     O
O     0.406631 0.337688 0.871169     O
O     0.406631 0.662328 0.128841     O
O     0.406631 0.662328 0.871161     O
O     0.406631 0.871161 0.662328     O
O     0.406631 0.871169 0.337688     O
C      0.40692  0.15282 0.4868013     C
C      0.40692  0.15282 0.5132013     C
C      0.40692 0.4868013  0.15282     C
C      0.40692 0.4868013  0.84722     C
C      0.40692 0.5132013  0.15282     C
C      0.40692 0.5132013  0.84722     C
C      0.40692  0.84722 0.4868013     C
C      0.40692  0.84722 0.5132013     C
C      0.40814 0.179111  0.28979     C
C      0.40814 0.179111  0.71039     C
C      0.40814  0.28979 0.179111     C
C      0.40814  0.28979 0.820911     C
C      0.40814  0.71039 0.179111     C
C      0.40814  0.71039 0.820911     C
C      0.40814 0.820911  0.28979     C
C      0.40814 0.820911  0.71039     C
O     0.4082912 0.1645513 0.3046911     O
O     0.4082912 0.1645513 0.6953111     O
O     0.4082912 0.3046911 0.1645513     O
O     0.4082912 0.3046911 0.8354513     O
O     0.4082912 0.6953111 0.1645513     O
O     0.4082912 0.6953111 0.8354513     O
O     0.4082912 0.8354513 0.3046911     O
O     0.4082912 0.8354513 0.6953111     O
Zr    0.4087128 0.2124458 0.3621698    Zr
Zr    0.4087128 0.2124458 0.6378318    Zr
Zr    0.4087128 0.3621698 0.2124458    Zr
Zr    0.4087128 0.3621698 0.7875558    Zr
Zr    0.4087128 0.6378318 0.2124458    Zr
Zr    0.4087128 0.6378318 0.7875558    Zr
Zr    0.4087128 0.7875558 0.3621698    Zr
Zr    0.4087128 0.7875558 0.6378318    Zr
O      0.41117  0.19907  0.28507     O
O      0.41117  0.19907  0.71507     O
O      0.41117  0.28507  0.19907     O
O      0.41117  0.28507  0.80107     O
O      0.41117  0.71507  0.19907     O
O      0.41117  0.71507  0.80107     O
O      0.41117  0.80107  0.28507     O
O      0.41117  0.80107  0.71507     O
C     0.4135216 0.2885718  0.30702     C
C     0.4135216 0.2885718  0.69302     C
C     0.4135216  0.30702 0.2885718     C
C     0.4135216  0.30702 0.7114318     C
C     0.4135216  0.69302 0.2885718     C
C     0.4135216  0.69302 0.7114318     C
C     0.4135216 0.7114318  0.30702     C
C     0.4135216 0.7114318  0.69302     C
H       0.4144   0.1405   0.4771     H
H       0.4144   0.1405   0.5229     H
H       0.4144   0.4771   0.1405     H
H       0.4144   0.4771   0.8595     H
H       0.4144   0.5229   0.1405     H
H       0.4144   0.5229   0.8595     H
H       0.4144   0.8595   0.4771     H
H       0.4144   0.8595   0.5229     H
S     0.414463 0.065764 0.179513     S
S     0.414463 0.065764 0.820493     S
S     0.414463 0.179513 0.065764     S
S     0.414463 0.179513 0.934244     S
S     0.414463 0.820493 0.065764     S
S     0.414463 0.820493 0.934244     S
S     0.414463 0.934244 0.179513     S
S     0.414463 0.934244 0.820493     S
O     0.414718 0.124577 0.378807     O
O     0.414718 0.124577 0.621207     O
O     0.414718 0.378807 0.124577     O
O     0.414718 0.378807 0.875437     O
O     0.414718 0.621207 0.124577     O
O     0.414718 0.621207 0.875437     O
O     0.414718 0.875437 0.378807     O
O     0.414718 0.875437 0.621207     O
H       0.4151   0.0534   0.1163     H
H       0.4151   0.0534   0.8837     H
H       0.4151   0.1163   0.0534     H
H       0.4151   0.1163   0.9466     H
H       0.4151   0.8837   0.0534     H
H       0.4151   0.8837   0.9466     H
H       0.4151   0.9466   0.1163     H
H       0.4151   0.9466   0.8837     H
C     0.4166712 0.1181511 0.3562511     C
C     0.4166712 0.1181511 0.6437511     C
C     0.4166712 0.3562511 0.1181511     C
C     0.4166712 0.3562511 0.8818511     C
C     0.4166712 0.6437511 0.1181511     C
C     0.4166712 0.6437511 0.8818511     C
C     0.4166712 0.8818511 0.3562511     C
C     0.4166712 0.8818511 0.6437511     C
C     0.4179216  0.05432 0.1334013     C
C     0.4179216  0.05432 0.8666013     C
C     0.4179216 0.1334013  0.05432     C
C     0.4179216 0.1334013  0.94572     C
C     0.4179216 0.8666013  0.05432     C
C     0.4179216 0.8666013  0.94572     C
C     0.4179216  0.94572 0.1334013     C
C     0.4179216  0.94572 0.8666013     C
O     0.426661 0.0310114 0.253251     O
O     0.426661 0.0310114 0.746751     O
O     0.426661 0.253251 0.0310114     O
O     0.426661 0.253251 0.9689914     O
O     0.426661 0.746751 0.0310114     O
O     0.426661 0.746751 0.9689914     O
O     0.426661 0.9689914 0.253251     O
O     0.426661 0.9689914 0.746751     O
O     0.426841 0.242549 0.3815811     O
O     0.426841 0.242549 0.6184211     O
O     0.426841 0.3815811 0.242549     O
O     0.426841 0.3815811 0.757469     O
O     0.426841 0.6184211 0.242549     O
O     0.426841 0.6184211 0.757469     O
O     0.426841 0.757469 0.3815811     O
O     0.426841 0.757469 0.6184211     O
H       0.4276    0.284   0.3159     H
H       0.4276    0.284   0.6841     H
H       0.4276   0.3159    0.284     H
H       0.4276   0.3159    0.716     H
H       0.4276   0.6841    0.284     H
H       0.4276   0.6841    0.716     H
H       0.4276    0.716   0.3159     H
H       0.4276    0.716   0.6841     H
C     0.4320114 0.0961912 0.3505611     C
C     0.4320114 0.0961912 0.6494411     C
C     0.4320114 0.3505611 0.0961912     C
C     0.4320114 0.3505611 0.9038112     C
C     0.4320114 0.6494411 0.0961912     C
C     0.4320114 0.6494411 0.9038112     C
C     0.4320114 0.9038112 0.3505611     C
C     0.4320114 0.9038112 0.6494411     C
S     0.434244 0.085543 0.320493     S
S     0.434244 0.085543 0.679513     S
S     0.434244 0.320493 0.085543     S
S     0.434244 0.320493 0.914463     S
S     0.434244 0.679513 0.085543     S
S     0.434244 0.679513 0.914463     S
S     0.434244 0.914463 0.320493     S
S     0.434244 0.914463 0.679513     S
O     0.435131 0.2100216 0.3309211     O
O     0.435131 0.2100216 0.6690811     O
O     0.435131 0.3309211 0.2100216     O
O     0.435131 0.3309211 0.7899816     O
O     0.435131 0.6690811 0.2100216     O
O     0.435131 0.6690811 0.7899816     O
O     0.435131 0.7899816 0.3309211     O
O     0.435131 0.7899816 0.6690811     O
O     0.435586 0.162997 0.400447     O
O     0.435586 0.162997 0.599567     O
O     0.435586 0.400447 0.162997     O
O     0.435586 0.400447 0.837017     O
O     0.435586 0.599567 0.162997     O
O     0.435586 0.599567 0.837017     O
O     0.435586 0.837017 0.400447     O
O     0.435586 0.837017 0.599567     O
C     0.4376516  0.04162 0.1461613     C
C     0.4376516  0.04162 0.8538413     C
C     0.4376516 0.1461613  0.04162     C
C     0.4376516 0.1461613  0.95842     C
C     0.4376516 0.8538413  0.04162     C
C     0.4376516 0.8538413  0.95842     C
C     0.4376516  0.95842 0.1461613     C
C     0.4376516  0.95842 0.8538413     C
C     0.4382112 0.0464614 0.1707012     C
C     0.4382112 0.0464614 0.8293012     C
C     0.4382112 0.1707012 0.0464614     C
C     0.4382112 0.1707012 0.9535414     C
C     0.4382112 0.8293012 0.0464614     C
C     0.4382112 0.8293012 0.9535414     C
C     0.4382112 0.9535414 0.1707012     C
C     0.4382112 0.9535414 0.8293012     C
O     0.445377 0.196419 0.376849     O
O     0.445377 0.196419 0.623169     O
O     0.445377 0.376849 0.196419     O
O     0.445377 0.376849 0.803599     O
O     0.445377 0.623169 0.196419     O
O     0.445377 0.623169 0.803599     O
O     0.445377 0.803599 0.376849     O
O     0.445377 0.803599 0.623169     O
C      0.44572 0.0820816 0.3666013     C
C      0.44572 0.0820816 0.6334013     C
C      0.44572 0.3666013 0.0820816     C
C      0.44572 0.3666013 0.9179216     C
C      0.44572 0.6334013 0.0820816     C
C      0.44572 0.6334013 0.9179216     C
C      0.44572 0.9179216 0.3666013     C
C      0.44572 0.9179216 0.6334013     C
H       0.4466   0.0849   0.3837     H
H       0.4466   0.0849   0.6163     H
H       0.4466   0.3837   0.0849     H
H       0.4466   0.3837   0.9151     H
H       0.4466   0.6163   0.0849     H
H       0.4466   0.6163   0.9151     H
H       0.4466   0.9151   0.3837     H
H       0.4466   0.9151   0.6163     H
H       0.4489    0.031   0.1383     H
H       0.4489    0.031   0.8617     H
H       0.4489   0.1383    0.031     H
H       0.4489   0.1383    0.969     H
H       0.4489   0.8617    0.031     H
H       0.4489   0.8617    0.969     H
H       0.4489    0.969   0.1383     H
H       0.4489    0.969   0.8617     H
O     0.450499 0.042311 0.211938     O
O     0.450499 0.042311 0.788078     O
O     0.450499 0.211938 0.042311     O
O     0.450499 0.211938 0.957691     O
O     0.450499 0.788078 0.042311     O
O     0.450499 0.788078 0.957691     O
O     0.450499 0.957691 0.211938     O
O     0.450499 0.957691 0.788078     O
C     0.450641 0.1781611 0.3904711     C
C     0.450641 0.1781611 0.6095311     C
C     0.450641 0.3904711 0.1781611     C
C     0.450641 0.3904711 0.8218411     C
C     0.450641 0.6095311 0.1781611     C
C     0.450641 0.6095311 0.8218411     C
C     0.450641 0.8218411 0.3904711     C
C     0.450641 0.8218411 0.6095311     C
C     0.4535414 0.0617912 0.3293012     C
C     0.4535414 0.0617912 0.6707012     C
C     0.4535414 0.3293012 0.0617912     C
C     0.4535414 0.3293012 0.9382112     C
C     0.4535414 0.6707012 0.0617912     C
C     0.4535414 0.6707012 0.9382112     C
C     0.4535414 0.9382112 0.3293012     C
C     0.4535414 0.9382112 0.6707012     C
C     0.4557111 0.0367012 0.1899711     C
C     0.4557111 0.0367012 0.8100311     C
C     0.4557111 0.1899711 0.0367012     C
C     0.4557111 0.1899711 0.9633012     C
C     0.4557111 0.8100311 0.0367012     C
C     0.4557111 0.8100311 0.9633012     C
C     0.4557111 0.9633012 0.1899711     C
C     0.4557111 0.9633012 0.8100311     C
O     0.457691 0.049519 0.288078     O
O     0.457691 0.049519 0.711938     O
O     0.457691 0.288078 0.049519     O
O     0.457691 0.288078 0.950499     O
O     0.457691 0.711938 0.049519     O
O     0.457691 0.711938 0.950499     O
O     0.457691 0.950499 0.288078     O
O     0.457691 0.950499 0.711938     O
C      0.45842 0.0623516 0.3538413     C
C      0.45842 0.0623516 0.6461613     C
C      0.45842 0.3538413 0.0623516     C
C      0.45842 0.3538413 0.9376516     C
C      0.45842 0.6461613 0.0623516     C
C      0.45842 0.6461613 0.9376516     C
C      0.45842 0.9376516 0.3538413     C
C      0.45842 0.9376516 0.6461613     C
O     0.462241      0.0 0.275481     O
O     0.462241      0.0 0.724521     O
O     0.462241 0.275481      0.0     O
O     0.462241 0.724521      0.0     O
C     0.4633012 0.0442911 0.3100311     C
C     0.4633012 0.0442911 0.6899711     C
C     0.4633012 0.3100311 0.0442911     C
C     0.4633012 0.3100311 0.9557111     C
C     0.4633012 0.6899711 0.0442911     C
C     0.4633012 0.6899711 0.9557111     C
C     0.4633012 0.9557111 0.3100311     C
C     0.4633012 0.9557111 0.6899711     C
Zr    0.4670288 0.0329728     0.25    Zr
Zr    0.4670288 0.0329728     0.75    Zr
Zr    0.4670288     0.25 0.0329728    Zr
Zr    0.4670288     0.25 0.9670288    Zr
Zr    0.4670288     0.75 0.0329728    Zr
Zr    0.4670288     0.75 0.9670288    Zr
Zr    0.4670288 0.9670288     0.25    Zr
Zr    0.4670288 0.9670288     0.75    Zr
O     0.4689914 0.073341 0.246751     O
O     0.4689914 0.073341 0.753251     O
O     0.4689914 0.246751 0.073341     O
O     0.4689914 0.246751 0.926661     O
O     0.4689914 0.753251 0.073341     O
O     0.4689914 0.753251 0.926661     O
O     0.4689914 0.926661 0.246751     O
O     0.4689914 0.926661 0.753251     O
H        0.469   0.0511   0.3617     H
H        0.469   0.0511   0.6383     H
H        0.469   0.3617   0.0511     H
H        0.469   0.3617   0.9489     H
H        0.469   0.6383   0.0511     H
H        0.469   0.6383   0.9489     H
H        0.469   0.9489   0.3617     H
H        0.469   0.9489   0.6383     H
O     0.471981      0.0 0.230391     O
O     0.471981      0.0 0.769611     O
O     0.471981 0.230391      0.0     O
O     0.471981 0.769611      0.0     O
O     0.474137 0.024348 0.182607     O
O     0.474137 0.024348 0.817407     O
O     0.474137 0.182607 0.024348     O
O     0.474137 0.182607 0.975668     O
O     0.474137 0.817407 0.024348     O
O     0.474137 0.817407 0.975668     O
O     0.474137 0.975668 0.182607     O
O     0.474137 0.975668 0.817407     O
O     0.475668 0.025877 0.317407     O
O     0.475668 0.025877 0.682607     O
O     0.475668 0.317407 0.025877     O
O     0.475668 0.317407 0.974137     O
O     0.475668 0.682607 0.025877     O
O     0.475668 0.682607 0.974137     O
O     0.475668 0.974137 0.317407     O
O     0.475668 0.974137 0.682607     O
H       0.4771   0.1405   0.4144     H
H       0.4771   0.1405   0.5856     H
H       0.4771   0.4144   0.1405     H
H       0.4771   0.4144   0.8595     H
H       0.4771   0.5856   0.1405     H
H       0.4771   0.5856   0.8595     H
H       0.4771   0.8595   0.4144     H
H       0.4771   0.8595   0.5856     H
C     0.477271 0.1727914 0.3947116     C
C     0.477271 0.1727914 0.6052916     C
C     0.477271 0.3947116 0.1727914     C
C     0.477271 0.3947116 0.8272114     C
C     0.477271 0.6052916 0.1727914     C
C     0.477271 0.6052916 0.8272114     C
C     0.477271 0.8272114 0.3947116     C
C     0.477271 0.8272114 0.6052916     C
C     0.4868013  0.15282  0.40692     C
C     0.4868013  0.15282  0.59312     C
C     0.4868013  0.40692  0.15282     C
C     0.4868013  0.40692  0.84722     C
C     0.4868013  0.59312  0.15282     C
C     0.4868013  0.59312  0.84722     C
C     0.4868013  0.84722  0.40692     C
C     0.4868013  0.84722  0.59312     C
Zr         0.5      0.0 0.20404516    Zr
Zr         0.5      0.0 0.29595516    Zr
Zr         0.5      0.0 0.70404516    Zr
Zr         0.5      0.0 0.79595516    Zr
O          0.5 0.028021 0.269611     O
O          0.5 0.028021 0.730391     O
O          0.5 0.037761 0.224521     O
O          0.5 0.037761 0.775481     O
S          0.5 0.191855 0.383245     S
S          0.5 0.191855 0.616765     S
Zr         0.5 0.20404516      0.0    Zr
O          0.5 0.224521 0.037761     O
O          0.5 0.224521 0.962241     O
O          0.5 0.269611 0.028021     O
O          0.5 0.269619 0.971989     O
Zr         0.5 0.29595516      0.0    Zr
S          0.5 0.383245 0.191855     S
S          0.5 0.383245 0.808155     S
S          0.5 0.616765 0.191855     S
S          0.5 0.616765 0.808155     S
Zr         0.5 0.70404516      0.0    Zr
O          0.5 0.730391 0.028021     O
O          0.5 0.730399 0.971989     O
O          0.5 0.775481 0.037761     O
O          0.5 0.775481 0.962241     O
Zr         0.5 0.79595516      0.0    Zr
S          0.5 0.808155 0.383245     S
S          0.5 0.808155 0.616765     S
O          0.5 0.962241 0.224521     O
O          0.5 0.962241 0.775481     O
O          0.5 0.971989 0.269619     O
O          0.5 0.971989 0.730399     O
C     0.5132013  0.15282  0.40692     C
C     0.5132013  0.15282  0.59312     C
C     0.5132013  0.40692  0.15282     C
C     0.5132013  0.40692  0.84722     C
C     0.5132013  0.59312  0.15282     C
C     0.5132013  0.59312  0.84722     C
C     0.5132013  0.84722  0.40692     C
C     0.5132013  0.84722  0.59312     C
C     0.522731 0.1727914 0.3947116     C
C     0.522731 0.1727914 0.6052916     C
C     0.522731 0.3947116 0.1727914     C
C     0.522731 0.3947116 0.8272114     C
C     0.522731 0.6052916 0.1727914     C
C     0.522731 0.6052916 0.8272114     C
C     0.522731 0.8272114 0.3947116     C
C     0.522731 0.8272114 0.6052916     C
H       0.5229   0.1405   0.4144     H
H       0.5229   0.1405   0.5856     H
H       0.5229   0.4144   0.1405     H
H       0.5229   0.4144   0.8595     H
H       0.5229   0.5856   0.1405     H
H       0.5229   0.5856   0.8595     H
H       0.5229   0.8595   0.4144     H
H       0.5229   0.8595   0.5856     H
O     0.524348 0.025877 0.317407     O
O     0.524348 0.025877 0.682607     O
O     0.524348 0.317407 0.025877     O
O     0.524348 0.317407 0.974137     O
O     0.524348 0.682607 0.025877     O
O     0.524348 0.682607 0.974137     O
O     0.524348 0.974137 0.317407     O
O     0.524348 0.974137 0.682607     O
O     0.525877 0.024348 0.182607     O
O     0.525877 0.024348 0.817407     O
O     0.525877 0.182607 0.024348     O
O     0.525877 0.182607 0.975668     O
O     0.525877 0.817407 0.024348     O
O     0.525877 0.817407 0.975668     O
O     0.525877 0.975668 0.182607     O
O     0.525877 0.975668 0.817407     O
O     0.528029      0.0 0.230399     O
O     0.528029      0.0 0.769619     O
O     0.528029 0.230399      0.0     O
O     0.528029 0.769619      0.0     O
H        0.531   0.0511   0.3617     H
H        0.531   0.0511   0.6383     H
H        0.531   0.3617   0.0511     H
H        0.531   0.3617   0.9489     H
H        0.531   0.6383   0.0511     H
H        0.531   0.6383   0.9489     H
H        0.531   0.9489   0.3617     H
H        0.531   0.9489   0.6383     H
O     0.5310114 0.073341 0.246751     O
O     0.5310114 0.073341 0.753251     O
O     0.5310114 0.246751 0.073341     O
O     0.5310114 0.246751 0.926661     O
O     0.5310114 0.753251 0.073341     O
O     0.5310114 0.753251 0.926661     O
O     0.5310114 0.926661 0.246751     O
O     0.5310114 0.926661 0.753251     O
Zr    0.5329728 0.0329728     0.25    Zr
Zr    0.5329728 0.0329728     0.75    Zr
Zr    0.5329728     0.25 0.0329728    Zr
Zr    0.5329728     0.25 0.9670288    Zr
Zr    0.5329728     0.75 0.0329728    Zr
Zr    0.5329728     0.75 0.9670288    Zr
Zr    0.5329728 0.9670288     0.25    Zr
Zr    0.5329728 0.9670288     0.75    Zr
C     0.5367012 0.0442911 0.3100311     C
C     0.5367012 0.0442911 0.6899711     C
C     0.5367012 0.3100311 0.0442911     C
C     0.5367012 0.3100311 0.9557111     C
C     0.5367012 0.6899711 0.0442911     C
C     0.5367012 0.6899711 0.9557111     C
C     0.5367012 0.9557111 0.3100311     C
C     0.5367012 0.9557111 0.6899711     C
O     0.537761      0.0 0.275481     O
O     0.537761      0.0 0.724521     O
O     0.537761 0.275481      0.0     O
O     0.537761 0.724521      0.0     O
C      0.54162 0.0623516 0.3538413     C
C      0.54162 0.0623516 0.6461613     C
C      0.54162 0.3538413 0.0623516     C
C      0.54162 0.3538413 0.9376516     C
C      0.54162 0.6461613 0.0623516     C
C      0.54162 0.6461613 0.9376516     C
C      0.54162 0.9376516 0.3538413     C
C      0.54162 0.9376516 0.6461613     C
O     0.542311 0.049519 0.288078     O
O     0.542311 0.049519 0.711938     O
O     0.542311 0.288078 0.049519     O
O     0.542311 0.288078 0.950499     O
O     0.542311 0.711938 0.049519     O
O     0.542311 0.711938 0.950499     O
O     0.542311 0.950499 0.288078     O
O     0.542311 0.950499 0.711938     O
C     0.5442911 0.0367012 0.1899711     C
C     0.5442911 0.0367012 0.8100311     C
C     0.5442911 0.1899711 0.0367012     C
C     0.5442911 0.1899711 0.9633012     C
C     0.5442911 0.8100311 0.0367012     C
C     0.5442911 0.8100311 0.9633012     C
C     0.5442911 0.9633012 0.1899711     C
C     0.5442911 0.9633012 0.8100311     C
C     0.5464614 0.0617912 0.3293012     C
C     0.5464614 0.0617912 0.6707012     C
C     0.5464614 0.3293012 0.0617912     C
C     0.5464614 0.3293012 0.9382112     C
C     0.5464614 0.6707012 0.0617912     C
C     0.5464614 0.6707012 0.9382112     C
C     0.5464614 0.9382112 0.3293012     C
C     0.5464614 0.9382112 0.6707012     C
C     0.549361 0.1781611 0.3904711     C
C     0.549361 0.1781611 0.6095311     C
C     0.549361 0.3904711 0.1781611     C
C     0.549361 0.3904711 0.8218411     C
C     0.549361 0.6095311 0.1781611     C
C     0.549361 0.6095311 0.8218411     C
C     0.549361 0.8218411 0.3904711     C
C     0.549361 0.8218411 0.6095311     C
O     0.549519 0.042311 0.211938     O
O     0.549519 0.042311 0.788078     O
O     0.549519 0.211938 0.042311     O
O     0.549519 0.211938 0.957691     O
O     0.549519 0.788078 0.042311     O
O     0.549519 0.788078 0.957691     O
O     0.549519 0.957691 0.211938     O
O     0.549519 0.957691 0.788078     O
H       0.5511    0.031   0.1383     H
H       0.5511    0.031   0.8617     H
H       0.5511   0.1383    0.031     H
H       0.5511   0.1383    0.969     H
H       0.5511   0.8617    0.031     H
H       0.5511   0.8617    0.969     H
H       0.5511    0.969   0.1383     H
H       0.5511    0.969   0.8617     H
H       0.5534   0.0849   0.3837     H
H       0.5534   0.0849   0.6163     H
H       0.5534   0.3837   0.0849     H
H       0.5534   0.3837   0.9151     H
H       0.5534   0.6163   0.0849     H
H       0.5534   0.6163   0.9151     H
H       0.5534   0.9151   0.3837     H
H       0.5534   0.9151   0.6163     H
C      0.55432 0.0820816 0.3666013     C
C      0.55432 0.0820816 0.6334013     C
C      0.55432 0.3666013 0.0820816     C
C      0.55432 0.3666013 0.9179216     C
C      0.55432 0.6334013 0.0820816     C
C      0.55432 0.6334013 0.9179216     C
C      0.55432 0.9179216 0.3666013     C
C      0.55432 0.9179216 0.6334013     C
O     0.554637 0.196411 0.376841     O
O     0.554637 0.196411 0.623161     O
O     0.554637 0.376841 0.196411     O
O     0.554637 0.376841 0.803591     O
O     0.554637 0.623161 0.196411     O
O     0.554637 0.623161 0.803591     O
O     0.554637 0.803591 0.376841     O
O     0.554637 0.803591 0.623161     O
C     0.5617912 0.0464614 0.1707012     C
C     0.5617912 0.0464614 0.8293012     C
C     0.5617912 0.1707012 0.0464614     C
C     0.5617912 0.1707012 0.9535414     C
C     0.5617912 0.8293012 0.0464614     C
C     0.5617912 0.8293012 0.9535414     C
C     0.5617912 0.9535414 0.1707012     C
C     0.5617912 0.9535414 0.8293012     C
C     0.5623516  0.04162 0.1461613     C
C     0.5623516  0.04162 0.8538413     C
C     0.5623516 0.1461613  0.04162     C
C     0.5623516 0.1461613  0.95842     C
C     0.5623516 0.8538413  0.04162     C
C     0.5623516 0.8538413  0.95842     C
C     0.5623516  0.95842 0.1461613     C
C     0.5623516  0.95842 0.8538413     C
O     0.564426 0.162997 0.400447     O
O     0.564426 0.162997 0.599567     O
O     0.564426 0.400447 0.162997     O
O     0.564426 0.400447 0.837017     O
O     0.564426 0.599567 0.162997     O
O     0.564426 0.599567 0.837017     O
O     0.564426 0.837017 0.400447     O
O     0.564426 0.837017 0.599567     O
O     0.564871 0.2100216 0.3309211     O
O     0.564871 0.2100216 0.6690811     O
O     0.564871 0.3309211 0.2100216     O
O     0.564871 0.3309211 0.7899816     O
O     0.564871 0.6690811 0.2100216     O
O     0.564871 0.6690811 0.7899816     O
O     0.564871 0.7899816 0.3309211     O
O     0.564871 0.7899816 0.6690811     O
S     0.565764 0.085543 0.320493     S
S     0.565764 0.085543 0.679513     S
S     0.565764 0.320493 0.085543     S
S     0.565764 0.320493 0.914463     S
S     0.565764 0.679513 0.085543     S
S     0.565764 0.679513 0.914463     S
S     0.565764 0.914463 0.320493     S
S     0.565764 0.914463 0.679513     S
C     0.5679914 0.0961912 0.3505611     C
C     0.5679914 0.0961912 0.6494411     C
C     0.5679914 0.3505611 0.0961912     C
C     0.5679914 0.3505611 0.9038112     C
C     0.5679914 0.6494411 0.0961912     C
C     0.5679914 0.6494411 0.9038112     C
C     0.5679914 0.9038112 0.3505611     C
C     0.5679914 0.9038112 0.6494411     C
H       0.5724    0.284   0.3159     H
H       0.5724    0.284   0.6841     H
H       0.5724   0.3159    0.284     H
H       0.5724   0.3159    0.716     H
H       0.5724   0.6841    0.284     H
H       0.5724   0.6841    0.716     H
H       0.5724    0.716   0.3159     H
H       0.5724    0.716   0.6841     H
O     0.573161 0.242549 0.3815811     O
O     0.573161 0.242549 0.6184211     O
O     0.573161 0.3815811 0.242549     O
O     0.573161 0.3815811 0.757469     O
O     0.573161 0.6184211 0.242549     O
O     0.573161 0.6184211 0.757469     O
O     0.573161 0.757469 0.3815811     O
O     0.573161 0.757469 0.6184211     O
O     0.573341 0.0310114 0.253251     O
O     0.573341 0.0310114 0.746751     O
O     0.573341 0.253251 0.0310114     O
O     0.573341 0.253251 0.9689914     O
O     0.573341 0.746751 0.0310114     O
O     0.573341 0.746751 0.9689914     O
O     0.573341 0.9689914 0.253251     O
O     0.573341 0.9689914 0.746751     O
C     0.5820816  0.05432 0.1334013     C
C     0.5820816  0.05432 0.8666013     C
C     0.5820816 0.1334013  0.05432     C
C     0.5820816 0.1334013  0.94572     C
C     0.5820816 0.8666013  0.05432     C
C     0.5820816 0.8666013  0.94572     C
C     0.5820816  0.94572 0.1334013     C
C     0.5820816  0.94572 0.8666013     C
C     0.5833312 0.1181511 0.3562511     C
C     0.5833312 0.1181511 0.6437511     C
C     0.5833312 0.3562511 0.1181511     C
C     0.5833312 0.3562511 0.8818511     C
C     0.5833312 0.6437511 0.1181511     C
C     0.5833312 0.6437511 0.8818511     C
C     0.5833312 0.8818511 0.3562511     C
C     0.5833312 0.8818511 0.6437511     C
H       0.5849   0.0534   0.1163     H
H       0.5849   0.0534   0.8837     H
H       0.5849   0.1163   0.0534     H
H       0.5849   0.1163   0.9466     H
H       0.5849   0.8837   0.0534     H
H       0.5849   0.8837   0.9466     H
H       0.5849   0.9466   0.1163     H
H       0.5849   0.9466   0.8837     H
O     0.585298 0.124577 0.378807     O
O     0.585298 0.124577 0.621207     O
O     0.585298 0.378807 0.124577     O
O     0.585298 0.378807 0.875437     O
O     0.585298 0.621207 0.124577     O
O     0.585298 0.621207 0.875437     O
O     0.585298 0.875437 0.378807     O
O     0.585298 0.875437 0.621207     O
S     0.585543 0.065764 0.179513     S
S     0.585543 0.065764 0.820493     S
S     0.585543 0.179513 0.065764     S
S     0.585543 0.179513 0.934244     S
S     0.585543 0.820493 0.065764     S
S     0.585543 0.820493 0.934244     S
S     0.585543 0.934244 0.179513     S
S     0.585543 0.934244 0.820493     S
H       0.5856   0.1405   0.4771     H
H       0.5856   0.1405   0.5229     H
H       0.5856   0.4771   0.1405     H
H       0.5856   0.4771   0.8595     H
H       0.5856   0.5229   0.1405     H
H       0.5856   0.5229   0.8595     H
H       0.5856   0.8595   0.4771     H
H       0.5856   0.8595   0.5229     H
C     0.5864816 0.2885718  0.30702     C
C     0.5864816 0.2885718  0.69302     C
C     0.5864816  0.30702 0.2885718     C
C     0.5864816  0.30702 0.7114318     C
C     0.5864816  0.69302 0.2885718     C
C     0.5864816  0.69302 0.7114318     C
C     0.5864816 0.7114318  0.30702     C
C     0.5864816 0.7114318  0.69302     C
O      0.58897  0.19907  0.28507     O
O      0.58897  0.19907  0.71507     O
O      0.58897  0.28507  0.19907     O
O      0.58897  0.28507  0.80107     O
O      0.58897  0.71507  0.19907     O
O      0.58897  0.71507  0.80107     O
O      0.58897  0.80107  0.28507     O
O      0.58897  0.80107  0.71507     O
Zr    0.5912888 0.2124458 0.3621698    Zr
Zr    0.5912888 0.3621698 0.2124458    Zr
Zr    0.5912888 0.3621698 0.7875558    Zr
Zr    0.5912888 0.7875558 0.3621698    Zr
Zr    0.5912889 0.2124459 0.6378319    Zr
Zr    0.5912889 0.6378319 0.2124459    Zr
Zr    0.5912889 0.6378319 0.7875559    Zr
Zr    0.5912889 0.7875559 0.6378319    Zr
O     0.5917112 0.1645513 0.3046911     O
O     0.5917112 0.1645513 0.6953111     O
O     0.5917112 0.3046911 0.1645513     O
O     0.5917112 0.3046911 0.8354513     O
O     0.5917112 0.6953111 0.1645513     O
O     0.5917112 0.6953111 0.8354513     O
O     0.5917112 0.8354513 0.3046911     O
O     0.5917112 0.8354513 0.6953111     O
C      0.59194 0.179111  0.28979     C
C      0.59194 0.179111  0.71039     C
C      0.59194  0.28979 0.179111     C
C      0.59194  0.28979 0.820911     C
C      0.59194  0.71039 0.179111     C
C      0.59194  0.71039 0.820911     C
C      0.59194 0.820911  0.28979     C
C      0.59194 0.820911  0.71039     C
C      0.59312  0.15282 0.4868013     C
C      0.59312  0.15282 0.5132013     C
C      0.59312 0.4868013  0.15282     C
C      0.59312 0.4868013  0.84722     C
C      0.59312 0.5132013  0.15282     C
C      0.59312 0.5132013  0.84722     C
C      0.59312  0.84722 0.4868013     C
C      0.59312  0.84722 0.5132013     C
O     0.593371 0.128849 0.337688     O
O     0.593371 0.128849 0.662328     O
O     0.593371 0.337688 0.128849     O
O     0.593371 0.337688 0.871169     O
O     0.593371 0.662328 0.128849     O
O     0.593371 0.662328 0.871169     O
O     0.593371 0.871169 0.337688     O
O     0.593371 0.871169 0.662328     O
C      0.59488  0.16157  0.26067     C
C      0.59488  0.16157  0.73947     C
C      0.59488  0.26067  0.16157     C
C      0.59488  0.26067  0.83857     C
C      0.59488  0.73947  0.16157     C
C      0.59488  0.73947  0.83857     C
C      0.59488  0.83857  0.26067     C
C      0.59488  0.83857  0.73947     C
C     0.5961912 0.0679914 0.1494411     C
C     0.5961912 0.0679914 0.8505611     C
C     0.5961912 0.1494411 0.0679914     C
C     0.5961912 0.1494411 0.9320114     C
C     0.5961912 0.8505611 0.0679914     C
C     0.5961912 0.8505611 0.9320114     C
C     0.5961912 0.9320114 0.1494411     C
C     0.5961912 0.9320114 0.8505611     C
O     0.597169 0.247799 0.339259     O
O     0.597169 0.247799 0.660759     O
O     0.597169 0.339259 0.247799     O
O     0.597169 0.339259 0.752219     O
O     0.597169 0.660759 0.247799     O
O     0.597169 0.660759 0.752219     O
O     0.597169 0.752219 0.339259     O
O     0.597169 0.752219 0.660759     O
O     0.598438 0.174407 0.361687     O
O     0.598438 0.174407 0.638327     O
O     0.598438 0.361687 0.174407     O
O     0.598438 0.361687 0.825607     O
O     0.598438 0.638327 0.174407     O
O     0.598438 0.638327 0.825607     O
O     0.598438 0.825607 0.361687     O
O     0.598438 0.825607 0.638327     O
O     0.598738 0.2006111 0.401278     O
O     0.598738 0.2006111 0.598738     O
O     0.598738 0.401278 0.2006111     O
O     0.598738 0.401278 0.7993911     O
O     0.598738 0.598738 0.2006111     O
O     0.598738 0.598738 0.7993911     O
O     0.598738 0.7993911 0.401278     O
O     0.598738 0.7993911 0.598738     O
S      0.59884  0.17884  0.23432     S
S      0.59884  0.17884  0.76572     S
S      0.59884  0.23432  0.17884     S
S      0.59884  0.23432  0.82124     S
S      0.59884  0.76572  0.17884     S
S      0.59884  0.76572  0.82124     S
S      0.59884  0.82124  0.23432     S
S      0.59884  0.82124  0.76572     S
O     0.599567 0.162997 0.435586     O
O     0.599567 0.162997 0.564426     O
O     0.599567 0.435586 0.162997     O
O     0.599567 0.435586 0.837017     O
O     0.599567 0.564426 0.162997     O
O     0.599567 0.564426 0.837017     O
O     0.599567 0.837017 0.435586     O
O     0.599567 0.837017 0.564426     O
C      0.60339  0.13588  0.25639     C
C      0.60339  0.13588  0.74379     C
C      0.60339  0.25639  0.13588     C
C      0.60339  0.25639  0.86428     C
C      0.60339  0.74379  0.13588     C
C      0.60339  0.74379  0.86428     C
C      0.60339  0.86428  0.25639     C
C      0.60339  0.86428  0.74379     C
Zr    0.6043337 0.1574181 0.3956677    Zr
Zr    0.6043337 0.1574181 0.6043337    Zr
Zr    0.6043337 0.3956677 0.1574181    Zr
Zr    0.6043337 0.3956677 0.8425821    Zr
Zr    0.6043337 0.6043337 0.1574181    Zr
Zr    0.6043337 0.6043337 0.8425821    Zr
Zr    0.6043337 0.8425821 0.3956677    Zr
Zr    0.6043337 0.8425821 0.6043337    Zr
C     0.6052916 0.1727914 0.477271     C
C     0.6052916 0.1727914 0.522731     C
C     0.6052916 0.477271 0.1727914     C
C     0.6052916 0.477271 0.8272114     C
C     0.6052916 0.522731 0.1727914     C
C     0.6052916 0.522731 0.8272114     C
C     0.6052916 0.8272114 0.477271     C
C     0.6052916 0.8272114 0.522731     C
C     0.6089913 0.2782213 0.3105513     C
C     0.6089913 0.2782213 0.6894513     C
C     0.6089913 0.3105513 0.2782213     C
C     0.6089913 0.3105513 0.7217813     C
C     0.6089913 0.6894513 0.2782213     C
C     0.6089913 0.6894513 0.7217813     C
C     0.6089913 0.7217813 0.3105513     C
C     0.6089913 0.7217813 0.6894513     C
C      0.60938  0.15399  0.21738     C
C      0.60938  0.15399  0.78278     C
C      0.60938  0.21738  0.15399     C
C      0.60938  0.21738  0.84619     C
C      0.60938  0.78278  0.15399     C
C      0.60938  0.78278  0.84619     C
C      0.60938  0.84619  0.21738     C
C      0.60938  0.84619  0.78278     C
C     0.6095311 0.1781611 0.450641     C
C     0.6095311 0.1781611 0.549361     C
C     0.6095311 0.450641 0.1781611     C
C     0.6095311 0.450641 0.8218411     C
C     0.6095311 0.549361 0.1781611     C
C     0.6095311 0.549361 0.8218411     C
C     0.6095311 0.8218411 0.450641     C
C     0.6095311 0.8218411 0.549361     C
C      0.60978  0.13219  0.23389     C
C      0.60978  0.13219  0.76629     C
C      0.60978  0.23389  0.13219     C
C      0.60978  0.23389  0.86799     C
C      0.60978  0.76629  0.13219     C
C      0.60978  0.76629  0.86799     C
C      0.60978  0.86799  0.23389     C
C      0.60978  0.86799  0.76629     C
C     0.6153211 0.2565511 0.3270511     C
C     0.6153211 0.2565511 0.6729511     C
C     0.6153211 0.3270511 0.2565511     C
C     0.6153211 0.3270511 0.7434511     C
C     0.6153211 0.6729511 0.2565511     C
C     0.6153211 0.6729511 0.7434511     C
C     0.6153211 0.7434511 0.3270511     C
C     0.6153211 0.7434511 0.6729511     C
H       0.6163   0.0849   0.4466     H
H       0.6163   0.0849   0.5534     H
H       0.6163   0.4466   0.0849     H
H       0.6163   0.4466   0.9151     H
H       0.6163   0.5534   0.0849     H
H       0.6163   0.5534   0.9151     H
H       0.6163   0.9151   0.4466     H
H       0.6163   0.9151   0.5534     H
O     0.616608 0.202768 0.330668     O
O     0.616608 0.202768 0.669348     O
O     0.616608 0.330668 0.202768     O
O     0.616608 0.330668 0.797248     O
O     0.616608 0.669348 0.202768     O
O     0.616608 0.669348 0.797248     O
O     0.616608 0.797248 0.330668     O
O     0.616608 0.797248 0.669348     O
S     0.616765 0.191855      0.5     S
S     0.616765      0.5 0.191855     S
S     0.616765      0.5 0.808155     S
S     0.616765 0.808155      0.5     S
O      0.61808  0.18224  0.18224     O
O      0.61808  0.18224  0.81784     O
O      0.61808  0.81784  0.18224     O
O      0.61808  0.81784  0.81784     O
C     0.6181511 0.0833312 0.1437511     C
C     0.6181511 0.0833312 0.8562511     C
C     0.6181511 0.1437511 0.0833312     C
C     0.6181511 0.1437511 0.9166712     C
C     0.6181511 0.8562511 0.0833312     C
C     0.6181511 0.8562511 0.9166712     C
C     0.6181511 0.9166712 0.1437511     C
C     0.6181511 0.9166712 0.8562511     C
O     0.6184211 0.242549 0.426841     O
O     0.6184211 0.242549 0.573161     O
O     0.6184211 0.426841 0.242549     O
O     0.6184211 0.426841 0.757469     O
O     0.6184211 0.573161 0.242549     O
O     0.6184211 0.573161 0.757469     O
O     0.6184211 0.757469 0.426841     O
O     0.6184211 0.757469 0.573161     O
Zr    0.6204289 0.1612219 0.3327918    Zr
Zr    0.6204289 0.1612219 0.6672098    Zr
Zr    0.6204289 0.3327918 0.1612219    Zr
Zr    0.6204289 0.3327918 0.8387799    Zr
Zr    0.6204289 0.6672098 0.1612219    Zr
Zr    0.6204289 0.6672098 0.8387799    Zr
Zr    0.6204289 0.8387799 0.3327918    Zr
Zr    0.6204289 0.8387799 0.6672098    Zr
O     0.621207 0.124577 0.414718     O
O     0.621207 0.124577 0.585298     O
O     0.621207 0.414718 0.124577     O
O     0.621207 0.414718 0.875437     O
O     0.621207 0.585298 0.124577     O
O     0.621207 0.585298 0.875437     O
O     0.621207 0.875437 0.414718     O
O     0.621207 0.875437 0.585298     O
C      0.62217  0.15977  0.19117     C
C      0.62217  0.15977  0.80897     C
C      0.62217  0.19117  0.15977     C
C      0.62217  0.19117  0.84037     C
C      0.62217  0.80897  0.15977     C
C      0.62217  0.80897  0.84037     C
C      0.62217  0.84037  0.19117     C
C      0.62217  0.84037  0.80897     C
O     0.623161 0.196411 0.554637     O
O     0.623161 0.554637 0.196411     O
O     0.623161 0.554637 0.803591     O
O     0.623161 0.803591 0.554637     O
O     0.623169 0.196419 0.445377     O
O     0.623169 0.445377 0.196419     O
O     0.623169 0.445377 0.803599     O
O     0.623169 0.803599 0.445377     O
O     0.624577 0.085298 0.121207     O
O     0.624577 0.085298 0.878807     O
O     0.624577 0.121207 0.085298     O
O     0.624577 0.121207 0.914718     O
O     0.624577 0.878807 0.085298     O
O     0.624577 0.878807 0.914718     O
O     0.624577 0.914718 0.121207     O
O     0.624577 0.914718 0.878807     O
O     0.627557 0.2217411 0.372457     O
O     0.627557 0.2217411 0.627557     O
O     0.627557 0.372457 0.2217411     O
O     0.627557 0.372457 0.7782611     O
O     0.627557 0.627557 0.2217411     O
O     0.627557 0.627557 0.7782611     O
O     0.627557 0.7782611 0.372457     O
O     0.627557 0.7782611 0.627557     O
O     0.628111 0.1389313 0.1822811     O
O     0.628111 0.1389313 0.8177211     O
O     0.628111 0.1822811 0.1389313     O
O     0.628111 0.1822811 0.8610713     O
O     0.628111 0.8177211 0.1389313     O
O     0.628111 0.8177211 0.8610713     O
O     0.628111 0.8610713 0.1822811     O
O     0.628111 0.8610713 0.8177211     O
O     0.628841 0.093371 0.162328     O
O     0.628841 0.093371 0.837688     O
O     0.628841 0.162328 0.093371     O
O     0.628841 0.837688 0.093371     O
O     0.628849 0.162328 0.906631     O
O     0.628849 0.837688 0.906631     O
O     0.628849 0.906631 0.162328     O
O     0.628849 0.906631 0.837688     O
S     0.630824 0.290683 0.290683     S
S     0.630824 0.290683 0.709323     S
S     0.630824 0.709323 0.290683     S
S     0.630824 0.709323 0.709323     S
O     0.631937 0.1416312 0.368077     O
O     0.631937 0.1416312 0.631937     O
O     0.631937 0.368077 0.1416312     O
O     0.631937 0.368077 0.8583712     O
O     0.631937 0.631937 0.1416312     O
O     0.631937 0.631937 0.8583712     O
O     0.631937 0.8583712 0.368077     O
O     0.631937 0.8583712 0.631937     O
C      0.63219  0.10978  0.26629     C
C      0.63219  0.10978  0.73389     C
C      0.63219  0.26629  0.10978     C
C      0.63219  0.26629  0.89038     C
C      0.63219  0.73389  0.10978     C
C      0.63219  0.73389  0.89038     C
C      0.63219  0.89038  0.26629     C
C      0.63219  0.89038  0.73389     C
C     0.6334013 0.0820816  0.44572     C
C     0.6334013 0.0820816  0.55432     C
C     0.6334013  0.44572 0.0820816     C
C     0.6334013  0.44572 0.9179216     C
C     0.6334013  0.55432 0.0820816     C
C     0.6334013  0.55432 0.9179216     C
C     0.6334013 0.9179216  0.44572     C
C     0.6334013 0.9179216  0.55432     C
C      0.63588  0.10339  0.24379     C
C      0.63588  0.10339  0.75639     C
C      0.63588  0.24379  0.10339     C
C      0.63588  0.24379  0.89679     C
C      0.63588  0.75639  0.10339     C
C      0.63588  0.75639  0.89679     C
C      0.63588  0.89679  0.24379     C
C      0.63588  0.89679  0.75639     C
O     0.637407 0.249077 0.327087     O
O     0.637407 0.249077 0.672927     O
O     0.637407 0.327087 0.249077     O
O     0.637407 0.327087 0.750937     O
O     0.637407 0.672927 0.249077     O
O     0.637407 0.672927 0.750937     O
O     0.637407 0.750937 0.327087     O
O     0.637407 0.750937 0.672927     O
Zr    0.6378318 0.2124458 0.4087128    Zr
Zr    0.6378318 0.4087128 0.2124458    Zr
Zr    0.6378318 0.4087128 0.7875558    Zr
Zr    0.6378318 0.7875558 0.4087128    Zr
Zr    0.6378319 0.2124459 0.5912889    Zr
Zr    0.6378319 0.5912889 0.2124459    Zr
Zr    0.6378319 0.5912889 0.7875559    Zr
Zr    0.6378319 0.7875559 0.5912889    Zr
H       0.6383   0.0511    0.469     H
H       0.6383   0.0511    0.531     H
H       0.6383    0.469   0.0511     H
H       0.6383    0.469   0.9489     H
H       0.6383    0.531   0.0511     H
H       0.6383    0.531   0.9489     H
H       0.6383   0.9489    0.469     H
H       0.6383   0.9489    0.531     H
O     0.638327 0.174407 0.401578     O
O     0.638327 0.174407 0.598438     O
O     0.638327 0.401578 0.174407     O
O     0.638327 0.401578 0.825607     O
O     0.638327 0.598438 0.174407     O
O     0.638327 0.598438 0.825607     O
O     0.638327 0.825607 0.401578     O
O     0.638327 0.825607 0.598438     O
O     0.6389313 0.128111 0.3177211     O
O     0.6389313 0.128111 0.6822811     O
O     0.6389313 0.3177211 0.128111     O
O     0.6389313 0.3177211 0.871891     O
O     0.6389313 0.6822811 0.128111     O
O     0.6389313 0.6822811 0.871891     O
O     0.6389313 0.871891 0.3177211     O
O     0.6389313 0.871891 0.6822811     O
H       0.6405   0.0229   0.0856     H
H       0.6405   0.0229   0.9144     H
H       0.6405   0.0856   0.0229     H
H       0.6405   0.0856   0.9771     H
H       0.6405   0.9144   0.0229     H
H       0.6405   0.9144   0.9771     H
H       0.6405   0.9771   0.0856     H
H       0.6405   0.9771   0.9144     H
O     0.640891 0.172851 0.297858     O
O     0.640891 0.172851 0.702158     O
O     0.640891 0.297858 0.172851     O
O     0.640891 0.297858 0.827151     O
O     0.640891 0.702158 0.172851     O
O     0.640891 0.702158 0.827151     O
O     0.640891 0.827151 0.297858     O
O     0.640891 0.827151 0.702158     O
O     0.6416312 0.131937 0.131937     O
O     0.6416312 0.131937 0.868077     O
O     0.6416312 0.868077 0.131937     O
O     0.6416312 0.868077 0.868077     O
C     0.6437511 0.1181511 0.4166712     C
C     0.6437511 0.1181511 0.5833312     C
C     0.6437511 0.4166712 0.1181511     C
C     0.6437511 0.4166712 0.8818511     C
C     0.6437511 0.5833312 0.1181511     C
C     0.6437511 0.5833312 0.8818511     C
C     0.6437511 0.8818511 0.4166712     C
C     0.6437511 0.8818511 0.5833312     C
C     0.6461613 0.0623516  0.45842     C
C     0.6461613 0.0623516  0.54162     C
C     0.6461613  0.45842 0.0623516     C
C     0.6461613  0.45842 0.9376516     C
C     0.6461613  0.54162 0.0623516     C
C     0.6461613  0.54162 0.9376516     C
C     0.6461613 0.9376516  0.45842     C
C     0.6461613 0.9376516  0.54162     C
C     0.6494411 0.0961912 0.4320114     C
C     0.6494411 0.0961912 0.5679914     C
C     0.6494411 0.4320114 0.0961912     C
C     0.6494411 0.4320114 0.9038112     C
C     0.6494411 0.5679914 0.0961912     C
C     0.6494411 0.5679914 0.9038112     C
C     0.6494411 0.9038112 0.4320114     C
C     0.6494411 0.9038112 0.5679914     C
O     0.652578 0.177241 0.347438     O
O     0.652578 0.177241 0.652578     O
O     0.652578 0.347438 0.177241     O
O     0.652578 0.347438 0.822761     O
O     0.652578 0.652578 0.177241     O
O     0.652578 0.652578 0.822761     O
O     0.652578 0.822761 0.347438     O
O     0.652578 0.822761 0.652578     O
C      0.65282 0.0132013  0.09312     C
C      0.65282 0.0132013  0.90692     C
C      0.65282  0.09312 0.0132013     C
C      0.65282  0.09312 0.9868013     C
C      0.65282  0.90692 0.0132013     C
C      0.65282  0.90692 0.9868013     C
C      0.65282 0.9868013  0.09312     C
C      0.65282 0.9868013  0.90692     C
C      0.65399  0.10938  0.28278     C
C      0.65399  0.10938  0.71738     C
C      0.65399  0.28278  0.10938     C
C      0.65399  0.28278  0.89078     C
C      0.65399  0.71738  0.10938     C
C      0.65399  0.71738  0.89078     C
C      0.65399  0.89078  0.28278     C
C      0.65399  0.89078  0.71738     C
Zr    0.6543237 0.21607111 0.3456777    Zr
Zr    0.6543237 0.21607111 0.6543237    Zr
Zr    0.6543237 0.3456777 0.21607111    Zr
Zr    0.6543237 0.3456777 0.78392911    Zr
Zr    0.6543237 0.6543237 0.21607111    Zr
Zr    0.6543237 0.6543237 0.78392911    Zr
Zr    0.6543237 0.78392911 0.3456777    Zr
Zr    0.6543237 0.78392911 0.6543237    Zr
C     0.6560913 0.1899312 0.292841     C
C     0.6560913 0.1899312 0.707161     C
C     0.6560913 0.292841 0.1899312     C
C     0.6560913 0.292841 0.8100712     C
C     0.6560913 0.707161 0.1899312     C
C     0.6560913 0.707161 0.8100712     C
C     0.6560913 0.8100712 0.292841     C
C     0.6560913 0.8100712 0.707161     C
Zr    0.6574181 0.1043337 0.1043337    Zr
Zr    0.6574181 0.1043337 0.8956677    Zr
Zr    0.6574181 0.8956677 0.1043337    Zr
Zr    0.6574181 0.8956677 0.8956677    Zr
C      0.65977  0.12217  0.30897     C
C      0.65977  0.12217  0.69117     C
C      0.65977  0.30897  0.12217     C
C      0.65977  0.30897  0.87797     C
C      0.65977  0.69117  0.12217     C
C      0.65977  0.69117  0.87797     C
C      0.65977  0.87797  0.30897     C
C      0.65977  0.87797  0.69117     C
O     0.660421 0.209398 0.305497     O
O     0.660421 0.305497 0.209398     O
O     0.660421 0.305497 0.790618     O
O     0.660421 0.790618 0.305497     O
O     0.660429 0.209398 0.694517     O
O     0.660429 0.694517 0.209398     O
O     0.660429 0.694517 0.790618     O
O     0.660429 0.790618 0.694517     O
O     0.660751 0.247791 0.402841     O
O     0.660751 0.402841 0.247791     O
O     0.660751 0.402841 0.752211     O
O     0.660751 0.752211 0.402841     O
O     0.660759 0.247799 0.597169     O
O     0.660759 0.597169 0.247799     O
O     0.660759 0.597169 0.752219     O
O     0.660759 0.752219 0.597169     O
Zr    0.6612219 0.1204289 0.1672098    Zr
Zr    0.6612219 0.1204289 0.8327918    Zr
Zr    0.6612219 0.1672098 0.1204289    Zr
Zr    0.6612219 0.1672098 0.8795729    Zr
Zr    0.6612219 0.8327918 0.1204289    Zr
Zr    0.6612219 0.8327918 0.8795729    Zr
Zr    0.6612219 0.8795729 0.1672098    Zr
Zr    0.6612219 0.8795729 0.8327918    Zr
C      0.66157  0.09488  0.23947     C
C      0.66157  0.09488  0.76067     C
C      0.66157  0.23947  0.09488     C
C      0.66157  0.23947  0.90528     C
C      0.66157  0.76067  0.09488     C
C      0.66157  0.76067  0.90528     C
C      0.66157  0.90528  0.23947     C
C      0.66157  0.90528  0.76067     C
O     0.662328 0.128841 0.406631     O
O     0.662328 0.128849 0.593371     O
O     0.662328 0.406631 0.128841     O
O     0.662328 0.406631 0.871161     O
O     0.662328 0.593371 0.128849     O
O     0.662328 0.593371 0.871169     O
O     0.662328 0.871161 0.406631     O
O     0.662328 0.871169 0.593371     O
S     0.662773 0.162773     0.25     S
S     0.662773 0.162773     0.75     S
S     0.662773     0.25 0.162773     S
S     0.662773     0.25 0.837233     S
S     0.662773     0.75 0.162773     S
S     0.662773     0.75 0.837233     S
S     0.662773 0.837233     0.25     S
S     0.662773 0.837233     0.75     S
O     0.662997 0.064426 0.099567     O
O     0.662997 0.064426 0.900447     O
O     0.662997 0.099567 0.064426     O
O     0.662997 0.099567 0.935586     O
O     0.662997 0.900447 0.064426     O
O     0.662997 0.900447 0.935586     O
O     0.662997 0.935586 0.099567     O
O     0.662997 0.935586 0.900447     O
O     0.6645513 0.0917112 0.1953111     O
O     0.6645513 0.0917112 0.8046911     O
O     0.6645513 0.1953111 0.0917112     O
O     0.6645513 0.1953111 0.9082912     O
O     0.6645513 0.8046911 0.0917112     O
O     0.6645513 0.8046911 0.9082912     O
O     0.6645513 0.9082912 0.1953111     O
O     0.6645513 0.9082912 0.8046911     O
Zr    0.6672098 0.1612219 0.3795729    Zr
Zr    0.6672098 0.1612219 0.6204289    Zr
Zr    0.6672098 0.3795729 0.1612219    Zr
Zr    0.6672098 0.3795729 0.8387799    Zr
Zr    0.6672098 0.6204289 0.1612219    Zr
Zr    0.6672098 0.6204289 0.8387799    Zr
Zr    0.6672098 0.8387799 0.3795729    Zr
Zr    0.6672098 0.8387799 0.6204289    Zr
O     0.6690811 0.2100216 0.435131     O
O     0.6690811 0.2100216 0.564871     O
O     0.6690811 0.435131 0.2100216     O
O     0.6690811 0.435131 0.7899816     O
O     0.6690811 0.564871 0.2100216     O
O     0.6690811 0.564871 0.7899816     O
O     0.6690811 0.7899816 0.435131     O
O     0.6690811 0.7899816 0.564871     O
O     0.669348 0.202768 0.383408     O
O     0.669348 0.202768 0.616608     O
O     0.669348 0.383408 0.202768     O
O     0.669348 0.383408 0.797248     O
O     0.669348 0.616608 0.202768     O
O     0.669348 0.616608 0.797248     O
O     0.669348 0.797248 0.383408     O
O     0.669348 0.797248 0.616608     O
C     0.6705513 0.1867312 0.269461     C
C     0.6705513 0.1867312 0.730541     C
C     0.6705513 0.269461 0.1867312     C
C     0.6705513 0.269461 0.8132712     C
C     0.6705513 0.730541 0.1867312     C
C     0.6705513 0.730541 0.8132712     C
C     0.6705513 0.8132712 0.269461     C
C     0.6705513 0.8132712 0.730541     C
C     0.6707012 0.0617912 0.4535414     C
C     0.6707012 0.0617912 0.5464614     C
C     0.6707012 0.4535414 0.0617912     C
C     0.6707012 0.4535414 0.9382112     C
C     0.6707012 0.5464614 0.0617912     C
C     0.6707012 0.5464614 0.9382112     C
C     0.6707012 0.9382112 0.4535414     C
C     0.6707012 0.9382112 0.5464614     C
C     0.6727914 0.022731 0.1052916     C
C     0.6727914 0.022731 0.8947116     C
C     0.6727914 0.1052916 0.022731     C
C     0.6727914 0.1052916 0.977271     C
C     0.6727914 0.8947116 0.022731     C
C     0.6727914 0.8947116 0.977271     C
C     0.6727914 0.977271 0.1052916     C
C     0.6727914 0.977271 0.8947116     C
O     0.672851 0.140891 0.202158     O
O     0.672851 0.140891 0.797858     O
O     0.672851 0.202158 0.140891     O
O     0.672851 0.202158 0.859111     O
O     0.672851 0.797858 0.140891     O
O     0.672851 0.797858 0.859111     O
O     0.672851 0.859111 0.202158     O
O     0.672851 0.859111 0.797858     O
O     0.672927 0.249077 0.362607     O
O     0.672927 0.249077 0.637407     O
O     0.672927 0.362607 0.249077     O
O     0.672927 0.362607 0.750937     O
O     0.672927 0.637407 0.249077     O
O     0.672927 0.637407 0.750937     O
O     0.672927 0.750937 0.362607     O
O     0.672927 0.750937 0.637407     O
C     0.6729511 0.2565511 0.3846811     C
C     0.6729511 0.2565511 0.6153211     C
C     0.6729511 0.3846811 0.2565511     C
C     0.6729511 0.3846811 0.7434511     C
C     0.6729511 0.6153211 0.2565511     C
C     0.6729511 0.6153211 0.7434511     C
C     0.6729511 0.7434511 0.3846811     C
C     0.6729511 0.7434511 0.6153211     C
O     0.674407 0.098438 0.138327     O
O     0.674407 0.098438 0.861687     O
O     0.674407 0.138327 0.098438     O
O     0.674407 0.138327 0.901578     O
O     0.674407 0.861687 0.098438     O
O     0.674407 0.861687 0.901578     O
O     0.674407 0.901578 0.138327     O
O     0.674407 0.901578 0.861687     O
O     0.677241 0.152578 0.152578     O
O     0.677241 0.152578 0.847438     O
O     0.677241 0.847438 0.152578     O
O     0.677241 0.847438 0.847438     O
C     0.6781611 0.049361 0.1095311     C
C     0.6781611 0.049361 0.8904711     C
C     0.6781611 0.1095311 0.049361     C
C     0.6781611 0.1095311 0.950641     C
C     0.6781611 0.8904711 0.049361     C
C     0.6781611 0.8904711 0.950641     C
C     0.6781611 0.950641 0.1095311     C
C     0.6781611 0.950641 0.8904711     C
S      0.67884  0.09884  0.26572     S
S      0.67884  0.09884  0.73432     S
S      0.67884  0.26572  0.09884     S
S      0.67884  0.26572  0.90124     S
S      0.67884  0.73432  0.09884     S
S      0.67884  0.73432  0.90124     S
S      0.67884  0.90124  0.26572     S
S      0.67884  0.90124  0.73432     S
C     0.679111  0.09194  0.21039     C
C     0.679111  0.09194  0.78979     C
C     0.679111  0.21039  0.09194     C
C     0.679111  0.21039  0.90814     C
C     0.679111  0.78979  0.09194     C
C     0.679111  0.78979  0.90814     C
C     0.679111  0.90814  0.21039     C
C     0.679111  0.90814  0.78979     C
S     0.679513 0.085543 0.434244     S
S     0.679513 0.085543 0.565764     S
S     0.679513 0.434244 0.085543     S
S     0.679513 0.434244 0.914463     S
S     0.679513 0.565764 0.085543     S
S     0.679513 0.565764 0.914463     S
S     0.679513 0.914463 0.434244     S
S     0.679513 0.914463 0.565764     S
O      0.68224  0.11808  0.31784     O
O      0.68224  0.11808  0.68224     O
O      0.68224  0.31784  0.11808     O
O      0.68224  0.31784  0.88208     O
O      0.68224  0.68224  0.11808     O
O      0.68224  0.68224  0.88208     O
O      0.68224  0.88208  0.31784     O
O      0.68224  0.88208  0.68224     O
O     0.6822811 0.128111 0.3610713     O
O     0.6822811 0.128111 0.6389313     O
O     0.6822811 0.3610713 0.128111     O
O     0.6822811 0.3610713 0.871891     O
O     0.6822811 0.6389313 0.128111     O
O     0.6822811 0.6389313 0.871891     O
O     0.6822811 0.871891 0.3610713     O
O     0.6822811 0.871891 0.6389313     O
O     0.682607 0.025877 0.475668     O
O     0.682607 0.025877 0.524348     O
O     0.682607 0.475668 0.025877     O
O     0.682607 0.475668 0.974137     O
O     0.682607 0.524348 0.025877     O
O     0.682607 0.524348 0.974137     O
O     0.682607 0.974137 0.475668     O
O     0.682607 0.974137 0.524348     O
H       0.6841    0.284   0.4276     H
H       0.6841    0.284   0.5724     H
H       0.6841   0.4276    0.284     H
H       0.6841   0.4276    0.716     H
H       0.6841   0.5724    0.284     H
H       0.6841   0.5724    0.716     H
H       0.6841    0.716   0.4276     H
H       0.6841    0.716   0.5724     H
C     0.6867312 0.1705513 0.230541     C
C     0.6867312 0.1705513 0.769461     C
C     0.6867312 0.230541 0.1705513     C
C     0.6867312 0.230541 0.8294513     C
C     0.6867312 0.769461 0.1705513     C
C     0.6867312 0.769461 0.8294513     C
C     0.6867312 0.8294513 0.230541     C
C     0.6867312 0.8294513 0.769461     C
C     0.6894513 0.2782213 0.3910113     C
C     0.6894513 0.2782213 0.6089913     C
C     0.6894513 0.3910113 0.2782213     C
C     0.6894513 0.3910113 0.7217813     C
C     0.6894513 0.6089913 0.2782213     C
C     0.6894513 0.6089913 0.7217813     C
C     0.6894513 0.7217813 0.3910113     C
C     0.6894513 0.7217813 0.6089913     C
C     0.6899312 0.1560913 0.207161     C
C     0.6899312 0.1560913 0.792841     C
C     0.6899312 0.207161 0.1560913     C
C     0.6899312 0.207161 0.8439113     C
C     0.6899312 0.792841 0.1560913     C
C     0.6899312 0.792841 0.8439113     C
C     0.6899312 0.8439113 0.207161     C
C     0.6899312 0.8439113 0.792841     C
C     0.6899711 0.0442911 0.4633012     C
C     0.6899711 0.0442911 0.5367012     C
C     0.6899711 0.4633012 0.0442911     C
C     0.6899711 0.4633012 0.9557111     C
C     0.6899711 0.5367012 0.0442911     C
C     0.6899711 0.5367012 0.9557111     C
C     0.6899711 0.9557111 0.4633012     C
C     0.6899711 0.9557111 0.5367012     C
C     0.6905614 0.1998714 0.2612012     C
C     0.6905614 0.1998714 0.7388012     C
C     0.6905614 0.2612012 0.1998714     C
C     0.6905614 0.2612012 0.8001314     C
C     0.6905614 0.7388012 0.1998714     C
C     0.6905614 0.7388012 0.8001314     C
C     0.6905614 0.8001314 0.2612012     C
C     0.6905614 0.8001314 0.7388012     C
C      0.69117  0.12217  0.34037     C
C      0.69117  0.12217  0.65977     C
C      0.69117  0.34037  0.12217     C
C      0.69117  0.34037  0.87797     C
C      0.69117  0.65977  0.12217     C
C      0.69117  0.65977  0.87797     C
C      0.69117  0.87797  0.34037     C
C      0.69117  0.87797  0.65977     C
S     0.691855      0.0 0.116765     S
S     0.691855      0.0 0.883245     S
S     0.691855 0.116765      0.0     S
S     0.691855 0.883245      0.0     S
C      0.69302 0.2885718 0.4135216     C
C      0.69302 0.2885718 0.5864816     C
C      0.69302 0.4135216 0.2885718     C
C      0.69302 0.4135216 0.7114318     C
C      0.69302 0.5864816 0.2885718     C
C      0.69302 0.5864816 0.7114318     C
C      0.69302 0.7114318 0.4135216     C
C      0.69302 0.7114318 0.5864816     C
O     0.694517 0.209398 0.339589     O
O     0.694517 0.209398 0.660429     O
O     0.694517 0.339589 0.209398     O
O     0.694517 0.339589 0.790618     O
O     0.694517 0.660429 0.209398     O
O     0.694517 0.660429 0.790618     O
O     0.694517 0.790618 0.339589     O
O     0.694517 0.790618 0.660429     O
O     0.6953111 0.1645513 0.4082912     O
O     0.6953111 0.1645513 0.5917112     O
O     0.6953111 0.4082912 0.1645513     O
O     0.6953111 0.4082912 0.8354513     O
O     0.6953111 0.5917112 0.1645513     O
O     0.6953111 0.5917112 0.8354513     O
O     0.6953111 0.8354513 0.4082912     O
O     0.6953111 0.8354513 0.5917112     O
O     0.696411 0.123161 0.945377     O
O     0.696411 0.876841 0.945377     O
O     0.696411 0.945377 0.123161     O
O     0.696411 0.945377 0.876841     O
O     0.696419 0.054637 0.123169     O
O     0.696419 0.054637 0.876849     O
O     0.696419 0.123169 0.054637     O
O     0.696419 0.876849 0.054637     O
H       0.6973   0.2135   0.2695     H
H       0.6973   0.2135   0.7305     H
H       0.6973   0.2695   0.2135     H
H       0.6973   0.2695   0.7865     H
H       0.6973   0.7305   0.2135     H
H       0.6973   0.7305   0.7865     H
H       0.6973   0.7865   0.2695     H
H       0.6973   0.7865   0.7305     H
O      0.69907  0.08897  0.21507     O
O      0.69907  0.08897  0.78507     O
O      0.69907  0.21507  0.08897     O
O      0.69907  0.21507  0.91117     O
O      0.69907  0.78507  0.08897     O
O      0.69907  0.78507  0.91117     O
O      0.69907  0.91117  0.21507     O
O      0.69907  0.91117  0.78507     O
C     0.6998714 0.1905614 0.2388012     C
C     0.6998714 0.1905614 0.7612012     C
C     0.6998714 0.2388012 0.1905614     C
C     0.6998714 0.2388012 0.8094414     C
C     0.6998714 0.7612012 0.1905614     C
C     0.6998714 0.7612012 0.8094414     C
C     0.6998714 0.8094414 0.2388012     C
C     0.6998714 0.8094414 0.7612012     C
O     0.7006111 0.098738 0.098738     O
O     0.7006111 0.098738 0.901278     O
O     0.7006111 0.901278 0.098738     O
O     0.7006111 0.901278 0.901278     O
O     0.702158 0.172851 0.359111     O
O     0.702158 0.172851 0.640891     O
O     0.702158 0.359111 0.172851     O
O     0.702158 0.359111 0.827151     O
O     0.702158 0.640891 0.172851     O
O     0.702158 0.640891 0.827151     O
O     0.702158 0.827151 0.359111     O
O     0.702158 0.827151 0.640891     O
O     0.702768 0.116608 0.169348     O
O     0.702768 0.116608 0.830668     O
O     0.702768 0.169348 0.116608     O
O     0.702768 0.169348 0.883408     O
O     0.702768 0.830668 0.116608     O
O     0.702768 0.830668 0.883408     O
O     0.702768 0.883408 0.169348     O
O     0.702768 0.883408 0.830668     O
Zr    0.70404516      0.0      0.5    Zr
Zr    0.70404516      0.5      0.0    Zr
C     0.707161 0.1899312 0.3439113     C
C     0.707161 0.1899312 0.6560913     C
C     0.707161 0.3439113 0.1899312     C
C     0.707161 0.3439113 0.8100712     C
C     0.707161 0.6560913 0.1899312     C
C     0.707161 0.6560913 0.8100712     C
C     0.707161 0.8100712 0.3439113     C
C     0.707161 0.8100712 0.6560913     C
S     0.709323 0.290683 0.369184     S
S     0.709323 0.290683 0.630824     S
S     0.709323 0.369184 0.290683     S
S     0.709323 0.369184 0.709323     S
S     0.709323 0.630824 0.290683     S
S     0.709323 0.630824 0.709323     S
S     0.709323 0.709323 0.369184     S
S     0.709323 0.709323 0.630824     S
O     0.709398 0.160429 0.194517     O
O     0.709398 0.160429 0.805497     O
O     0.709398 0.194517 0.160429     O
O     0.709398 0.194517 0.839589     O
O     0.709398 0.805497 0.160429     O
O     0.709398 0.805497 0.839589     O
O     0.709398 0.839589 0.194517     O
O     0.709398 0.839589 0.805497     O
O     0.7100216 0.064871 0.1690811     O
O     0.7100216 0.064871 0.8309211     O
O     0.7100216 0.1690811 0.064871     O
O     0.7100216 0.1690811 0.935131     O
O     0.7100216 0.8309211 0.064871     O
O     0.7100216 0.8309211 0.935131     O
O     0.7100216 0.935131 0.1690811     O
O     0.7100216 0.935131 0.8309211     O
C      0.71039 0.179111  0.40814     C
C      0.71039 0.179111  0.59194     C
C      0.71039  0.40814 0.179111     C
C      0.71039  0.40814 0.820911     C
C      0.71039  0.59194 0.179111     C
C      0.71039  0.59194 0.820911     C
C      0.71039 0.820911  0.40814     C
C      0.71039 0.820911  0.59194     C
C     0.7114318  0.30702 0.4135216     C
C     0.7114318  0.30702 0.5864816     C
C     0.7114318 0.4135216  0.30702     C
C     0.7114318 0.4135216  0.69302     C
C     0.7114318 0.5864816  0.30702     C
C     0.7114318 0.5864816  0.69302     C
C     0.7114318  0.69302 0.4135216     C
C     0.7114318  0.69302 0.5864816     C
O     0.711938 0.049519 0.457691     O
O     0.711938 0.049519 0.542311     O
O     0.711938 0.457691 0.049519     O
O     0.711938 0.457691 0.950499     O
O     0.711938 0.542311 0.049519     O
O     0.711938 0.542311 0.950499     O
O     0.711938 0.950499 0.457691     O
O     0.711938 0.950499 0.542311     O
Zr    0.7124458 0.0912888 0.1378318    Zr
Zr    0.7124458 0.0912888 0.8621698    Zr
Zr    0.7124458 0.1378318 0.0912888    Zr
Zr    0.7124458 0.1378318 0.9087128    Zr
Zr    0.7124458 0.8621698 0.0912888    Zr
Zr    0.7124458 0.9087128 0.1378318    Zr
Zr    0.7124459 0.8621699 0.9087129    Zr
Zr    0.7124459 0.9087129 0.8621699    Zr
H       0.7135   0.1973   0.2305     H
H       0.7135   0.1973   0.7695     H
H       0.7135   0.2305   0.1973     H
H       0.7135   0.2305   0.8027     H
H       0.7135   0.7695   0.1973     H
H       0.7135   0.7695   0.8027     H
H       0.7135   0.8027   0.2305     H
H       0.7135   0.8027   0.7695     H
O      0.71507  0.19907  0.41117     O
O      0.71507  0.19907  0.58897     O
O      0.71507  0.41117  0.19907     O
O      0.71507  0.41117  0.80107     O
O      0.71507  0.58897  0.19907     O
O      0.71507  0.58897  0.80107     O
O      0.71507  0.80107  0.41117     O
O      0.71507  0.80107  0.58897     O
H        0.716   0.3159   0.4276     H
H        0.716   0.3159   0.5724     H
H        0.716   0.4276   0.3159     H
H        0.716   0.4276   0.6841     H
H        0.716   0.5724   0.3159     H
H        0.716   0.5724   0.6841     H
H        0.716   0.6841   0.4276     H
H        0.716   0.6841   0.5724     H
Zr    0.71607111 0.1543237 0.1543237    Zr
Zr    0.71607111 0.1543237 0.8456777    Zr
Zr    0.71607111 0.8456777 0.1543237    Zr
Zr    0.71607111 0.8456777 0.8456777    Zr
C      0.71738  0.10938  0.34619     C
C      0.71738  0.10938  0.65399     C
C      0.71738  0.34619  0.10938     C
C      0.71738  0.34619  0.89078     C
C      0.71738  0.65399  0.10938     C
C      0.71738  0.65399  0.89078     C
C      0.71738  0.89078  0.34619     C
C      0.71738  0.89078  0.65399     C
O     0.7217411 0.127557 0.127557     O
O     0.7217411 0.127557 0.872457     O
O     0.7217411 0.872457 0.127557     O
O     0.7217411 0.872457 0.872457     O
C     0.7217813 0.3105513 0.3910113     C
C     0.7217813 0.3105513 0.6089913     C
C     0.7217813 0.3910113 0.3105513     C
C     0.7217813 0.3910113 0.6894513     C
C     0.7217813 0.6089913 0.3105513     C
C     0.7217813 0.6089913 0.6894513     C
C     0.7217813 0.6894513 0.3910113     C
C     0.7217813 0.6894513 0.6089913     C
O     0.724521      0.0 0.462241     O
O     0.724521      0.0 0.537761     O
O     0.724521 0.462241      0.0     O
O     0.724521 0.537761      0.0     O
O     0.730391 0.028021      0.5     O
O     0.730391      0.5 0.028021     O
O     0.730399      0.5 0.971989     O
O     0.730399 0.971989      0.5     O
H       0.7305   0.2135   0.3027     H
H       0.7305   0.2135   0.6973     H
H       0.7305   0.3027   0.2135     H
H       0.7305   0.3027   0.7865     H
H       0.7305   0.6973   0.2135     H
H       0.7305   0.6973   0.7865     H
H       0.7305   0.7865   0.3027     H
H       0.7305   0.7865   0.6973     H
C     0.730541 0.1867312 0.3294513     C
C     0.730541 0.1867312 0.6705513     C
C     0.730541 0.3294513 0.1867312     C
C     0.730541 0.3294513 0.8132712     C
C     0.730541 0.6705513 0.1867312     C
C     0.730541 0.6705513 0.8132712     C
C     0.730541 0.8132712 0.3294513     C
C     0.730541 0.8132712 0.6705513     C
C      0.73389  0.10978  0.36799     C
C      0.73389  0.10978  0.63219     C
C      0.73389  0.36799  0.10978     C
C      0.73389  0.36799  0.89038     C
C      0.73389  0.63219  0.10978     C
C      0.73389  0.63219  0.89038     C
C      0.73389  0.89038  0.36799     C
C      0.73389  0.89038  0.63219     C
S      0.73432  0.09884  0.32124     S
S      0.73432  0.09884  0.67884     S
S      0.73432  0.32124  0.09884     S
S      0.73432  0.32124  0.90124     S
S      0.73432  0.67884  0.09884     S
S      0.73432  0.67884  0.90124     S
S      0.73432  0.90124  0.32124     S
S      0.73432  0.90124  0.67884     S
C     0.7388012 0.1998714 0.3094414     C
C     0.7388012 0.1998714 0.6905614     C
C     0.7388012 0.3094414 0.1998714     C
C     0.7388012 0.3094414 0.8001314     C
C     0.7388012 0.6905614 0.1998714     C
C     0.7388012 0.6905614 0.8001314     C
C     0.7388012 0.8001314 0.3094414     C
C     0.7388012 0.8001314 0.6905614     C
C      0.73947  0.16157  0.40528     C
C      0.73947  0.16157  0.59488     C
C      0.73947  0.40528  0.16157     C
C      0.73947  0.40528  0.83857     C
C      0.73947  0.59488  0.16157     C
C      0.73947  0.59488  0.83857     C
C      0.73947  0.83857  0.40528     C
C      0.73947  0.83857  0.59488     C
O     0.742549 0.073161 0.1184211     O
O     0.742549 0.073161 0.8815811     O
O     0.742549 0.1184211 0.073161     O
O     0.742549 0.1184211 0.926841     O
O     0.742549 0.8815811 0.073161     O
O     0.742549 0.8815811 0.926841     O
O     0.742549 0.926841 0.1184211     O
O     0.742549 0.926841 0.8815811     O
C     0.7434511 0.3270511 0.3846811     C
C     0.7434511 0.3270511 0.6153211     C
C     0.7434511 0.3846811 0.3270511     C
C     0.7434511 0.3846811 0.6729511     C
C     0.7434511 0.6153211 0.3270511     C
C     0.7434511 0.6153211 0.6729511     C
C     0.7434511 0.6729511 0.3846811     C
C     0.7434511 0.6729511 0.6153211     C
C      0.74379  0.13588  0.39679     C
C      0.74379  0.13588  0.60339     C
C      0.74379  0.39679  0.13588     C
C      0.74379  0.39679  0.86428     C
C      0.74379  0.60339  0.13588     C
C      0.74379  0.60339  0.86428     C
C      0.74379  0.86428  0.39679     C
C      0.74379  0.86428  0.60339     C
O     0.746751 0.0310114 0.426661     O
O     0.746751 0.0310114 0.573341     O
O     0.746751 0.426661 0.0310114     O
O     0.746751 0.426661 0.9689914     O
O     0.746751 0.573341 0.0310114     O
O     0.746751 0.573341 0.9689914     O
O     0.746751 0.9689914 0.426661     O
O     0.746751 0.9689914 0.573341     O
O     0.747799 0.097169 0.160759     O
O     0.747799 0.097169 0.839259     O
O     0.747799 0.160759 0.097169     O
O     0.747799 0.160759 0.902849     O
O     0.747799 0.839259 0.097169     O
O     0.747799 0.839259 0.902849     O
O     0.747799 0.902849 0.160759     O
O     0.747799 0.902849 0.839259     O
O     0.749077 0.137407 0.172927     O
O     0.749077 0.137407 0.827087     O
O     0.749077 0.172927 0.137407     O
O     0.749077 0.172927 0.862607     O
O     0.749077 0.827087 0.137407     O
O     0.749077 0.827087 0.862607     O
O     0.749077 0.862607 0.172927     O
O     0.749077 0.862607 0.827087     O
Zr        0.75 0.0329728 0.4670288    Zr
Zr        0.75 0.0329728 0.5329728    Zr
S         0.75 0.162773 0.337233     S
S         0.75 0.162773 0.662773     S
S         0.75 0.337233 0.162773     S
S         0.75 0.337233 0.837233     S
Zr        0.75 0.4670288 0.0329728    Zr
Zr        0.75 0.4670288 0.9670288    Zr
Zr        0.75 0.5329728 0.0329728    Zr
Zr        0.75 0.5329728 0.9670288    Zr
S         0.75 0.662773 0.162773     S
S         0.75 0.662773 0.837233     S
S         0.75 0.837233 0.337233     S
S         0.75 0.837233 0.662773     S
Zr        0.75 0.9670288 0.4670288    Zr
Zr        0.75 0.9670288 0.5329728    Zr
O     0.750937 0.327087 0.362607     O
O     0.750937 0.327087 0.637407     O
O     0.750937 0.362607 0.327087     O
O     0.750937 0.362607 0.672927     O
O     0.750937 0.637407 0.327087     O
O     0.750937 0.637407 0.672927     O
O     0.750937 0.672927 0.362607     O
O     0.750937 0.672927 0.637407     O
O     0.752211 0.339251 0.402841     O
O     0.752211 0.402841 0.339251     O
O     0.752211 0.402841 0.660751     O
O     0.752211 0.660751 0.402841     O
O     0.752219 0.339259 0.597169     O
O     0.752219 0.597169 0.339259     O
O     0.752219 0.597169 0.660759     O
O     0.752219 0.660759 0.597169     O
O     0.753251 0.073341 0.4689914     O
O     0.753251 0.073341 0.5310114     O
O     0.753251 0.4689914 0.073341     O
O     0.753251 0.4689914 0.926661     O
O     0.753251 0.5310114 0.073341     O
O     0.753251 0.5310114 0.926661     O
O     0.753251 0.926661 0.4689914     O
O     0.753251 0.926661 0.5310114     O
C      0.75639  0.10339  0.36428     C
C      0.75639  0.10339  0.63588     C
C      0.75639  0.36428  0.10339     C
C      0.75639  0.36428  0.89679     C
C      0.75639  0.63588  0.10339     C
C      0.75639  0.63588  0.89679     C
C      0.75639  0.89679  0.36428     C
C      0.75639  0.89679  0.63588     C
C     0.7565511 0.1153211 0.1729511     C
C     0.7565511 0.1153211 0.8270511     C
C     0.7565511 0.1729511 0.1153211     C
C     0.7565511 0.1729511 0.8846811     C
C     0.7565511 0.8270511 0.1153211     C
C     0.7565511 0.8270511 0.8846811     C
C     0.7565511 0.8846811 0.1729511     C
C     0.7565511 0.8846811 0.8270511     C
O     0.757469 0.3815811 0.426841     O
O     0.757469 0.3815811 0.573161     O
O     0.757469 0.426841 0.3815811     O
O     0.757469 0.426841 0.6184211     O
O     0.757469 0.573161 0.3815811     O
O     0.757469 0.573161 0.6184211     O
O     0.757469 0.6184211 0.426841     O
O     0.757469 0.6184211 0.573161     O
C      0.76067  0.09488  0.33857     C
C      0.76067  0.09488  0.66157     C
C      0.76067  0.33857  0.09488     C
C      0.76067  0.33857  0.90528     C
C      0.76067  0.66157  0.09488     C
C      0.76067  0.66157  0.90528     C
C      0.76067  0.90528  0.33857     C
C      0.76067  0.90528  0.66157     C
C     0.7612012 0.1905614 0.3001314     C
C     0.7612012 0.1905614 0.6998714     C
C     0.7612012 0.3001314 0.1905614     C
C     0.7612012 0.3001314 0.8094414     C
C     0.7612012 0.6998714 0.1905614     C
C     0.7612012 0.6998714 0.8094414     C
C     0.7612012 0.8094414 0.3001314     C
C     0.7612012 0.8094414 0.6998714     C
S      0.76572  0.17884  0.40124     S
S      0.76572  0.17884  0.59884     S
S      0.76572  0.40124  0.17884     S
S      0.76572  0.40124  0.82124     S
S      0.76572  0.59884  0.17884     S
S      0.76572  0.59884  0.82124     S
S      0.76572  0.82124  0.40124     S
S      0.76572  0.82124  0.59884     S
C      0.76629  0.13219  0.39038     C
C      0.76629  0.13219  0.60978     C
C      0.76629  0.39038  0.13219     C
C      0.76629  0.39038  0.86799     C
C      0.76629  0.60978  0.13219     C
C      0.76629  0.60978  0.86799     C
C      0.76629  0.86799  0.39038     C
C      0.76629  0.86799  0.60978     C
C     0.769461 0.1705513 0.3132712     C
C     0.769461 0.1705513 0.6867312     C
C     0.769461 0.3132712 0.1705513     C
C     0.769461 0.3132712 0.8294513     C
C     0.769461 0.6867312 0.1705513     C
C     0.769461 0.6867312 0.8294513     C
C     0.769461 0.8294513 0.3132712     C
C     0.769461 0.8294513 0.6867312     C
H       0.7695   0.1973   0.2865     H
H       0.7695   0.1973   0.7135     H
H       0.7695   0.2865   0.1973     H
H       0.7695   0.2865   0.8027     H
H       0.7695   0.7135   0.1973     H
H       0.7695   0.7135   0.8027     H
H       0.7695   0.8027   0.2865     H
H       0.7695   0.8027   0.7135     H
O     0.769611      0.0 0.471981     O
O     0.769611 0.471981      0.0     O
O     0.769619      0.0 0.528029     O
O     0.769619 0.528029      0.0     O
O     0.775481 0.037761      0.5     O
O     0.775481      0.5 0.037761     O
O     0.775481      0.5 0.962241     O
O     0.775481 0.962241      0.5     O
C     0.7782213 0.1089913 0.1894513     C
C     0.7782213 0.1089913 0.8105513     C
C     0.7782213 0.1894513 0.1089913     C
C     0.7782213 0.1894513 0.8910113     C
C     0.7782213 0.8105513 0.1089913     C
C     0.7782213 0.8105513 0.8910113     C
C     0.7782213 0.8910113 0.1894513     C
C     0.7782213 0.8910113 0.8105513     C
O     0.7782611 0.372457 0.372457     O
O     0.7782611 0.372457 0.627557     O
O     0.7782611 0.627557 0.372457     O
O     0.7782611 0.627557 0.627557     O
C      0.78278  0.15399  0.39078     C
C      0.78278  0.15399  0.60938     C
C      0.78278  0.39078  0.15399     C
C      0.78278  0.39078  0.84619     C
C      0.78278  0.60938  0.15399     C
C      0.78278  0.60938  0.84619     C
C      0.78278  0.84619  0.39078     C
C      0.78278  0.84619  0.60938     C
Zr    0.78392911 0.3456777 0.3456777    Zr
Zr    0.78392911 0.3456777 0.6543237    Zr
Zr    0.78392911 0.6543237 0.3456777    Zr
Zr    0.78392911 0.6543237 0.6543237    Zr
H        0.784   0.0724   0.1841     H
H        0.784   0.0724   0.8159     H
H        0.784   0.1841   0.0724     H
H        0.784   0.1841   0.9276     H
H        0.784   0.8159   0.0724     H
H        0.784   0.8159   0.9276     H
H        0.784   0.9276   0.1841     H
H        0.784   0.9276   0.8159     H
O      0.78507  0.08897  0.30107     O
O      0.78507  0.08897  0.69907     O
O      0.78507  0.30107  0.08897     O
O      0.78507  0.30107  0.91117     O
O      0.78507  0.69907  0.08897     O
O      0.78507  0.69907  0.91117     O
O      0.78507  0.91117  0.30107     O
O      0.78507  0.91117  0.69907     O
H       0.7865   0.2695   0.3027     H
H       0.7865   0.2695   0.6973     H
H       0.7865   0.3027   0.2695     H
H       0.7865   0.3027   0.7305     H
H       0.7865   0.6973   0.2695     H
H       0.7865   0.6973   0.7305     H
H       0.7865   0.7305   0.3027     H
H       0.7865   0.7305   0.6973     H
Zr    0.7875558 0.3621698 0.4087128    Zr
Zr    0.7875558 0.3621698 0.5912888    Zr
Zr    0.7875558 0.4087128 0.3621698    Zr
Zr    0.7875558 0.4087128 0.6378318    Zr
Zr    0.7875558 0.5912888 0.3621698    Zr
Zr    0.7875558 0.6378318 0.4087128    Zr
Zr    0.7875559 0.5912889 0.6378319    Zr
Zr    0.7875559 0.6378319 0.5912889    Zr
O     0.788078 0.042311 0.450499     O
O     0.788078 0.042311 0.549519     O
O     0.788078 0.450499 0.042311     O
O     0.788078 0.450499 0.957691     O
O     0.788078 0.549519 0.042311     O
O     0.788078 0.549519 0.957691     O
O     0.788078 0.957691 0.450499     O
O     0.788078 0.957691 0.549519     O
C     0.7885718 0.0864816  0.19302     C
C     0.7885718 0.0864816  0.80702     C
C     0.7885718  0.19302 0.0864816     C
C     0.7885718  0.19302 0.9135216     C
C     0.7885718  0.80702 0.0864816     C
C     0.7885718  0.80702 0.9135216     C
C     0.7885718 0.9135216  0.19302     C
C     0.7885718 0.9135216  0.80702     C
C      0.78979  0.09194 0.320911     C
C      0.78979  0.09194 0.679111     C
C      0.78979 0.320911  0.09194     C
C      0.78979 0.320911  0.90814     C
C      0.78979 0.679111  0.09194     C
C      0.78979 0.679111  0.90814     C
C      0.78979  0.90814 0.320911     C
C      0.78979  0.90814 0.679111     C
O     0.7899816 0.3309211 0.435131     O
O     0.7899816 0.3309211 0.564871     O
O     0.7899816 0.435131 0.3309211     O
O     0.7899816 0.435131 0.6690811     O
O     0.7899816 0.564871 0.3309211     O
O     0.7899816 0.564871 0.6690811     O
O     0.7899816 0.6690811 0.435131     O
O     0.7899816 0.6690811 0.564871     O
O     0.790618 0.305497 0.339581     O
O     0.790618 0.305497 0.660421     O
O     0.790618 0.339581 0.305497     O
O     0.790618 0.339589 0.694517     O
O     0.790618 0.660421 0.305497     O
O     0.790618 0.660429 0.694517     O
O     0.790618 0.694517 0.339589     O
O     0.790618 0.694517 0.660429     O
S     0.790683 0.130824 0.209323     S
S     0.790683 0.130824 0.790683     S
S     0.790683 0.209323 0.130824     S
S     0.790683 0.209323 0.869184     S
S     0.790683 0.790683 0.130824     S
S     0.790683 0.790683 0.869184     S
S     0.790683 0.869184 0.209323     S
S     0.790683 0.869184 0.790683     S
C     0.792841 0.1560913 0.3100712     C
C     0.792841 0.1560913 0.6899312     C
C     0.792841 0.3100712 0.1560913     C
C     0.792841 0.3100712 0.8439113     C
C     0.792841 0.6899312 0.1560913     C
C     0.792841 0.6899312 0.8439113     C
C     0.792841 0.8439113 0.3100712     C
C     0.792841 0.8439113 0.6899312     C
Zr    0.79595516      0.0      0.5    Zr
Zr    0.79595516      0.5      0.0    Zr
O     0.797248 0.330668 0.383408     O
O     0.797248 0.330668 0.616608     O
O     0.797248 0.383408 0.330668     O
O     0.797248 0.383408 0.669348     O
O     0.797248 0.616608 0.330668     O
O     0.797248 0.616608 0.669348     O
O     0.797248 0.669348 0.383408     O
O     0.797248 0.669348 0.616608     O
O     0.797858 0.140891 0.327151     O
O     0.797858 0.140891 0.672851     O
O     0.797858 0.327151 0.140891     O
O     0.797858 0.327151 0.859111     O
O     0.797858 0.672851 0.140891     O
O     0.797858 0.672851 0.859111     O
O     0.797858 0.859111 0.327151     O
O     0.797858 0.859111 0.672851     O
O     0.7993911 0.401278 0.401278     O
O     0.7993911 0.401278 0.598738     O
O     0.7993911 0.598738 0.401278     O
O     0.7993911 0.598738 0.598738     O
C     0.8001314 0.2612012 0.3094414     C
C     0.8001314 0.2612012 0.6905614     C
C     0.8001314 0.3094414 0.2612012     C
C     0.8001314 0.3094414 0.7388012     C
C     0.8001314 0.6905614 0.2612012     C
C     0.8001314 0.6905614 0.7388012     C
C     0.8001314 0.7388012 0.3094414     C
C     0.8001314 0.7388012 0.6905614     C
O      0.80107  0.28507  0.41117     O
O      0.80107  0.28507  0.58897     O
O      0.80107  0.41117  0.28507     O
O      0.80107  0.41117  0.71507     O
O      0.80107  0.58897  0.28507     O
O      0.80107  0.58897  0.71507     O
O      0.80107  0.71507  0.41117     O
O      0.80107  0.71507  0.58897     O
H       0.8027   0.2305   0.2865     H
H       0.8027   0.2305   0.7135     H
H       0.8027   0.2865   0.2305     H
H       0.8027   0.2865   0.7695     H
H       0.8027   0.7135   0.2305     H
H       0.8027   0.7135   0.7695     H
H       0.8027   0.7695   0.2865     H
H       0.8027   0.7695   0.7135     H
O     0.803591 0.376841 0.554637     O
O     0.803591 0.554637 0.376841     O
O     0.803591 0.554637 0.623161     O
O     0.803591 0.623161 0.554637     O
O     0.803599 0.376849 0.445377     O
O     0.803599 0.445377 0.376849     O
O     0.803599 0.445377 0.623169     O
O     0.803599 0.623169 0.445377     O
O     0.8046911 0.0917112 0.3354513     O
O     0.8046911 0.0917112 0.6645513     O
O     0.8046911 0.3354513 0.0917112     O
O     0.8046911 0.3354513 0.9082912     O
O     0.8046911 0.6645513 0.0917112     O
O     0.8046911 0.6645513 0.9082912     O
O     0.8046911 0.9082912 0.3354513     O
O     0.8046911 0.9082912 0.6645513     O
O     0.805497 0.160429 0.290618     O
O     0.805497 0.160429 0.709398     O
O     0.805497 0.290618 0.160429     O
O     0.805497 0.290618 0.839589     O
O     0.805497 0.709398 0.160429     O
O     0.805497 0.709398 0.839589     O
O     0.805497 0.839589 0.290618     O
O     0.805497 0.839589 0.709398     O
C      0.80702 0.0864816 0.2114318     C
C      0.80702 0.0864816 0.7885718     C
C      0.80702 0.2114318 0.0864816     C
C      0.80702 0.2114318 0.9135216     C
C      0.80702 0.7885718 0.0864816     C
C      0.80702 0.7885718 0.9135216     C
C      0.80702 0.9135216 0.2114318     C
C      0.80702 0.9135216 0.7885718     C
S     0.808155 0.383245      0.5     S
S     0.808155      0.5 0.383245     S
S     0.808155      0.5 0.616765     S
S     0.808155 0.616765      0.5     S
C      0.80897  0.15977  0.37797     C
C      0.80897  0.15977  0.62217     C
C      0.80897  0.37797  0.15977     C
C      0.80897  0.37797  0.84037     C
C      0.80897  0.62217  0.15977     C
C      0.80897  0.62217  0.84037     C
C      0.80897  0.84037  0.37797     C
C      0.80897  0.84037  0.62217     C
C     0.8094414 0.2388012 0.3001314     C
C     0.8094414 0.2388012 0.6998714     C
C     0.8094414 0.3001314 0.2388012     C
C     0.8094414 0.3001314 0.7612012     C
C     0.8094414 0.6998714 0.2388012     C
C     0.8094414 0.6998714 0.7612012     C
C     0.8094414 0.7612012 0.3001314     C
C     0.8094414 0.7612012 0.6998714     C
C     0.8100311 0.0367012 0.4557111     C
C     0.8100311 0.0367012 0.5442911     C
C     0.8100311 0.4557111 0.0367012     C
C     0.8100311 0.4557111 0.9633012     C
C     0.8100311 0.5442911 0.0367012     C
C     0.8100311 0.5442911 0.9633012     C
C     0.8100311 0.9633012 0.4557111     C
C     0.8100311 0.9633012 0.5442911     C
C     0.8100712 0.292841 0.3439113     C
C     0.8100712 0.292841 0.6560913     C
C     0.8100712 0.3439113 0.292841     C
C     0.8100712 0.3439113 0.707161     C
C     0.8100712 0.6560913 0.292841     C
C     0.8100712 0.6560913 0.707161     C
C     0.8100712 0.707161 0.3439113     C
C     0.8100712 0.707161 0.6560913     C
C     0.8105513 0.1089913 0.2217813     C
C     0.8105513 0.1089913 0.7782213     C
C     0.8105513 0.2217813 0.1089913     C
C     0.8105513 0.2217813 0.8910113     C
C     0.8105513 0.7782213 0.1089913     C
C     0.8105513 0.7782213 0.8910113     C
C     0.8105513 0.8910113 0.2217813     C
C     0.8105513 0.8910113 0.7782213     C
C     0.8132712 0.269461 0.3294513     C
C     0.8132712 0.269461 0.6705513     C
C     0.8132712 0.3294513 0.269461     C
C     0.8132712 0.3294513 0.730541     C
C     0.8132712 0.6705513 0.269461     C
C     0.8132712 0.6705513 0.730541     C
C     0.8132712 0.730541 0.3294513     C
C     0.8132712 0.730541 0.6705513     C
H       0.8159   0.0724    0.216     H
H       0.8159   0.0724    0.784     H
H       0.8159    0.216   0.0724     H
H       0.8159    0.216   0.9276     H
H       0.8159    0.784   0.0724     H
H       0.8159    0.784   0.9276     H
H       0.8159   0.9276    0.216     H
H       0.8159   0.9276    0.784     H
O     0.817407 0.024348 0.474137     O
O     0.817407 0.024348 0.525877     O
O     0.817407 0.474137 0.024348     O
O     0.817407 0.474137 0.975668     O
O     0.817407 0.525877 0.024348     O
O     0.817407 0.525877 0.975668     O
O     0.817407 0.975668 0.474137     O
O     0.817407 0.975668 0.525877     O
O     0.8177211 0.1389313 0.371891     O
O     0.8177211 0.1389313 0.628111     O
O     0.8177211 0.371891 0.1389313     O
O     0.8177211 0.371891 0.8610713     O
O     0.8177211 0.628111 0.1389313     O
O     0.8177211 0.628111 0.8610713     O
O     0.8177211 0.8610713 0.371891     O
O     0.8177211 0.8610713 0.628111     O
O      0.81784  0.18224  0.38208     O
O      0.81784  0.18224  0.61808     O
O      0.81784  0.38208  0.18224     O
O      0.81784  0.38208  0.81784     O
O      0.81784  0.61808  0.18224     O
O      0.81784  0.61808  0.81784     O
O      0.81784  0.81784  0.38208     O
O      0.81784  0.81784  0.61808     O
S     0.820493 0.065764 0.414463     S
S     0.820493 0.065764 0.585543     S
S     0.820493 0.414463 0.065764     S
S     0.820493 0.414463 0.934244     S
S     0.820493 0.585543 0.065764     S
S     0.820493 0.585543 0.934244     S
S     0.820493 0.934244 0.414463     S
S     0.820493 0.934244 0.585543     S
C     0.820911  0.28979  0.40814     C
C     0.820911  0.28979  0.59194     C
C     0.820911  0.40814  0.28979     C
C     0.820911  0.40814  0.71039     C
C     0.820911  0.59194  0.28979     C
C     0.820911  0.59194  0.71039     C
C     0.820911  0.71039  0.40814     C
C     0.820911  0.71039  0.59194     C
S      0.82124  0.23432  0.40124     S
S      0.82124  0.23432  0.59884     S
S      0.82124  0.40124  0.23432     S
S      0.82124  0.40124  0.76572     S
S      0.82124  0.59884  0.23432     S
S      0.82124  0.59884  0.76572     S
S      0.82124  0.76572  0.40124     S
S      0.82124  0.76572  0.59884     S
C     0.8218411 0.3904711 0.450641     C
C     0.8218411 0.3904711 0.549361     C
C     0.8218411 0.450641 0.3904711     C
C     0.8218411 0.450641 0.6095311     C
C     0.8218411 0.549361 0.3904711     C
C     0.8218411 0.549361 0.6095311     C
C     0.8218411 0.6095311 0.450641     C
C     0.8218411 0.6095311 0.549361     C
O     0.822761 0.347438 0.347438     O
O     0.822761 0.347438 0.652578     O
O     0.822761 0.652578 0.347438     O
O     0.822761 0.652578 0.652578     O
O     0.825607 0.361687 0.401578     O
O     0.825607 0.361687 0.598438     O
O     0.825607 0.401578 0.361687     O
O     0.825607 0.401578 0.638327     O
O     0.825607 0.598438 0.361687     O
O     0.825607 0.598438 0.638327     O
O     0.825607 0.638327 0.401578     O
O     0.825607 0.638327 0.598438     O
C     0.8270511 0.1153211 0.2434511     C
C     0.8270511 0.1153211 0.7565511     C
C     0.8270511 0.2434511 0.1153211     C
C     0.8270511 0.2434511 0.8846811     C
C     0.8270511 0.7565511 0.1153211     C
C     0.8270511 0.7565511 0.8846811     C
C     0.8270511 0.8846811 0.2434511     C
C     0.8270511 0.8846811 0.7565511     C
O     0.827087 0.137407 0.250937     O
O     0.827087 0.137407 0.749077     O
O     0.827087 0.250937 0.137407     O
O     0.827087 0.250937 0.862607     O
O     0.827087 0.749077 0.137407     O
O     0.827087 0.749077 0.862607     O
O     0.827087 0.862607 0.250937     O
O     0.827087 0.862607 0.749077     O
O     0.827151 0.297858 0.359111     O
O     0.827151 0.297858 0.640891     O
O     0.827151 0.359111 0.297858     O
O     0.827151 0.359111 0.702158     O
O     0.827151 0.640891 0.297858     O
O     0.827151 0.640891 0.702158     O
O     0.827151 0.702158 0.359111     O
O     0.827151 0.702158 0.640891     O
C     0.8272114 0.3947116 0.477271     C
C     0.8272114 0.3947116 0.522731     C
C     0.8272114 0.477271 0.3947116     C
C     0.8272114 0.477271 0.6052916     C
C     0.8272114 0.522731 0.3947116     C
C     0.8272114 0.522731 0.6052916     C
C     0.8272114 0.6052916 0.477271     C
C     0.8272114 0.6052916 0.522731     C
C     0.8293012 0.0464614 0.4382112     C
C     0.8293012 0.0464614 0.5617912     C
C     0.8293012 0.4382112 0.0464614     C
C     0.8293012 0.4382112 0.9535414     C
C     0.8293012 0.5617912 0.0464614     C
C     0.8293012 0.5617912 0.9535414     C
C     0.8293012 0.9535414 0.4382112     C
C     0.8293012 0.9535414 0.5617912     C
C     0.8294513 0.230541 0.3132712     C
C     0.8294513 0.230541 0.6867312     C
C     0.8294513 0.3132712 0.230541     C
C     0.8294513 0.3132712 0.769461     C
C     0.8294513 0.6867312 0.230541     C
C     0.8294513 0.6867312 0.769461     C
C     0.8294513 0.769461 0.3132712     C
C     0.8294513 0.769461 0.6867312     C
O     0.830668 0.116608 0.297248     O
O     0.830668 0.116608 0.702768     O
O     0.830668 0.297248 0.116608     O
O     0.830668 0.297248 0.883408     O
O     0.830668 0.702768 0.116608     O
O     0.830668 0.702768 0.883408     O
O     0.830668 0.883408 0.297248     O
O     0.830668 0.883408 0.702768     O
O     0.8309211 0.064871 0.2899816     O
O     0.8309211 0.064871 0.7100216     O
O     0.8309211 0.2899816 0.064871     O
O     0.8309211 0.2899816 0.935131     O
O     0.8309211 0.7100216 0.064871     O
O     0.8309211 0.7100216 0.935131     O
O     0.8309211 0.935131 0.2899816     O
O     0.8309211 0.935131 0.7100216     O
Zr    0.8327918 0.1204289 0.3387799    Zr
Zr    0.8327918 0.1204289 0.6612219    Zr
Zr    0.8327918 0.3387799 0.1204289    Zr
Zr    0.8327918 0.3387799 0.8795729    Zr
Zr    0.8327918 0.6612219 0.1204289    Zr
Zr    0.8327918 0.6612219 0.8795729    Zr
Zr    0.8327918 0.8795729 0.3387799    Zr
Zr    0.8327918 0.8795729 0.6612219    Zr
O     0.8354513 0.3046911 0.4082912     O
O     0.8354513 0.3046911 0.5917112     O
O     0.8354513 0.4082912 0.3046911     O
O     0.8354513 0.4082912 0.6953111     O
O     0.8354513 0.5917112 0.3046911     O
O     0.8354513 0.5917112 0.6953111     O
O     0.8354513 0.6953111 0.4082912     O
O     0.8354513 0.6953111 0.5917112     O
O     0.837017 0.400447 0.435586     O
O     0.837017 0.400447 0.564426     O
O     0.837017 0.435586 0.400447     O
O     0.837017 0.435586 0.599567     O
O     0.837017 0.564426 0.400447     O
O     0.837017 0.564426 0.599567     O
O     0.837017 0.599567 0.435586     O
O     0.837017 0.599567 0.564426     O
S     0.837233     0.25 0.337233     S
S     0.837233     0.25 0.662773     S
S     0.837233 0.337233     0.25     S
S     0.837233 0.337233     0.75     S
S     0.837233 0.662773     0.25     S
S     0.837233 0.662773     0.75     S
S     0.837233     0.75 0.337233     S
S     0.837233     0.75 0.662773     S
O     0.837688 0.093371 0.371161     O
O     0.837688 0.093371 0.628841     O
O     0.837688 0.371161 0.093371     O
O     0.837688 0.371169 0.906631     O
O     0.837688 0.628841 0.093371     O
O     0.837688 0.628849 0.906631     O
O     0.837688 0.906631 0.371169     O
O     0.837688 0.906631 0.628849     O
C      0.83857  0.26067  0.40528     C
C      0.83857  0.26067  0.59488     C
C      0.83857  0.40528  0.26067     C
C      0.83857  0.40528  0.73947     C
C      0.83857  0.59488  0.26067     C
C      0.83857  0.59488  0.73947     C
C      0.83857  0.73947  0.40528     C
C      0.83857  0.73947  0.59488     C
Zr    0.8387799 0.3327918 0.3795729    Zr
Zr    0.8387799 0.3327918 0.6204289    Zr
Zr    0.8387799 0.3795729 0.3327918    Zr
Zr    0.8387799 0.3795729 0.6672098    Zr
Zr    0.8387799 0.6204289 0.3327918    Zr
Zr    0.8387799 0.6204289 0.6672098    Zr
Zr    0.8387799 0.6672098 0.3795729    Zr
Zr    0.8387799 0.6672098 0.6204289    Zr
O     0.839251 0.097161 0.252211     O
O     0.839251 0.252211 0.097161     O
O     0.839259 0.097169 0.747799     O
O     0.839259 0.252219 0.902849     O
O     0.839259 0.747799 0.097169     O
O     0.839259 0.747799 0.902849     O
O     0.839259 0.902849 0.252219     O
O     0.839259 0.902849 0.747799     O
O     0.839589 0.194517 0.290618     O
O     0.839589 0.194517 0.709398     O
O     0.839589 0.290618 0.194517     O
O     0.839589 0.290618 0.805497     O
O     0.839589 0.709398 0.194517     O
O     0.839589 0.709398 0.805497     O
O     0.839589 0.805497 0.290618     O
O     0.839589 0.805497 0.709398     O
C      0.84037  0.19117  0.37797     C
C      0.84037  0.19117  0.62217     C
C      0.84037  0.37797  0.19117     C
C      0.84037  0.37797  0.80897     C
C      0.84037  0.62217  0.19117     C
C      0.84037  0.62217  0.80897     C
C      0.84037  0.80897  0.37797     C
C      0.84037  0.80897  0.62217     C
Zr    0.8425821 0.3956677 0.3956677    Zr
Zr    0.8425821 0.3956677 0.6043337    Zr
Zr    0.8425821 0.6043337 0.3956677    Zr
Zr    0.8425821 0.6043337 0.6043337    Zr
C     0.8439113 0.207161 0.3100712     C
C     0.8439113 0.207161 0.6899312     C
C     0.8439113 0.3100712 0.207161     C
C     0.8439113 0.3100712 0.792841     C
C     0.8439113 0.6899312 0.207161     C
C     0.8439113 0.6899312 0.792841     C
C     0.8439113 0.792841 0.3100712     C
C     0.8439113 0.792841 0.6899312     C
Zr    0.8456777 0.1543237 0.28392911    Zr
Zr    0.8456777 0.1543237 0.71607111    Zr
Zr    0.8456777 0.28392911 0.1543237    Zr
Zr    0.8456777 0.28392911 0.8456777    Zr
Zr    0.8456777 0.71607111 0.1543237    Zr
Zr    0.8456777 0.71607111 0.8456777    Zr
Zr    0.8456777 0.8456777 0.28392911    Zr
Zr    0.8456777 0.8456777 0.71607111    Zr
C      0.84619  0.21738  0.39078     C
C      0.84619  0.21738  0.60938     C
C      0.84619  0.39078  0.21738     C
C      0.84619  0.39078  0.78278     C
C      0.84619  0.60938  0.21738     C
C      0.84619  0.60938  0.78278     C
C      0.84619  0.78278  0.39078     C
C      0.84619  0.78278  0.60938     C
C      0.84722  0.40692 0.4868013     C
C      0.84722  0.40692 0.5132013     C
C      0.84722 0.4868013  0.40692     C
C      0.84722 0.4868013  0.59312     C
C      0.84722 0.5132013  0.40692     C
C      0.84722 0.5132013  0.59312     C
C      0.84722  0.59312 0.4868013     C
C      0.84722  0.59312 0.5132013     C
O     0.847438 0.152578 0.322761     O
O     0.847438 0.152578 0.677241     O
O     0.847438 0.322761 0.152578     O
O     0.847438 0.322761 0.847438     O
O     0.847438 0.677241 0.152578     O
O     0.847438 0.677241 0.847438     O
O     0.847438 0.847438 0.322761     O
O     0.847438 0.847438 0.677241     O
C     0.8505611 0.0679914 0.4038112     C
C     0.8505611 0.0679914 0.5961912     C
C     0.8505611 0.4038112 0.0679914     C
C     0.8505611 0.4038112 0.9320114     C
C     0.8505611 0.5961912 0.0679914     C
C     0.8505611 0.5961912 0.9320114     C
C     0.8505611 0.9320114 0.4038112     C
C     0.8505611 0.9320114 0.5961912     C
C     0.8538413  0.04162 0.4376516     C
C     0.8538413  0.04162 0.5623516     C
C     0.8538413 0.4376516  0.04162     C
C     0.8538413 0.4376516  0.95842     C
C     0.8538413 0.5623516  0.04162     C
C     0.8538413 0.5623516  0.95842     C
C     0.8538413  0.95842 0.4376516     C
C     0.8538413  0.95842 0.5623516     C
C     0.8562511 0.0833312 0.3818511     C
C     0.8562511 0.0833312 0.6181511     C
C     0.8562511 0.3818511 0.0833312     C
C     0.8562511 0.3818511 0.9166712     C
C     0.8562511 0.6181511 0.0833312     C
C     0.8562511 0.6181511 0.9166712     C
C     0.8562511 0.9166712 0.3818511     C
C     0.8562511 0.9166712 0.6181511     C
O     0.8583712 0.368077 0.368077     O
O     0.8583712 0.368077 0.631937     O
O     0.8583712 0.631937 0.368077     O
O     0.8583712 0.631937 0.631937     O
O     0.859111 0.202158 0.327151     O
O     0.859111 0.202158 0.672851     O
O     0.859111 0.327151 0.202158     O
O     0.859111 0.327151 0.797858     O
O     0.859111 0.672851 0.202158     O
O     0.859111 0.672851 0.797858     O
O     0.859111 0.797858 0.327151     O
O     0.859111 0.797858 0.672851     O
H       0.8595   0.4144   0.4771     H
H       0.8595   0.4144   0.5229     H
H       0.8595   0.4771   0.4144     H
H       0.8595   0.4771   0.5856     H
H       0.8595   0.5229   0.4144     H
H       0.8595   0.5229   0.5856     H
H       0.8595   0.5856   0.4771     H
H       0.8595   0.5856   0.5229     H
O     0.8610713 0.1822811 0.371891     O
O     0.8610713 0.1822811 0.628111     O
O     0.8610713 0.371891 0.1822811     O
O     0.8610713 0.371891 0.8177211     O
O     0.8610713 0.628111 0.1822811     O
O     0.8610713 0.628111 0.8177211     O
O     0.8610713 0.8177211 0.371891     O
O     0.8610713 0.8177211 0.628111     O
O     0.861687 0.098438 0.325607     O
O     0.861687 0.098438 0.674407     O
O     0.861687 0.325607 0.098438     O
O     0.861687 0.325607 0.901578     O
O     0.861687 0.674407 0.098438     O
O     0.861687 0.674407 0.901578     O
O     0.861687 0.901578 0.325607     O
O     0.861687 0.901578 0.674407     O
H       0.8617    0.031   0.4489     H
H       0.8617    0.031   0.5511     H
H       0.8617   0.4489    0.031     H
H       0.8617   0.4489    0.969     H
H       0.8617   0.5511    0.031     H
H       0.8617   0.5511    0.969     H
H       0.8617    0.969   0.4489     H
H       0.8617    0.969   0.5511     H
Zr    0.8621698 0.0912888 0.2875558    Zr
Zr    0.8621698 0.0912888 0.7124458    Zr
Zr    0.8621698 0.2875558 0.0912888    Zr
Zr    0.8621698 0.2875558 0.9087128    Zr
Zr    0.8621698 0.7124458 0.0912888    Zr
Zr    0.8621698 0.9087128 0.2875558    Zr
Zr    0.8621699 0.7124459 0.9087129    Zr
Zr    0.8621699 0.9087129 0.7124459    Zr
O     0.862607 0.172927 0.250937     O
O     0.862607 0.172927 0.749077     O
O     0.862607 0.250937 0.172927     O
O     0.862607 0.250937 0.827087     O
O     0.862607 0.749077 0.172927     O
O     0.862607 0.749077 0.827087     O
O     0.862607 0.827087 0.250937     O
O     0.862607 0.827087 0.749077     O
C      0.86428  0.25639  0.39679     C
C      0.86428  0.25639  0.60339     C
C      0.86428  0.39679  0.25639     C
C      0.86428  0.39679  0.74379     C
C      0.86428  0.60339  0.25639     C
C      0.86428  0.60339  0.74379     C
C      0.86428  0.74379  0.39679     C
C      0.86428  0.74379  0.60339     C
C     0.8666013  0.05432 0.4179216     C
C     0.8666013  0.05432 0.5820816     C
C     0.8666013 0.4179216  0.05432     C
C     0.8666013 0.4179216  0.94572     C
C     0.8666013 0.5820816  0.05432     C
C     0.8666013 0.5820816  0.94572     C
C     0.8666013  0.94572 0.4179216     C
C     0.8666013  0.94572 0.5820816     C
C      0.86799  0.23389  0.39038     C
C      0.86799  0.23389  0.60978     C
C      0.86799  0.39038  0.23389     C
C      0.86799  0.39038  0.76629     C
C      0.86799  0.60978  0.23389     C
C      0.86799  0.60978  0.76629     C
C      0.86799  0.76629  0.39038     C
C      0.86799  0.76629  0.60978     C
O     0.868077 0.131937 0.3583712     O
O     0.868077 0.131937 0.6416312     O
O     0.868077 0.3583712 0.131937     O
O     0.868077 0.3583712 0.868077     O
O     0.868077 0.6416312 0.131937     O
O     0.868077 0.6416312 0.868077     O
O     0.868077 0.868077 0.3583712     O
O     0.868077 0.868077 0.6416312     O
S     0.869184 0.209323 0.209323     S
S     0.869184 0.209323 0.790683     S
S     0.869184 0.790683 0.209323     S
S     0.869184 0.790683 0.790683     S
O     0.871161 0.406631 0.662328     O
O     0.871161 0.662328 0.406631     O
O     0.871169 0.337688 0.406631     O
O     0.871169 0.337688 0.593371     O
O     0.871169 0.406631 0.337688     O
O     0.871169 0.593371 0.337688     O
O     0.871169 0.593371 0.662328     O
O     0.871169 0.662328 0.593371     O
O     0.871891 0.3177211 0.3610713     O
O     0.871891 0.3177211 0.6389313     O
O     0.871891 0.3610713 0.3177211     O
O     0.871891 0.3610713 0.6822811     O
O     0.871891 0.6389313 0.3177211     O
O     0.871891 0.6389313 0.6822811     O
O     0.871891 0.6822811 0.3610713     O
O     0.871891 0.6822811 0.6389313     O
O     0.872457 0.127557 0.2782611     O
O     0.872457 0.127557 0.7217411     O
O     0.872457 0.2782611 0.127557     O
O     0.872457 0.2782611 0.872457     O
O     0.872457 0.7217411 0.127557     O
O     0.872457 0.7217411 0.872457     O
O     0.872457 0.872457 0.2782611     O
O     0.872457 0.872457 0.7217411     O
O     0.875437 0.378807 0.414718     O
O     0.875437 0.378807 0.585298     O
O     0.875437 0.414718 0.378807     O
O     0.875437 0.414718 0.621207     O
O     0.875437 0.585298 0.378807     O
O     0.875437 0.585298 0.621207     O
O     0.875437 0.621207 0.414718     O
O     0.875437 0.621207 0.585298     O
O     0.876841 0.303591 0.945377     O
O     0.876841 0.696411 0.945377     O
O     0.876841 0.945377 0.303591     O
O     0.876841 0.945377 0.696411     O
O     0.876849 0.054637 0.303599     O
O     0.876849 0.054637 0.696419     O
O     0.876849 0.303599 0.054637     O
O     0.876849 0.696419 0.054637     O
C      0.87797  0.30897  0.34037     C
C      0.87797  0.30897  0.65977     C
C      0.87797  0.34037  0.30897     C
C      0.87797  0.34037  0.69117     C
C      0.87797  0.65977  0.30897     C
C      0.87797  0.65977  0.69117     C
C      0.87797  0.69117  0.34037     C
C      0.87797  0.69117  0.65977     C
O     0.878807 0.085298 0.375437     O
O     0.878807 0.085298 0.624577     O
O     0.878807 0.375437 0.085298     O
O     0.878807 0.375437 0.914718     O
O     0.878807 0.624577 0.085298     O
O     0.878807 0.624577 0.914718     O
O     0.878807 0.914718 0.375437     O
O     0.878807 0.914718 0.624577     O
Zr    0.8795729 0.1672098 0.3387799    Zr
Zr    0.8795729 0.1672098 0.6612219    Zr
Zr    0.8795729 0.3387799 0.1672098    Zr
Zr    0.8795729 0.3387799 0.8327918    Zr
Zr    0.8795729 0.6612219 0.1672098    Zr
Zr    0.8795729 0.6612219 0.8327918    Zr
Zr    0.8795729 0.8327918 0.3387799    Zr
Zr    0.8795729 0.8327918 0.6612219    Zr
O     0.8815811 0.073161 0.257469     O
O     0.8815811 0.073161 0.742549     O
O     0.8815811 0.257469 0.073161     O
O     0.8815811 0.257469 0.926841     O
O     0.8815811 0.742549 0.073161     O
O     0.8815811 0.742549 0.926841     O
O     0.8815811 0.926841 0.257469     O
O     0.8815811 0.926841 0.742549     O
C     0.8818511 0.3562511 0.4166712     C
C     0.8818511 0.3562511 0.5833312     C
C     0.8818511 0.4166712 0.3562511     C
C     0.8818511 0.4166712 0.6437511     C
C     0.8818511 0.5833312 0.3562511     C
C     0.8818511 0.5833312 0.6437511     C
C     0.8818511 0.6437511 0.4166712     C
C     0.8818511 0.6437511 0.5833312     C
O      0.88208  0.31784  0.31784     O
O      0.88208  0.31784  0.68224     O
O      0.88208  0.68224  0.31784     O
O      0.88208  0.68224  0.68224     O
S     0.883245      0.0 0.308155     S
S     0.883245      0.0 0.691855     S
S     0.883245 0.308155      0.0     S
S     0.883245 0.691855      0.0     S
O     0.883408 0.169348 0.297248     O
O     0.883408 0.169348 0.702768     O
O     0.883408 0.297248 0.169348     O
O     0.883408 0.297248 0.830668     O
O     0.883408 0.702768 0.169348     O
O     0.883408 0.702768 0.830668     O
O     0.883408 0.830668 0.297248     O
O     0.883408 0.830668 0.702768     O
H       0.8837   0.0534   0.4151     H
H       0.8837   0.0534   0.5849     H
H       0.8837   0.4151   0.0534     H
H       0.8837   0.4151   0.9466     H
H       0.8837   0.5849   0.0534     H
H       0.8837   0.5849   0.9466     H
H       0.8837   0.9466   0.4151     H
H       0.8837   0.9466   0.5849     H
C     0.8846811 0.1729511 0.2434511     C
C     0.8846811 0.1729511 0.7565511     C
C     0.8846811 0.2434511 0.1729511     C
C     0.8846811 0.2434511 0.8270511     C
C     0.8846811 0.7565511 0.1729511     C
C     0.8846811 0.7565511 0.8270511     C
C     0.8846811 0.8270511 0.2434511     C
C     0.8846811 0.8270511 0.7565511     C
C      0.89038  0.26629  0.36799     C
C      0.89038  0.26629  0.63219     C
C      0.89038  0.36799  0.26629     C
C      0.89038  0.36799  0.73389     C
C      0.89038  0.63219  0.26629     C
C      0.89038  0.63219  0.73389     C
C      0.89038  0.73389  0.36799     C
C      0.89038  0.73389  0.63219     C
C     0.8904711 0.049361 0.3218411     C
C     0.8904711 0.049361 0.6781611     C
C     0.8904711 0.3218411 0.049361     C
C     0.8904711 0.3218411 0.950641     C
C     0.8904711 0.6781611 0.049361     C
C     0.8904711 0.6781611 0.950641     C
C     0.8904711 0.950641 0.3218411     C
C     0.8904711 0.950641 0.6781611     C
C      0.89078  0.28278  0.34619     C
C      0.89078  0.28278  0.65399     C
C      0.89078  0.34619  0.28278     C
C      0.89078  0.34619  0.71738     C
C      0.89078  0.65399  0.28278     C
C      0.89078  0.65399  0.71738     C
C      0.89078  0.71738  0.34619     C
C      0.89078  0.71738  0.65399     C
C     0.8910113 0.1894513 0.2217813     C
C     0.8910113 0.1894513 0.7782213     C
C     0.8910113 0.2217813 0.1894513     C
C     0.8910113 0.2217813 0.8105513     C
C     0.8910113 0.7782213 0.1894513     C
C     0.8910113 0.7782213 0.8105513     C
C     0.8910113 0.8105513 0.2217813     C
C     0.8910113 0.8105513 0.7782213     C
C     0.8947116 0.022731 0.3272114     C
C     0.8947116 0.022731 0.6727914     C
C     0.8947116 0.3272114 0.022731     C
C     0.8947116 0.3272114 0.977271     C
C     0.8947116 0.6727914 0.022731     C
C     0.8947116 0.6727914 0.977271     C
C     0.8947116 0.977271 0.3272114     C
C     0.8947116 0.977271 0.6727914     C
Zr    0.8956677 0.1043337 0.3425821    Zr
Zr    0.8956677 0.1043337 0.6574181    Zr
Zr    0.8956677 0.3425821 0.1043337    Zr
Zr    0.8956677 0.3425821 0.8956677    Zr
Zr    0.8956677 0.6574181 0.1043337    Zr
Zr    0.8956677 0.6574181 0.8956677    Zr
Zr    0.8956677 0.8956677 0.3425821    Zr
Zr    0.8956677 0.8956677 0.6574181    Zr
C      0.89679  0.24379  0.36428     C
C      0.89679  0.24379  0.63588     C
C      0.89679  0.36428  0.24379     C
C      0.89679  0.36428  0.75639     C
C      0.89679  0.63588  0.24379     C
C      0.89679  0.63588  0.75639     C
C      0.89679  0.75639  0.36428     C
C      0.89679  0.75639  0.63588     C
O     0.900447 0.064426 0.337017     O
O     0.900447 0.064426 0.662997     O
O     0.900447 0.337017 0.064426     O
O     0.900447 0.337017 0.935586     O
O     0.900447 0.662997 0.064426     O
O     0.900447 0.662997 0.935586     O
O     0.900447 0.935586 0.337017     O
O     0.900447 0.935586 0.662997     O
S      0.90124  0.26572  0.32124     S
S      0.90124  0.26572  0.67884     S
S      0.90124  0.32124  0.26572     S
S      0.90124  0.32124  0.73432     S
S      0.90124  0.67884  0.26572     S
S      0.90124  0.67884  0.73432     S
S      0.90124  0.73432  0.32124     S
S      0.90124  0.73432  0.67884     S
O     0.901278 0.098738 0.2993911     O
O     0.901278 0.098738 0.7006111     O
O     0.901278 0.2993911 0.098738     O
O     0.901278 0.2993911 0.901278     O
O     0.901278 0.7006111 0.098738     O
O     0.901278 0.7006111 0.901278     O
O     0.901278 0.901278 0.2993911     O
O     0.901278 0.901278 0.7006111     O
O     0.901578 0.138327 0.325607     O
O     0.901578 0.138327 0.674407     O
O     0.901578 0.325607 0.138327     O
O     0.901578 0.325607 0.861687     O
O     0.901578 0.674407 0.138327     O
O     0.901578 0.674407 0.861687     O
O     0.901578 0.861687 0.325607     O
O     0.901578 0.861687 0.674407     O
O     0.902849 0.160759 0.252219     O
O     0.902849 0.160759 0.747799     O
O     0.902849 0.252219 0.160759     O
O     0.902849 0.252219 0.839259     O
O     0.902849 0.747799 0.160759     O
O     0.902849 0.747799 0.839259     O
O     0.902849 0.839259 0.252219     O
O     0.902849 0.839259 0.747799     O
C     0.9038112 0.3505611 0.4320114     C
C     0.9038112 0.3505611 0.5679914     C
C     0.9038112 0.4320114 0.3505611     C
C     0.9038112 0.4320114 0.6494411     C
C     0.9038112 0.5679914 0.3505611     C
C     0.9038112 0.5679914 0.6494411     C
C     0.9038112 0.6494411 0.4320114     C
C     0.9038112 0.6494411 0.5679914     C
C      0.90528  0.23947  0.33857     C
C      0.90528  0.23947  0.66157     C
C      0.90528  0.33857  0.23947     C
C      0.90528  0.33857  0.76067     C
C      0.90528  0.66157  0.23947     C
C      0.90528  0.66157  0.76067     C
C      0.90528  0.76067  0.33857     C
C      0.90528  0.76067  0.66157     C
O     0.906631 0.162328 0.371169     O
O     0.906631 0.162328 0.628849     O
O     0.906631 0.371169 0.162328     O
O     0.906631 0.371169 0.837688     O
O     0.906631 0.628849 0.162328     O
O     0.906631 0.628849 0.837688     O
O     0.906631 0.837688 0.371169     O
O     0.906631 0.837688 0.628849     O
C      0.90692 0.0132013  0.34722     C
C      0.90692 0.0132013  0.65282     C
C      0.90692  0.34722 0.0132013     C
C      0.90692  0.34722 0.9868013     C
C      0.90692  0.65282 0.0132013     C
C      0.90692  0.65282 0.9868013     C
C      0.90692 0.9868013  0.34722     C
C      0.90692 0.9868013  0.65282     C
C      0.90814  0.21039 0.320911     C
C      0.90814  0.21039 0.679111     C
C      0.90814 0.320911  0.21039     C
C      0.90814 0.320911  0.78979     C
C      0.90814 0.679111  0.21039     C
C      0.90814 0.679111  0.78979     C
C      0.90814  0.78979 0.320911     C
C      0.90814  0.78979 0.679111     C
O     0.9082912 0.1953111 0.3354513     O
O     0.9082912 0.1953111 0.6645513     O
O     0.9082912 0.3354513 0.1953111     O
O     0.9082912 0.3354513 0.8046911     O
O     0.9082912 0.6645513 0.1953111     O
O     0.9082912 0.6645513 0.8046911     O
O     0.9082912 0.8046911 0.3354513     O
O     0.9082912 0.8046911 0.6645513     O
Zr    0.9087128 0.1378318 0.2875558    Zr
Zr    0.9087128 0.1378318 0.7124458    Zr
Zr    0.9087128 0.2875558 0.1378318    Zr
Zr    0.9087128 0.2875558 0.8621698    Zr
Zr    0.9087128 0.7124458 0.1378318    Zr
Zr    0.9087128 0.8621698 0.2875558    Zr
Zr    0.9087129 0.7124459 0.8621699    Zr
Zr    0.9087129 0.8621699 0.7124459    Zr
O      0.91117  0.21507  0.30107     O
O      0.91117  0.21507  0.69907     O
O      0.91117  0.30107  0.21507     O
O      0.91117  0.30107  0.78507     O
O      0.91117  0.69907  0.21507     O
O      0.91117  0.69907  0.78507     O
O      0.91117  0.78507  0.30107     O
O      0.91117  0.78507  0.69907     O
C     0.9135216  0.19302 0.2114318     C
C     0.9135216  0.19302 0.7885718     C
C     0.9135216 0.2114318  0.19302     C
C     0.9135216 0.2114318  0.80702     C
C     0.9135216 0.7885718  0.19302     C
C     0.9135216 0.7885718  0.80702     C
C     0.9135216  0.80702 0.2114318     C
C     0.9135216  0.80702 0.7885718     C
H       0.9144   0.0229   0.3595     H
H       0.9144   0.0229   0.6405     H
H       0.9144   0.3595   0.0229     H
H       0.9144   0.3595   0.9771     H
H       0.9144   0.6405   0.0229     H
H       0.9144   0.6405   0.9771     H
H       0.9144   0.9771   0.3595     H
H       0.9144   0.9771   0.6405     H
S     0.914463 0.320493 0.434244     S
S     0.914463 0.320493 0.565764     S
S     0.914463 0.434244 0.320493     S
S     0.914463 0.434244 0.679513     S
S     0.914463 0.565764 0.320493     S
S     0.914463 0.565764 0.679513     S
S     0.914463 0.679513 0.434244     S
S     0.914463 0.679513 0.565764     S
O     0.914718 0.121207 0.375437     O
O     0.914718 0.121207 0.624577     O
O     0.914718 0.375437 0.121207     O
O     0.914718 0.375437 0.878807     O
O     0.914718 0.624577 0.121207     O
O     0.914718 0.624577 0.878807     O
O     0.914718 0.878807 0.375437     O
O     0.914718 0.878807 0.624577     O
H       0.9151   0.3837   0.4466     H
H       0.9151   0.3837   0.5534     H
H       0.9151   0.4466   0.3837     H
H       0.9151   0.4466   0.6163     H
H       0.9151   0.5534   0.3837     H
H       0.9151   0.5534   0.6163     H
H       0.9151   0.6163   0.4466     H
H       0.9151   0.6163   0.5534     H
C     0.9166712 0.1437511 0.3818511     C
C     0.9166712 0.1437511 0.6181511     C
C     0.9166712 0.3818511 0.1437511     C
C     0.9166712 0.3818511 0.8562511     C
C     0.9166712 0.6181511 0.1437511     C
C     0.9166712 0.6181511 0.8562511     C
C     0.9166712 0.8562511 0.3818511     C
C     0.9166712 0.8562511 0.6181511     C
C     0.9179216 0.3666013  0.44572     C
C     0.9179216 0.3666013  0.55432     C
C     0.9179216  0.44572 0.3666013     C
C     0.9179216  0.44572 0.6334013     C
C     0.9179216  0.55432 0.3666013     C
C     0.9179216  0.55432 0.6334013     C
C     0.9179216 0.6334013  0.44572     C
C     0.9179216 0.6334013  0.55432     C
O     0.926661 0.246751 0.4689914     O
O     0.926661 0.246751 0.5310114     O
O     0.926661 0.4689914 0.246751     O
O     0.926661 0.4689914 0.753251     O
O     0.926661 0.5310114 0.246751     O
O     0.926661 0.5310114 0.753251     O
O     0.926661 0.753251 0.4689914     O
O     0.926661 0.753251 0.5310114     O
O     0.926841 0.1184211 0.257469     O
O     0.926841 0.1184211 0.742549     O
O     0.926841 0.257469 0.1184211     O
O     0.926841 0.257469 0.8815811     O
O     0.926841 0.742549 0.1184211     O
O     0.926841 0.742549 0.8815811     O
O     0.926841 0.8815811 0.257469     O
O     0.926841 0.8815811 0.742549     O
H       0.9276   0.1841    0.216     H
H       0.9276   0.1841    0.784     H
H       0.9276    0.216   0.1841     H
H       0.9276    0.216   0.8159     H
H       0.9276    0.784   0.1841     H
H       0.9276    0.784   0.8159     H
H       0.9276   0.8159    0.216     H
H       0.9276   0.8159    0.784     H
C     0.9320114 0.1494411 0.4038112     C
C     0.9320114 0.1494411 0.5961912     C
C     0.9320114 0.4038112 0.1494411     C
C     0.9320114 0.4038112 0.8505611     C
C     0.9320114 0.5961912 0.1494411     C
C     0.9320114 0.5961912 0.8505611     C
C     0.9320114 0.8505611 0.4038112     C
C     0.9320114 0.8505611 0.5961912     C
S     0.934244 0.179513 0.414463     S
S     0.934244 0.179513 0.585543     S
S     0.934244 0.414463 0.179513     S
S     0.934244 0.414463 0.820493     S
S     0.934244 0.585543 0.179513     S
S     0.934244 0.585543 0.820493     S
S     0.934244 0.820493 0.414463     S
S     0.934244 0.820493 0.585543     S
O     0.935131 0.1690811 0.2899816     O
O     0.935131 0.1690811 0.7100216     O
O     0.935131 0.2899816 0.1690811     O
O     0.935131 0.2899816 0.8309211     O
O     0.935131 0.7100216 0.1690811     O
O     0.935131 0.7100216 0.8309211     O
O     0.935131 0.8309211 0.2899816     O
O     0.935131 0.8309211 0.7100216     O
O     0.935586 0.099567 0.337017     O
O     0.935586 0.099567 0.662997     O
O     0.935586 0.337017 0.099567     O
O     0.935586 0.337017 0.900447     O
O     0.935586 0.662997 0.099567     O
O     0.935586 0.662997 0.900447     O
O     0.935586 0.900447 0.337017     O
O     0.935586 0.900447 0.662997     O
C     0.9376516 0.3538413  0.45842     C
C     0.9376516 0.3538413  0.54162     C
C     0.9376516  0.45842 0.3538413     C
C     0.9376516  0.45842 0.6461613     C
C     0.9376516  0.54162 0.3538413     C
C     0.9376516  0.54162 0.6461613     C
C     0.9376516 0.6461613  0.45842     C
C     0.9376516 0.6461613  0.54162     C
C     0.9382112 0.3293012 0.4535414     C
C     0.9382112 0.3293012 0.5464614     C
C     0.9382112 0.4535414 0.3293012     C
C     0.9382112 0.4535414 0.6707012     C
C     0.9382112 0.5464614 0.3293012     C
C     0.9382112 0.5464614 0.6707012     C
C     0.9382112 0.6707012 0.4535414     C
C     0.9382112 0.6707012 0.5464614     C
O     0.945377 0.123161 0.303591     O
O     0.945377 0.123161 0.696411     O
O     0.945377 0.303591 0.123161     O
O     0.945377 0.303591 0.876841     O
O     0.945377 0.696411 0.123161     O
O     0.945377 0.696411 0.876841     O
O     0.945377 0.876841 0.303591     O
O     0.945377 0.876841 0.696411     O
C      0.94572 0.1334013 0.4179216     C
C      0.94572 0.1334013 0.5820816     C
C      0.94572 0.4179216 0.1334013     C
C      0.94572 0.4179216 0.8666013     C
C      0.94572 0.5820816 0.1334013     C
C      0.94572 0.5820816 0.8666013     C
C      0.94572 0.8666013 0.4179216     C
C      0.94572 0.8666013 0.5820816     C
H       0.9466   0.1163   0.4151     H
H       0.9466   0.1163   0.5849     H
H       0.9466   0.4151   0.1163     H
H       0.9466   0.4151   0.8837     H
H       0.9466   0.5849   0.1163     H
H       0.9466   0.5849   0.8837     H
H       0.9466   0.8837   0.4151     H
H       0.9466   0.8837   0.5849     H
H       0.9489   0.3617    0.469     H
H       0.9489   0.3617    0.531     H
H       0.9489    0.469   0.3617     H
H       0.9489    0.469   0.6383     H
H       0.9489    0.531   0.3617     H
H       0.9489    0.531   0.6383     H
H       0.9489   0.6383    0.469     H
H       0.9489   0.6383    0.531     H
O     0.950499 0.288078 0.457691     O
O     0.950499 0.288078 0.542311     O
O     0.950499 0.457691 0.288078     O
O     0.950499 0.457691 0.711938     O
O     0.950499 0.542311 0.288078     O
O     0.950499 0.542311 0.711938     O
O     0.950499 0.711938 0.457691     O
O     0.950499 0.711938 0.542311     O
C     0.950641 0.1095311 0.3218411     C
C     0.950641 0.1095311 0.6781611     C
C     0.950641 0.3218411 0.1095311     C
C     0.950641 0.3218411 0.8904711     C
C     0.950641 0.6781611 0.1095311     C
C     0.950641 0.6781611 0.8904711     C
C     0.950641 0.8904711 0.3218411     C
C     0.950641 0.8904711 0.6781611     C
C     0.9535414 0.1707012 0.4382112     C
C     0.9535414 0.1707012 0.5617912     C
C     0.9535414 0.4382112 0.1707012     C
C     0.9535414 0.4382112 0.8293012     C
C     0.9535414 0.5617912 0.1707012     C
C     0.9535414 0.5617912 0.8293012     C
C     0.9535414 0.8293012 0.4382112     C
C     0.9535414 0.8293012 0.5617912     C
C     0.9557111 0.3100311 0.4633012     C
C     0.9557111 0.3100311 0.5367012     C
C     0.9557111 0.4633012 0.3100311     C
C     0.9557111 0.4633012 0.6899711     C
C     0.9557111 0.5367012 0.3100311     C
C     0.9557111 0.5367012 0.6899711     C
C     0.9557111 0.6899711 0.4633012     C
C     0.9557111 0.6899711 0.5367012     C
O     0.957691 0.211938 0.450499     O
O     0.957691 0.211938 0.549519     O
O     0.957691 0.450499 0.211938     O
O     0.957691 0.450499 0.788078     O
O     0.957691 0.549519 0.211938     O
O     0.957691 0.549519 0.788078     O
O     0.957691 0.788078 0.450499     O
O     0.957691 0.788078 0.549519     O
C      0.95842 0.1461613 0.4376516     C
C      0.95842 0.1461613 0.5623516     C
C      0.95842 0.4376516 0.1461613     C
C      0.95842 0.4376516 0.8538413     C
C      0.95842 0.5623516 0.1461613     C
C      0.95842 0.5623516 0.8538413     C
C      0.95842 0.8538413 0.4376516     C
C      0.95842 0.8538413 0.5623516     C
O     0.962241 0.224521      0.5     O
O     0.962241      0.5 0.224521     O
O     0.962241      0.5 0.775481     O
O     0.962241 0.775481      0.5     O
C     0.9633012 0.1899711 0.4557111     C
C     0.9633012 0.1899711 0.5442911     C
C     0.9633012 0.4557111 0.1899711     C
C     0.9633012 0.4557111 0.8100311     C
C     0.9633012 0.5442911 0.1899711     C
C     0.9633012 0.5442911 0.8100311     C
C     0.9633012 0.8100311 0.4557111     C
C     0.9633012 0.8100311 0.5442911     C
Zr    0.9670288     0.25 0.4670288    Zr
Zr    0.9670288     0.25 0.5329728    Zr
Zr    0.9670288 0.4670288     0.25    Zr
Zr    0.9670288 0.4670288     0.75    Zr
Zr    0.9670288 0.5329728     0.25    Zr
Zr    0.9670288 0.5329728     0.75    Zr
Zr    0.9670288     0.75 0.4670288    Zr
Zr    0.9670288     0.75 0.5329728    Zr
O     0.9689914 0.253251 0.426661     O
O     0.9689914 0.253251 0.573341     O
O     0.9689914 0.426661 0.253251     O
O     0.9689914 0.426661 0.746751     O
O     0.9689914 0.573341 0.253251     O
O     0.9689914 0.573341 0.746751     O
O     0.9689914 0.746751 0.426661     O
O     0.9689914 0.746751 0.573341     O
H        0.969   0.1383   0.4489     H
H        0.969   0.1383   0.5511     H
H        0.969   0.4489   0.1383     H
H        0.969   0.4489   0.8617     H
H        0.969   0.5511   0.1383     H
H        0.969   0.5511   0.8617     H
H        0.969   0.8617   0.4489     H
H        0.969   0.8617   0.5511     H
O     0.971989 0.269619      0.5     O
O     0.971989      0.5 0.269619     O
O     0.971989      0.5 0.730399     O
O     0.971989 0.730399      0.5     O
O     0.974137 0.317407 0.475668     O
O     0.974137 0.317407 0.524348     O
O     0.974137 0.475668 0.317407     O
O     0.974137 0.475668 0.682607     O
O     0.974137 0.524348 0.317407     O
O     0.974137 0.524348 0.682607     O
O     0.974137 0.682607 0.475668     O
O     0.974137 0.682607 0.524348     O
O     0.975668 0.182607 0.474137     O
O     0.975668 0.182607 0.525877     O
O     0.975668 0.474137 0.182607     O
O     0.975668 0.474137 0.817407     O
O     0.975668 0.525877 0.182607     O
O     0.975668 0.525877 0.817407     O
O     0.975668 0.817407 0.474137     O
O     0.975668 0.817407 0.525877     O
H       0.9771   0.0856   0.3595     H
H       0.9771   0.0856   0.6405     H
H       0.9771   0.3595   0.0856     H
H       0.9771   0.3595   0.9144     H
H       0.9771   0.6405   0.0856     H
H       0.9771   0.6405   0.9144     H
H       0.9771   0.9144   0.3595     H
H       0.9771   0.9144   0.6405     H
C     0.977271 0.1052916 0.3272114     C
C     0.977271 0.1052916 0.6727914     C
C     0.977271 0.3272114 0.1052916     C
C     0.977271 0.3272114 0.8947116     C
C     0.977271 0.6727914 0.1052916     C
C     0.977271 0.6727914 0.8947116     C
C     0.977271 0.8947116 0.3272114     C
C     0.977271 0.8947116 0.6727914     C
C     0.9868013  0.09312  0.34722     C
C     0.9868013  0.09312  0.65282     C
C     0.9868013  0.34722  0.09312     C
C     0.9868013  0.34722  0.90692     C
C     0.9868013  0.65282  0.09312     C
C     0.9868013  0.65282  0.90692     C
C     0.9868013  0.90692  0.34722     C
C     0.9868013  0.90692  0.65282     C
