data_I
_chemical_name_common  '/Users/gianmarcoterrones/Research/MOFs/MOF_structures/water_stability_work_extra_structs/cleaned_from_CoRE/ELEREU_clean'
_cell_length_a 33.53285
_cell_length_b 33.53285
_cell_length_c 33.53285
_cell_angle_alpha 109.47122
_cell_angle_beta  109.47122
_cell_angle_gamma 109.47122
_space_group_name_H-M_alt      'P 1'


loop_
_space_group_symop_operation_xyz
  'x, y, z' 

loop_
_atom_site_label
_atom_site_fract_x
_atom_site_fract_y
_atom_site_fract_z
_atom_site_type_symbol
H          0.0   0.1148   0.2638     H
C          0.0  0.11835  0.29313     C
C          0.0    0.144  0.38008     C
Cu         0.0  0.14522  0.85478    Cu
N          0.0  0.15822  0.42786     N
H          0.0   0.1845   0.7139     H
Cu         0.0   0.1934   0.8066    Cu
C          0.0  0.21443  0.72621     C
C          0.0  0.21792  0.65302     C
N          0.0  0.23204  0.76796     N
C          0.0  0.23911  0.70075     C
H          0.0   0.2638   0.1148     H
C          0.0  0.27379  0.78557     C
C          0.0   0.2825   0.7175     C
H          0.0   0.2861   0.8155     H
C          0.0  0.29313  0.11835     C
C          0.0  0.29925  0.76089     C
H          0.0   0.2998   0.7002     H
C          0.0  0.34698  0.78208     C
C          0.0  0.38008    0.144     C
N          0.0  0.42786  0.15822     N
N          0.0  0.57214  0.84178     N
C          0.0  0.61992    0.856     C
C          0.0  0.65302  0.21792     C
H          0.0   0.7002   0.2998     H
C          0.0  0.70075  0.23911     C
C          0.0  0.70687  0.88165     C
H          0.0   0.7139   0.1845     H
C          0.0   0.7175   0.2825     C
C          0.0  0.72621  0.21443     C
H          0.0   0.7362   0.8852     H
C          0.0  0.76089  0.29925     C
N          0.0  0.76796  0.23204     N
C          0.0  0.78208  0.34698     C
C          0.0  0.78557  0.27379     C
Cu         0.0   0.8066   0.1934    Cu
H          0.0   0.8155   0.2861     H
N          0.0  0.84178  0.57214     N
Cu         0.0  0.85478  0.14522    Cu
C          0.0    0.856  0.61992     C
C          0.0  0.88165  0.70687     C
H          0.0   0.8852   0.7362     H
H       0.0279   0.1748   0.4565     H
H       0.0279   0.4565   0.1748     H
H       0.0279   0.5714   0.8531     H
H       0.0279   0.8531   0.5714     H
O       0.0394   0.2305   0.6569     O
O       0.0394   0.3825   0.8089     O
O       0.0394   0.6569   0.2305     O
O       0.0394   0.8089   0.3825     O
H       0.0422   0.2805   0.6041     H
H       0.0422   0.4381   0.7617     H
H       0.0422   0.6041   0.2805     H
H       0.0422   0.7617   0.4381     H
C      0.04269   0.1556  0.38103     C
C      0.04269  0.38103   0.1556     C
C      0.04269  0.66166  0.88709     C
C      0.04269  0.88709  0.66166     C
C      0.04315  0.25218  0.58709     C
C      0.04315  0.45606  0.79097     C
C      0.04315  0.58709  0.25218     C
C      0.04315  0.79097  0.45606     C
C      0.04333  0.21936  0.60551     C
C      0.04333  0.43782  0.82397     C
C      0.04333  0.60551  0.21936     C
C      0.04333  0.82397  0.43782     C
H       0.0439   0.1396   0.5187     H
H       0.0439   0.5187   0.1396     H
H       0.0439   0.5252   0.9043     H
H       0.0439   0.9043   0.5252     H
C      0.04444  0.14337  0.33805     C
C      0.04444  0.33805  0.14337     C
C      0.04444  0.70639  0.90107     C
C      0.04444  0.90107  0.70639     C
C      0.04446  0.24229  0.54443     C
C      0.04446  0.50003  0.80217     C
C      0.04446  0.54443  0.24229     C
C      0.04446  0.80217  0.50003     C
H       0.0445    0.264   0.5321     H
H       0.0445   0.5124   0.7805     H
H       0.0445   0.5321    0.264     H
H       0.0445   0.7805   0.5124     H
C      0.04464  0.16868  0.53696     C
C      0.04464  0.50768  0.87596     C
C      0.04464  0.53696  0.16868     C
C      0.04464  0.87596  0.50768     C
C      0.04477  0.17841  0.57982     C
C      0.04477  0.46495  0.86636     C
C      0.04477  0.57982  0.17841     C
C      0.04477  0.86636  0.46495     C
C      0.04502  0.18937  0.47095     C
C      0.04502  0.47095  0.18937     C
C      0.04502  0.57407  0.85565     C
C      0.04502  0.85565  0.57407     C
C      0.04557  0.20187  0.51976     C
C      0.04557  0.51976  0.20187     C
C      0.04557  0.52581   0.8437     C
C      0.04557   0.8437  0.52581     C
H       0.0459   0.1569   0.5922     H
H       0.0459   0.4537    0.889     H
H       0.0459   0.5922   0.1569     H
H       0.0459    0.889   0.4537     H
O      0.04868   0.1783  0.79866     O
O      0.04868  0.25002  0.87038     O
O      0.04868  0.79866   0.1783     O
O      0.04868  0.87038  0.25002     O
O      0.05045  0.13918  0.84117     O
O      0.05045  0.20928  0.91127     O
O      0.05045  0.84117  0.13918     O
O      0.05045  0.91127  0.20928     O
C      0.06224  0.15445  0.81569     C
C      0.06224  0.24655  0.90779     C
C      0.06224  0.81569  0.15445     C
C      0.06224  0.90779  0.24655     C
H        0.072   0.1723   0.4113     H
H        0.072   0.4113   0.1723     H
H        0.072   0.6607   0.8997     H
H        0.072   0.8997   0.6607     H
H       0.0747   0.2472   0.6841     H
H       0.0747   0.3906   0.8275     H
H       0.0747   0.6841   0.2472     H
H       0.0747   0.8275   0.3906     H
O      0.08758   0.2077   0.4785     O
O      0.08758   0.4785   0.2077     O
O      0.08758  0.60908  0.87988     O
O      0.08758  0.87988  0.60908     O
O      0.08873  0.13918  0.29801     O
O      0.08873  0.29801  0.13918     O
O      0.08873  0.79072  0.94955     O
O      0.08873  0.94955  0.79072     O
C      0.09221  0.15445  0.33876     C
C      0.09221  0.33876  0.15445     C
C      0.09221  0.75345  0.93776     C
C      0.09221  0.93776  0.75345     C
H       0.0957   0.1396   0.6209     H
H       0.0957   0.4748   0.9561     H
H       0.0957   0.6209   0.1396     H
H       0.0957   0.9561   0.4748     H
C      0.09893  0.14337  0.80532     C
C      0.09893  0.29361  0.95556     C
C      0.09893  0.80532  0.14337     C
C      0.09893  0.95556  0.29361     C
H       0.1003   0.1723    0.761     H
H       0.1003   0.3393    0.928     H
H       0.1003    0.761   0.1723     H
H       0.1003    0.928   0.3393     H
H        0.111   0.1569   0.5647     H
H        0.111   0.5463   0.9541     H
H        0.111   0.5647   0.1569     H
H        0.111   0.9541   0.5463     H
C      0.11291   0.1556  0.77457     C
C      0.11291  0.33834  0.95731     C
C      0.11291  0.77457   0.1556     C
C      0.11291  0.95731  0.33834     C
H       0.1148   0.1148    0.851     H
H       0.1148   0.2638      0.0     H
H       0.1148    0.851   0.1148     H
H       0.1148      1.0   0.2638     H
C      0.11835  0.11835  0.82522     C
C      0.11835  0.29313      0.0     C
C      0.11835  0.82522  0.11835     C
C      0.11835      1.0  0.29313     C
O      0.12012   0.2077   0.7292     O
O      0.12012  0.39092  0.91242     O
O      0.12012   0.7292   0.2077     O
O      0.12012  0.91242  0.39092     O
C      0.12404  0.16868  0.63172     C
C      0.12404  0.49232  0.95536     C
C      0.12404  0.63172  0.16868     C
C      0.12404  0.95536  0.49232     C
O      0.12962   0.1783  0.37964     O
O      0.12962  0.37964   0.1783     O
O      0.12962  0.74998  0.95132     O
O      0.12962  0.95132  0.74998     O
C      0.13364  0.17841  0.59859     C
C      0.13364  0.53505  0.95523     C
C      0.13364  0.59859  0.17841     C
C      0.13364  0.95523  0.53505     C
O      0.13918  0.05045  0.84117     O
O      0.13918  0.08873  0.29801     O
O      0.13918  0.29801  0.08873     O
O      0.13918  0.84117  0.05045     O
H       0.1396   0.0439   0.5187     H
H       0.1396   0.0957   0.6209     H
H       0.1396   0.5187   0.0439     H
H       0.1396   0.6209   0.0957     H
C      0.14337  0.04444  0.33805     C
C      0.14337  0.09893  0.80532     C
C      0.14337  0.33805  0.04444     C
C      0.14337  0.80532  0.09893     C
C        0.144      0.0  0.38008     C
C        0.144    0.144  0.76392     C
C        0.144  0.38008      0.0     C
C        0.144  0.76392    0.144     C
C      0.14435  0.18937  0.71842     C
C      0.14435  0.42593  0.95498     C
C      0.14435  0.71842  0.18937     C
C      0.14435  0.95498  0.42593     C
Cu     0.14522      0.0  0.85478    Cu
Cu     0.14522  0.14522  0.29044    Cu
Cu     0.14522  0.29044  0.14522    Cu
Cu     0.14522  0.85478      0.0    Cu
H       0.1469   0.1748   0.7183     H
H       0.1469   0.4286   0.9721     H
H       0.1469   0.7183   0.1748     H
H       0.1469   0.9721   0.4286     H
H        0.149   0.2638   0.2638     H
H        0.149   0.8852   0.8852     H
C      0.15445  0.06224  0.81569     C
C      0.15445  0.09221  0.33876     C
C      0.15445  0.33876  0.09221     C
C      0.15445  0.81569  0.06224     C
C       0.1556  0.04269  0.38103     C
C       0.1556  0.11291  0.77457     C
C       0.1556  0.38103  0.04269     C
C       0.1556  0.77457  0.11291     C
C       0.1563  0.20187  0.68211     C
C       0.1563  0.47419  0.95443     C
C       0.1563  0.68211  0.20187     C
C       0.1563  0.95443  0.47419     C
H       0.1569   0.0459   0.5922     H
H       0.1569    0.111   0.5647     H
H       0.1569   0.5647    0.111     H
H       0.1569   0.5922   0.0459     H
N      0.15822      0.0  0.42786     N
N      0.15822  0.15822  0.73036     N
N      0.15822  0.42786      0.0     N
N      0.15822  0.73036  0.15822     N
O      0.15883  0.20928  0.29801     O
O      0.15883  0.29801  0.20928     O
O      0.15883  0.86082  0.94955     O
O      0.15883  0.94955  0.86082     O
C      0.16868  0.04464  0.53696     C
C      0.16868  0.12404  0.63172     C
C      0.16868  0.53696  0.04464     C
C      0.16868  0.63172  0.12404     C
H       0.1723    0.072   0.4113     H
H       0.1723   0.1003    0.761     H
H       0.1723   0.4113    0.072     H
H       0.1723    0.761   0.1003     H
H       0.1725   0.2472   0.5631     H
H       0.1725   0.5631   0.2472     H
H       0.1725   0.6094   0.9253     H
H       0.1725   0.9253   0.6094     H
C      0.17478  0.29313  0.29313     C
C      0.17478  0.88165  0.88165     C
H       0.1748   0.0279   0.4565     H
H       0.1748   0.1469   0.7183     H
H       0.1748   0.4565   0.0279     H
H       0.1748   0.7183   0.1469     H
C      0.17603  0.21936  0.61385     C
C      0.17603  0.56218  0.95667     C
C      0.17603  0.61385  0.21936     C
C      0.17603  0.95667  0.56218     C
O       0.1783  0.04868  0.79866     O
O       0.1783  0.12962  0.37964     O
O       0.1783  0.37964  0.12962     O
O       0.1783  0.79866  0.04868     O
C      0.17841  0.04477  0.57982     C
C      0.17841  0.13364  0.59859     C
C      0.17841  0.57982  0.04477     C
C      0.17841  0.59859  0.13364     C
C      0.18431  0.24655  0.33876     C
C      0.18431  0.33876  0.24655     C
C      0.18431  0.84555  0.93776     C
C      0.18431  0.93776  0.84555     C
H       0.1845      0.0   0.7139     H
H       0.1845   0.1845   0.4706     H
H       0.1845   0.4706   0.1845     H
H       0.1845   0.7139      0.0     H
N       0.1859   0.2323   0.5762     N
N       0.1859   0.5762   0.2323     N
N       0.1859   0.6097   0.9536     N
N       0.1859   0.9536   0.6097     N
C      0.18937  0.04502  0.47095     C
C      0.18937  0.14435  0.71842     C
C      0.18937  0.47095  0.04502     C
C      0.18937  0.71842  0.14435     C
Cu      0.1934   0.1934   0.3868    Cu
Cu      0.1934   0.3868   0.1934    Cu
Cu      0.1934   0.8066      0.0    Cu
Cu      0.1934      1.0   0.8066    Cu
C      0.19468  0.29361  0.33805     C
C      0.19468  0.33805  0.29361     C
C      0.19468  0.85663  0.90107     C
C      0.19468  0.90107  0.85663     C
C      0.19783  0.24229  0.69786     C
C      0.19783  0.49997  0.95554     C
C      0.19783  0.69786  0.24229     C
C      0.19783  0.95554  0.49997     C
O      0.20134  0.25002  0.37964     O
O      0.20134  0.37964  0.25002     O
O      0.20134   0.8217  0.95132     O
O      0.20134  0.95132   0.8217     O
C      0.20187  0.04557  0.51976     C
C      0.20187   0.1563  0.68211     C
C      0.20187  0.51976  0.04557     C
C      0.20187  0.68211   0.1563     C
O       0.2077  0.08758   0.4785     O
O       0.2077  0.12012   0.7292     O
O       0.2077   0.4785  0.08758     O
O       0.2077   0.7292  0.12012     O
C      0.20903  0.25218  0.66509     C
C      0.20903  0.54394  0.95685     C
C      0.20903  0.66509  0.25218     C
C      0.20903  0.95685  0.54394     C
O      0.20928  0.05045  0.91127     O
O      0.20928  0.15883  0.29801     O
O      0.20928  0.29801  0.15883     O
O      0.20928  0.91127  0.05045     O
C      0.21443      0.0  0.72621     C
C      0.21443  0.21443  0.48822     C
C      0.21443  0.48822  0.21443     C
C      0.21443  0.72621      0.0     C
C      0.21792      0.0  0.65302     C
C      0.21792  0.21792   0.5649     C
C      0.21792   0.5649  0.21792     C
C      0.21792  0.65302      0.0     C
C      0.21936  0.04333  0.60551     C
C      0.21936  0.17603  0.61385     C
C      0.21936  0.60551  0.04333     C
C      0.21936  0.61385  0.17603     C
H       0.2195    0.264   0.7319     H
H       0.2195   0.4876   0.9555     H
H       0.2195   0.7319    0.264     H
H       0.2195   0.9555   0.4876     H
C      0.22543  0.33834  0.38103     C
C      0.22543  0.38103  0.33834     C
C      0.22543   0.8444  0.88709     C
C      0.22543  0.88709   0.8444     C
O       0.2305   0.0394   0.6569     O
O       0.2305   0.1911   0.5736     O
O       0.2305   0.5736   0.1911     O
O       0.2305   0.6569   0.0394     O
N      0.23204      0.0  0.76796     N
N      0.23204  0.23204  0.46408     N
N      0.23204  0.46408  0.23204     N
N      0.23204  0.76796      0.0     N
C      0.23608  0.38008  0.38008     C
C      0.23608    0.856    0.856     C
H       0.2383   0.2805   0.6764     H
H       0.2383   0.5619   0.9578     H
H       0.2383   0.6764   0.2805     H
H       0.2383   0.9578   0.5619     H
H        0.239   0.3393   0.4113     H
H        0.239   0.4113   0.3393     H
H        0.239   0.8277   0.8997     H
H        0.239   0.8997   0.8277     H
C      0.23911      0.0  0.70075     C
C      0.23911  0.23911  0.53836     C
C      0.23911  0.53836  0.23911     C
C      0.23911  0.70075      0.0     C
C      0.24229  0.04446  0.54443     C
C      0.24229  0.19783  0.69786     C
C      0.24229  0.54443  0.04446     C
C      0.24229  0.69786  0.19783     C
C      0.24655  0.06224  0.90779     C
C      0.24655  0.18431  0.33876     C
C      0.24655  0.33876  0.18431     C
C      0.24655  0.90779  0.06224     C
H       0.2472   0.0747   0.6841     H
H       0.2472   0.1725   0.5631     H
H       0.2472   0.5631   0.1725     H
H       0.2472   0.6841   0.0747     H
O      0.25002  0.04868  0.87038     O
O      0.25002  0.20134  0.37964     O
O      0.25002  0.37964  0.20134     O
O      0.25002  0.87038  0.04868     O
C      0.25218  0.04315  0.58709     C
C      0.25218  0.20903  0.66509     C
C      0.25218  0.58709  0.04315     C
C      0.25218  0.66509  0.20903     C
H       0.2638      0.0   0.1148     H
H       0.2638   0.1148      1.0     H
H       0.2638    0.149   0.2638     H
H       0.2638   0.2638    0.149     H
H        0.264   0.0445   0.5321     H
H        0.264   0.2195   0.7319     H
H        0.264   0.5321   0.0445     H
H        0.264   0.7319   0.2195     H
H       0.2681   0.4876   0.5321     H
H       0.2681   0.5321   0.4876     H
H       0.2681    0.736   0.7805     H
H       0.2681   0.7805    0.736     H
N      0.26964  0.42786  0.42786     N
N      0.26964  0.84178  0.84178     N
O       0.2708  0.39092   0.4785     O
O       0.2708   0.4785  0.39092     O
O       0.2708   0.7923  0.87988     O
O       0.2708  0.87988   0.7923     O
C      0.27379      0.0  0.78557     C
C      0.27379  0.27379  0.48822     C
C      0.27379  0.48822  0.27379     C
C      0.27379  0.78557      0.0     C
H       0.2805   0.0422   0.6041     H
H       0.2805   0.2383   0.6764     H
H       0.2805   0.6041   0.0422     H
H       0.2805   0.6764   0.2383     H
C      0.28158  0.42593  0.47095     C
C      0.28158  0.47095  0.42593     C
C      0.28158  0.81063  0.85565     C
C      0.28158  0.85565  0.81063     C
H       0.2817   0.4286   0.4565     H
H       0.2817   0.4565   0.4286     H
H       0.2817   0.8252   0.8531     H
H       0.2817   0.8531   0.8252     H
C       0.2825      0.0   0.7175     C
C       0.2825   0.2825    0.565     C
C       0.2825    0.565   0.2825     C
C       0.2825   0.7175      0.0     C
H       0.2861      0.0   0.8155     H
H       0.2861   0.2861   0.4706     H
H       0.2861   0.4706   0.2861     H
H       0.2861   0.8155      1.0     H
Cu     0.29044  0.14522  0.14522    Cu
C      0.29313  0.11835      1.0     C
C      0.29313  0.17478  0.29313     C
C      0.29313  0.29313  0.17478     C
C      0.29313      1.0  0.11835     C
C      0.29361  0.09893  0.95556     C
C      0.29361  0.19468  0.33805     C
C      0.29361  0.33805  0.19468     C
C      0.29361  0.95556  0.09893     C
O      0.29801  0.08873  0.13918     O
O      0.29801  0.13918  0.08873     O
O      0.29801  0.15883  0.20928     O
O      0.29801  0.20928  0.15883     O
C      0.29925      0.0  0.76089     C
C      0.29925  0.29925  0.53836     C
C      0.29925  0.53836  0.29925     C
C      0.29925  0.76089      0.0     C
H       0.2998      0.0   0.7002     H
H       0.2998   0.2998   0.5996     H
H       0.2998   0.5996   0.2998     H
H       0.2998   0.7002      0.0     H
C      0.30214  0.49997  0.54443     C
C      0.30214  0.54443  0.49997     C
C      0.30214  0.75771  0.80217     C
C      0.30214  0.80217  0.75771     C
H       0.3159   0.3906   0.5631     H
H       0.3159   0.5631   0.3906     H
H       0.3159   0.7528   0.9253     H
H       0.3159   0.9253   0.7528     H
C      0.31789  0.47419  0.51976     C
C      0.31789  0.51976  0.47419     C
C      0.31789  0.79813   0.8437     C
C      0.31789   0.8437  0.79813     C
H       0.3236   0.5619   0.6041     H
H       0.3236   0.6041   0.5619     H
H       0.3236   0.7195   0.7617     H
H       0.3236   0.7617   0.7195     H
C      0.33491  0.54394  0.58709     C
C      0.33491  0.58709  0.54394     C
C      0.33491  0.74782  0.79097     C
C      0.33491  0.79097  0.74782     C
C      0.33805  0.04444  0.14337     C
C      0.33805  0.14337  0.04444     C
C      0.33805  0.19468  0.29361     C
C      0.33805  0.29361  0.19468     C
C      0.33834  0.11291  0.95731     C
C      0.33834  0.22543  0.38103     C
C      0.33834  0.38103  0.22543     C
C      0.33834  0.95731  0.11291     C
C      0.33876  0.09221  0.15445     C
C      0.33876  0.15445  0.09221     C
C      0.33876  0.18431  0.24655     C
C      0.33876  0.24655  0.18431     C
H       0.3393   0.1003    0.928     H
H       0.3393    0.239   0.4113     H
H       0.3393   0.4113    0.239     H
H       0.3393    0.928   0.1003     H
O       0.3431   0.3825   0.5736     O
O       0.3431   0.5736   0.3825     O
O       0.3431   0.7695   0.9606     O
O       0.3431   0.9606   0.7695     O
C      0.34698      0.0  0.78208     C
C      0.34698  0.34698   0.5649     C
C      0.34698   0.5649  0.34698     C
C      0.34698  0.78208      1.0     C
C      0.36828  0.49232  0.53696     C
C      0.36828  0.53696  0.49232     C
C      0.36828  0.83132  0.87596     C
C      0.36828  0.87596  0.83132     C
H       0.3791   0.4748   0.5187     H
H       0.3791   0.5187   0.4748     H
H       0.3791   0.8604   0.9043     H
H       0.3791   0.9043   0.8604     H
O      0.37964  0.12962   0.1783     O
O      0.37964   0.1783  0.12962     O
O      0.37964  0.20134  0.25002     O
O      0.37964  0.25002  0.20134     O
C      0.38008    0.144      1.0     C
C      0.38008  0.23608  0.38008     C
C      0.38008  0.38008  0.23608     C
C      0.38008      1.0    0.144     C
C      0.38103  0.04269   0.1556     C
C      0.38103   0.1556  0.04269     C
C      0.38103  0.22543  0.33834     C
C      0.38103  0.33834  0.22543     C
O       0.3825   0.0394   0.8089     O
O       0.3825   0.3431   0.5736     O
O       0.3825   0.5736   0.3431     O
O       0.3825   0.8089   0.0394     O
C      0.38615  0.56218  0.60551     C
C      0.38615  0.60551  0.56218     C
C      0.38615  0.78064  0.82397     C
C      0.38615  0.82397  0.78064     C
Cu      0.3868   0.1934   0.1934    Cu
H       0.3906   0.0747   0.8275     H
H       0.3906   0.3159   0.5631     H
H       0.3906   0.5631   0.3159     H
H       0.3906   0.8275   0.0747     H
O      0.39092  0.12012  0.91242     O
O      0.39092   0.2708   0.4785     O
O      0.39092   0.4785   0.2708     O
O      0.39092  0.91242  0.12012     O
C      0.39449  0.43782  0.61385     C
C      0.39449  0.61385  0.43782     C
C      0.39449  0.78064  0.95667     C
C      0.39449  0.95667  0.78064     C
H       0.3959   0.4381   0.6764     H
H       0.3959   0.6764   0.4381     H
H       0.3959   0.7195   0.9578     H
H       0.3959   0.9578   0.7195     H
H       0.4004   0.7002   0.7002     H
C      0.40141  0.53505  0.57982     C
C      0.40141  0.57982  0.53505     C
C      0.40141  0.82159  0.86636     C
C      0.40141  0.86636  0.82159     C
H       0.4078   0.4537   0.5647     H
H       0.4078   0.5647   0.4537     H
H       0.4078   0.8431   0.9541     H
H       0.4078   0.9541   0.8431     H
H       0.4113    0.072   0.1723     H
H       0.4113   0.1723    0.072     H
H       0.4113    0.239   0.3393     H
H       0.4113   0.3393    0.239     H
C      0.41291  0.45606  0.66509     C
C      0.41291  0.66509  0.45606     C
C      0.41291  0.74782  0.95685     C
C      0.41291  0.95685  0.74782     C
C      0.42018  0.46495  0.59859     C
C      0.42018  0.59859  0.46495     C
C      0.42018  0.82159  0.95523     C
C      0.42018  0.95523  0.82159     C
N       0.4238   0.6097   0.6561     N
N       0.4238   0.6561   0.6097     N
N       0.4238   0.7677   0.8141     N
N       0.4238   0.8141   0.7677     N
C      0.42593  0.14435  0.95498     C
C      0.42593  0.28158  0.47095     C
C      0.42593  0.47095  0.28158     C
C      0.42593  0.95498  0.14435     C
N      0.42786      0.0  0.15822     N
N      0.42786  0.15822      1.0     N
N      0.42786  0.26964  0.42786     N
N      0.42786  0.42786  0.26964     N
H       0.4286   0.1469   0.9721     H
H       0.4286   0.2817   0.4565     H
H       0.4286   0.4565   0.2817     H
H       0.4286   0.9721   0.1469     H
C        0.435   0.7175   0.7175     C
C       0.4351  0.65302  0.65302     C
C       0.4351  0.78208  0.78208     C
H       0.4353   0.5463   0.5922     H
H       0.4353   0.5922   0.5463     H
H       0.4353   0.8431    0.889     H
H       0.4353    0.889   0.8431     H
H       0.4369   0.6094   0.6841     H
H       0.4369   0.6841   0.6094     H
H       0.4369   0.7528   0.8275     H
H       0.4369   0.8275   0.7528     H
C      0.43782  0.04333  0.82397     C
C      0.43782  0.39449  0.61385     C
C      0.43782  0.61385  0.39449     C
C      0.43782  0.82397  0.04333     C
H       0.4381   0.0422   0.7617     H
H       0.4381   0.3959   0.6764     H
H       0.4381   0.6764   0.3959     H
H       0.4381   0.7617   0.0422     H
H       0.4537   0.0459    0.889     H
H       0.4537   0.4078   0.5647     H
H       0.4537   0.5647   0.4078     H
H       0.4537    0.889   0.0459     H
C      0.45557  0.50003  0.69786     C
C      0.45557  0.69786  0.50003     C
C      0.45557  0.75771  0.95554     C
C      0.45557  0.95554  0.75771     C
C      0.45606  0.04315  0.79097     C
C      0.45606  0.41291  0.66509     C
C      0.45606  0.66509  0.41291     C
C      0.45606  0.79097  0.04315     C
H       0.4565   0.0279   0.1748     H
H       0.4565   0.1748   0.0279     H
H       0.4565   0.2817   0.4286     H
H       0.4565   0.4286   0.2817     H
C      0.46164  0.70075  0.70075     C
C      0.46164  0.76089  0.76089     C
C      0.46304  0.50768  0.63172     C
C      0.46304  0.63172  0.50768     C
C      0.46304  0.83132  0.95536     C
C      0.46304  0.95536  0.83132     C
N      0.46408  0.23204  0.23204     N
C      0.46495  0.04477  0.86636     C
C      0.46495  0.42018  0.59859     C
C      0.46495  0.59859  0.42018     C
C      0.46495  0.86636  0.04477     C
H       0.4679   0.5124   0.7319     H
H       0.4679   0.7319   0.5124     H
H       0.4679    0.736   0.9555     H
H       0.4679   0.9555    0.736     H
H       0.4706   0.1845   0.1845     H
H       0.4706   0.2861   0.2861     H
C      0.47095  0.04502  0.18937     C
C      0.47095  0.18937  0.04502     C
C      0.47095  0.28158  0.42593     C
C      0.47095  0.42593  0.28158     C
C      0.47419   0.1563  0.95443     C
C      0.47419  0.31789  0.51976     C
C      0.47419  0.51976  0.31789     C
C      0.47419  0.95443   0.1563     C
H       0.4748   0.0957   0.9561     H
H       0.4748   0.3791   0.5187     H
H       0.4748   0.5187   0.3791     H
H       0.4748   0.9561   0.0957     H
O       0.4785  0.08758   0.2077     O
O       0.4785   0.2077  0.08758     O
O       0.4785   0.2708  0.39092     O
O       0.4785  0.39092   0.2708     O
C      0.48024  0.52581  0.68211     C
C      0.48024  0.68211  0.52581     C
C      0.48024  0.79813  0.95443     C
C      0.48024  0.95443  0.79813     C
H       0.4813   0.5252   0.6209     H
H       0.4813   0.6209   0.5252     H
H       0.4813   0.8604   0.9561     H
H       0.4813   0.9561   0.8604     H
H       0.4876   0.2195   0.9555     H
H       0.4876   0.2681   0.5321     H
H       0.4876   0.5321   0.2681     H
H       0.4876   0.9555   0.2195     H
C      0.48822  0.21443  0.21443     C
C      0.48822  0.27379  0.27379     C
C      0.49232  0.12404  0.95536     C
C      0.49232  0.36828  0.53696     C
C      0.49232  0.53696  0.36828     C
C      0.49232  0.95536  0.12404     C
C      0.49997  0.19783  0.95554     C
C      0.49997  0.30214  0.54443     C
C      0.49997  0.54443  0.30214     C
C      0.49997  0.95554  0.19783     C
C      0.50003  0.04446  0.80217     C
C      0.50003  0.45557  0.69786     C
C      0.50003  0.69786  0.45557     C
C      0.50003  0.80217  0.04446     C
C      0.50768  0.04464  0.87596     C
C      0.50768  0.46304  0.63172     C
C      0.50768  0.63172  0.46304     C
C      0.50768  0.87596  0.04464     C
C      0.51178  0.72621  0.72621     C
C      0.51178  0.78557  0.78557     C
H       0.5124   0.0445   0.7805     H
H       0.5124   0.4679   0.7319     H
H       0.5124   0.7319   0.4679     H
H       0.5124   0.7805   0.0445     H
H       0.5187   0.0439   0.1396     H
H       0.5187   0.1396   0.0439     H
H       0.5187   0.3791   0.4748     H
H       0.5187   0.4748   0.3791     H
C      0.51976  0.04557  0.20187     C
C      0.51976  0.20187  0.04557     C
C      0.51976  0.31789  0.47419     C
C      0.51976  0.47419  0.31789     C
O       0.5215  0.60908   0.7292     O
O       0.5215   0.7292  0.60908     O
O       0.5215   0.7923  0.91242     O
O       0.5215  0.91242   0.7923     O
H       0.5252   0.0439   0.9043     H
H       0.5252   0.4813   0.6209     H
H       0.5252   0.6209   0.4813     H
H       0.5252   0.9043   0.0439     H
C      0.52581  0.04557   0.8437     C
C      0.52581  0.48024  0.68211     C
C      0.52581  0.68211  0.48024     C
C      0.52581   0.8437  0.04557     C
C      0.52905  0.57407  0.71842     C
C      0.52905  0.71842  0.57407     C
C      0.52905  0.81063  0.95498     C
C      0.52905  0.95498  0.81063     C
H       0.5294   0.7139   0.7139     H
H       0.5294   0.8155   0.8155     H
H       0.5321   0.0445    0.264     H
H       0.5321    0.264   0.0445     H
H       0.5321   0.2681   0.4876     H
H       0.5321   0.4876   0.2681     H
C      0.53505  0.13364  0.95523     C
C      0.53505  0.40141  0.57982     C
C      0.53505  0.57982  0.40141     C
C      0.53505  0.95523  0.13364     C
N      0.53592  0.76796  0.76796     N
C      0.53696  0.04464  0.16868     C
C      0.53696  0.16868  0.04464     C
C      0.53696  0.36828  0.49232     C
C      0.53696  0.49232  0.36828     C
C      0.53836  0.23911  0.23911     C
C      0.53836  0.29925  0.29925     C
H       0.5435   0.5714   0.7183     H
H       0.5435   0.7183   0.5714     H
H       0.5435   0.8252   0.9721     H
H       0.5435   0.9721   0.8252     H
C      0.54394  0.20903  0.95685     C
C      0.54394  0.33491  0.58709     C
C      0.54394  0.58709  0.33491     C
C      0.54394  0.95685  0.20903     C
C      0.54443  0.04446  0.24229     C
C      0.54443  0.24229  0.04446     C
C      0.54443  0.30214  0.49997     C
C      0.54443  0.49997  0.30214     C
H       0.5463    0.111   0.9541     H
H       0.5463   0.4353   0.5922     H
H       0.5463   0.5922   0.4353     H
H       0.5463   0.9541    0.111     H
H       0.5619   0.2383   0.9578     H
H       0.5619   0.3236   0.6041     H
H       0.5619   0.6041   0.3236     H
H       0.5619   0.9578   0.2383     H
C      0.56218  0.17603  0.95667     C
C      0.56218  0.38615  0.60551     C
C      0.56218  0.60551  0.38615     C
C      0.56218  0.95667  0.17603     C
H       0.5631   0.1725   0.2472     H
H       0.5631   0.2472   0.1725     H
H       0.5631   0.3159   0.3906     H
H       0.5631   0.3906   0.3159     H
H       0.5647    0.111   0.1569     H
H       0.5647   0.1569    0.111     H
H       0.5647   0.4078   0.4537     H
H       0.5647   0.4537   0.4078     H
C       0.5649  0.21792  0.21792     C
C       0.5649  0.34698  0.34698     C
C        0.565   0.2825   0.2825     C
H       0.5714   0.0279   0.8531     H
H       0.5714   0.5435   0.7183     H
H       0.5714   0.7183   0.5435     H
H       0.5714   0.8531   0.0279     H
N      0.57214  0.57214  0.73036     N
N      0.57214  0.73036  0.57214     N
N      0.57214  0.84178      1.0     N
N      0.57214      1.0  0.84178     N
O       0.5736   0.1911   0.2305     O
O       0.5736   0.2305   0.1911     O
O       0.5736   0.3431   0.3825     O
O       0.5736   0.3825   0.3431     O
C      0.57407  0.04502  0.85565     C
C      0.57407  0.52905  0.71842     C
C      0.57407  0.71842  0.52905     C
C      0.57407  0.85565  0.04502     C
C      0.57982  0.04477  0.17841     C
C      0.57982  0.17841  0.04477     C
C      0.57982  0.40141  0.53505     C
C      0.57982  0.53505  0.40141     C
C      0.58709  0.04315  0.25218     C
C      0.58709  0.25218  0.04315     C
C      0.58709  0.33491  0.54394     C
C      0.58709  0.54394  0.33491     C
H       0.5887   0.6607    0.761     H
H       0.5887    0.761   0.6607     H
H       0.5887   0.8277    0.928     H
H       0.5887    0.928   0.8277     H
H       0.5922   0.0459   0.1569     H
H       0.5922   0.1569   0.0459     H
H       0.5922   0.4353   0.5463     H
H       0.5922   0.5463   0.4353     H
C      0.59859  0.13364  0.17841     C
C      0.59859  0.17841  0.13364     C
C      0.59859  0.42018  0.46495     C
C      0.59859  0.46495  0.42018     C
H       0.5996   0.2998   0.2998     H
H       0.6041   0.0422   0.2805     H
H       0.6041   0.2805   0.0422     H
H       0.6041   0.3236   0.5619     H
H       0.6041   0.5619   0.3236     H
C      0.60551  0.04333  0.21936     C
C      0.60551  0.21936  0.04333     C
C      0.60551  0.38615  0.56218     C
C      0.60551  0.56218  0.38615     C
O      0.60908  0.08758  0.87988     O
O      0.60908   0.5215   0.7292     O
O      0.60908   0.7292   0.5215     O
O      0.60908  0.87988  0.08758     O
H       0.6094   0.1725   0.9253     H
H       0.6094   0.4369   0.6841     H
H       0.6094   0.6841   0.4369     H
H       0.6094   0.9253   0.1725     H
N       0.6097   0.1859   0.9536     N
N       0.6097   0.4238   0.6561     N
N       0.6097   0.6561   0.4238     N
N       0.6097   0.9536   0.1859     N
Cu      0.6132   0.8066   0.8066    Cu
C      0.61385  0.17603  0.21936     C
C      0.61385  0.21936  0.17603     C
C      0.61385  0.39449  0.43782     C
C      0.61385  0.43782  0.39449     C
C      0.61897  0.66166  0.77457     C
C      0.61897  0.77457  0.66166     C
C      0.61897   0.8444  0.95731     C
C      0.61897  0.95731   0.8444     C
C      0.61992  0.61992  0.76392     C
C      0.61992  0.76392  0.61992     C
C      0.61992    0.856      1.0     C
C      0.61992      1.0    0.856     C
O      0.62036  0.74998  0.79866     O
O      0.62036  0.79866  0.74998     O
O      0.62036   0.8217  0.87038     O
O      0.62036  0.87038   0.8217     O
H       0.6209   0.0957   0.1396     H
H       0.6209   0.1396   0.0957     H
H       0.6209   0.4813   0.5252     H
H       0.6209   0.5252   0.4813     H
C      0.63172  0.12404  0.16868     C
C      0.63172  0.16868  0.12404     C
C      0.63172  0.46304  0.50768     C
C      0.63172  0.50768  0.46304     C
C      0.65302  0.21792      0.0     C
C      0.65302   0.4351  0.65302     C
C      0.65302  0.65302   0.4351     C
C      0.65302      1.0  0.21792     C
N       0.6561   0.0464   0.2323     N
N       0.6561   0.2323   0.0464     N
N       0.6561   0.4238   0.6097     N
N       0.6561   0.6097   0.4238     N
H       0.6607    0.072   0.8997     H
H       0.6607   0.5887    0.761     H
H       0.6607    0.761   0.5887     H
H       0.6607   0.8997    0.072     H
C      0.66124  0.75345  0.81569     C
C      0.66124  0.81569  0.75345     C
C      0.66124  0.84555  0.90779     C
C      0.66124  0.90779  0.84555     C
C      0.66166  0.04269  0.88709     C
C      0.66166  0.61897  0.77457     C
C      0.66166  0.77457  0.61897     C
C      0.66166  0.88709  0.04269     C
C      0.66195  0.70639  0.80532     C
C      0.66195  0.80532  0.70639     C
C      0.66195  0.85663  0.95556     C
C      0.66195  0.95556  0.85663     C
C      0.66509  0.20903  0.25218     C
C      0.66509  0.25218  0.20903     C
C      0.66509  0.41291  0.45606     C
C      0.66509  0.45606  0.41291     C
H       0.6764   0.2383   0.2805     H
H       0.6764   0.2805   0.2383     H
H       0.6764   0.3959   0.4381     H
H       0.6764   0.4381   0.3959     H
C      0.68211   0.1563  0.20187     C
C      0.68211  0.20187   0.1563     C
C      0.68211  0.48024  0.52581     C
C      0.68211  0.52581  0.48024     C
H       0.6841   0.0747   0.2472     H
H       0.6841   0.2472   0.0747     H
H       0.6841   0.4369   0.6094     H
H       0.6841   0.6094   0.4369     H
C      0.69786  0.19783  0.24229     C
C      0.69786  0.24229  0.19783     C
C      0.69786  0.45557  0.50003     C
C      0.69786  0.50003  0.45557     C
H       0.7002   0.2998      0.0     H
H       0.7002   0.4004   0.7002     H
H       0.7002   0.7002   0.4004     H
H       0.7002      1.0   0.2998     H
C      0.70075  0.23911      0.0     C
C      0.70075  0.46164  0.70075     C
C      0.70075  0.70075  0.46164     C
C      0.70075      1.0  0.23911     C
O      0.70199  0.79072  0.84117     O
O      0.70199  0.84117  0.79072     O
O      0.70199  0.86082  0.91127     O
O      0.70199  0.91127  0.86082     O
C      0.70639  0.04444  0.90107     C
C      0.70639  0.66195  0.80532     C
C      0.70639  0.80532  0.66195     C
C      0.70639  0.90107  0.04444     C
C      0.70687      0.0  0.88165     C
C      0.70687  0.70687  0.82522     C
C      0.70687  0.82522  0.70687     C
C      0.70687  0.88165      1.0     C
Cu     0.70956  0.85478  0.85478    Cu
H       0.7139   0.1845      0.0     H
H       0.7139   0.5294   0.7139     H
H       0.7139   0.7139   0.5294     H
H       0.7139      1.0   0.1845     H
C       0.7175   0.2825      0.0     C
C       0.7175    0.435   0.7175     C
C       0.7175   0.7175    0.435     C
C       0.7175      1.0   0.2825     C
H       0.7183   0.1469   0.1748     H
H       0.7183   0.1748   0.1469     H
H       0.7183   0.5435   0.5714     H
H       0.7183   0.5714   0.5435     H
C      0.71842  0.14435  0.18937     C
C      0.71842  0.18937  0.14435     C
C      0.71842  0.52905  0.57407     C
C      0.71842  0.57407  0.52905     C
H       0.7195   0.3236   0.7617     H
H       0.7195   0.3959   0.9578     H
H       0.7195   0.7617   0.3236     H
H       0.7195   0.9578   0.3959     H
C      0.72621  0.21443      0.0     C
C      0.72621  0.51178  0.72621     C
C      0.72621  0.72621  0.51178     C
C      0.72621      1.0  0.21443     C
O       0.7292  0.12012   0.2077     O
O       0.7292   0.2077  0.12012     O
O       0.7292   0.5215  0.60908     O
O       0.7292  0.60908   0.5215     O
N      0.73036  0.15822  0.15822     N
N      0.73036  0.57214  0.57214     N
H       0.7319   0.2195    0.264     H
H       0.7319    0.264   0.2195     H
H       0.7319   0.4679   0.5124     H
H       0.7319   0.5124   0.4679     H
H        0.736   0.2681   0.7805     H
H        0.736   0.4679   0.9555     H
H        0.736   0.7805   0.2681     H
H        0.736   0.9555   0.4679     H
H       0.7362      0.0   0.8852     H
H       0.7362   0.7362    0.851     H
H       0.7362    0.851   0.7362     H
H       0.7362   0.8852      1.0     H
C      0.74782  0.33491  0.79097     C
C      0.74782  0.41291  0.95685     C
C      0.74782  0.79097  0.33491     C
C      0.74782  0.95685  0.41291     C
O      0.74998  0.12962  0.95132     O
O      0.74998  0.62036  0.79866     O
O      0.74998  0.79866  0.62036     O
O      0.74998  0.95132  0.12962     O
H       0.7528   0.3159   0.9253     H
H       0.7528   0.4369   0.8275     H
H       0.7528   0.8275   0.4369     H
H       0.7528   0.9253   0.3159     H
C      0.75345  0.09221  0.93776     C
C      0.75345  0.66124  0.81569     C
C      0.75345  0.81569  0.66124     C
C      0.75345  0.93776  0.09221     C
C      0.75771  0.30214  0.80217     C
C      0.75771  0.45557  0.95554     C
C      0.75771  0.80217  0.30214     C
C      0.75771  0.95554  0.45557     C
C      0.76089  0.29925      1.0     C
C      0.76089  0.46164  0.76089     C
C      0.76089  0.76089  0.46164     C
C      0.76089      1.0  0.29925     C
H        0.761   0.1003   0.1723     H
H        0.761   0.1723   0.1003     H
H        0.761   0.5887   0.6607     H
H        0.761   0.6607   0.5887     H
H       0.7617   0.0422   0.4381     H
H       0.7617   0.3236   0.7195     H
H       0.7617   0.4381   0.0422     H
H       0.7617   0.7195   0.3236     H
C      0.76392    0.144    0.144     C
C      0.76392  0.61992  0.61992     C
N       0.7677   0.3439   0.9536     N
N       0.7677   0.4238   0.8141     N
N       0.7677   0.8141   0.4238     N
N       0.7677   0.9536   0.3439     N
N      0.76796      0.0  0.23204     N
N      0.76796  0.23204      0.0     N
N      0.76796  0.53592  0.76796     N
N      0.76796  0.76796  0.53592     N
C      0.77457  0.11291   0.1556     C
C      0.77457   0.1556  0.11291     C
C      0.77457  0.61897  0.66166     C
C      0.77457  0.66166  0.61897     C
H       0.7805   0.0445   0.5124     H
H       0.7805   0.2681    0.736     H
H       0.7805   0.5124   0.0445     H
H       0.7805    0.736   0.2681     H
C      0.78064  0.38615  0.82397     C
C      0.78064  0.39449  0.95667     C
C      0.78064  0.82397  0.38615     C
C      0.78064  0.95667  0.39449     C
C      0.78208  0.34698      0.0     C
C      0.78208   0.4351  0.78208     C
C      0.78208  0.78208   0.4351     C
C      0.78208      1.0  0.34698     C
C      0.78557  0.27379      1.0     C
C      0.78557  0.51178  0.78557     C
C      0.78557  0.78557  0.51178     C
C      0.78557      1.0  0.27379     C
O      0.79072  0.08873  0.94955     O
O      0.79072  0.70199  0.84117     O
O      0.79072  0.84117  0.70199     O
O      0.79072  0.94955  0.08873     O
C      0.79097  0.04315  0.45606     C
C      0.79097  0.33491  0.74782     C
C      0.79097  0.45606  0.04315     C
C      0.79097  0.74782  0.33491     C
O       0.7923   0.2708  0.87988     O
O       0.7923   0.5215  0.91242     O
O       0.7923  0.87988   0.2708     O
O       0.7923  0.91242   0.5215     O
C      0.79813  0.31789   0.8437     C
C      0.79813  0.48024  0.95443     C
C      0.79813   0.8437  0.31789     C
C      0.79813  0.95443  0.48024     C
O      0.79866  0.04868   0.1783     O
O      0.79866   0.1783  0.04868     O
O      0.79866  0.62036  0.74998     O
O      0.79866  0.74998  0.62036     O
C      0.80217  0.04446  0.50003     C
C      0.80217  0.30214  0.75771     C
C      0.80217  0.50003  0.04446     C
C      0.80217  0.75771  0.30214     C
C      0.80532  0.09893  0.14337     C
C      0.80532  0.14337  0.09893     C
C      0.80532  0.66195  0.70639     C
C      0.80532  0.70639  0.66195     C
Cu      0.8066   0.1934      1.0    Cu
Cu      0.8066   0.6132   0.8066    Cu
Cu      0.8066   0.8066   0.6132    Cu
Cu      0.8066      1.0   0.1934    Cu
O       0.8089   0.0394   0.3825     O
O       0.8089   0.3825   0.0394     O
O       0.8089   0.4264   0.7695     O
O       0.8089   0.7695   0.4264     O
C      0.81063  0.28158  0.85565     C
C      0.81063  0.52905  0.95498     C
C      0.81063  0.85565  0.28158     C
C      0.81063  0.95498  0.52905     C
H       0.8155   0.2861      1.0     H
H       0.8155   0.5294   0.8155     H
H       0.8155   0.8155   0.5294     H
H       0.8155      1.0   0.2861     H
C      0.81569  0.06224  0.15445     C
C      0.81569  0.15445  0.06224     C
C      0.81569  0.66124  0.75345     C
C      0.81569  0.75345  0.66124     C
C      0.82159  0.40141  0.86636     C
C      0.82159  0.42018  0.95523     C
C      0.82159  0.86636  0.40141     C
C      0.82159  0.95523  0.42018     C
O       0.8217  0.20134  0.95132     O
O       0.8217  0.62036  0.87038     O
O       0.8217  0.87038  0.62036     O
O       0.8217  0.95132  0.20134     O
C      0.82397  0.04333  0.43782     C
C      0.82397  0.38615  0.78064     C
C      0.82397  0.43782  0.04333     C
C      0.82397  0.78064  0.38615     C
H       0.8252   0.2817   0.8531     H
H       0.8252   0.5435   0.9721     H
H       0.8252   0.8531   0.2817     H
H       0.8252   0.9721   0.5435     H
C      0.82522  0.11835  0.11835     C
C      0.82522  0.70687  0.70687     C
H       0.8275   0.0747   0.3906     H
H       0.8275   0.3906   0.0747     H
H       0.8275   0.4369   0.7528     H
H       0.8275   0.7528   0.4369     H
H       0.8277    0.239   0.8997     H
H       0.8277   0.5887    0.928     H
H       0.8277   0.8997    0.239     H
H       0.8277    0.928   0.5887     H
C      0.83132  0.36828  0.87596     C
C      0.83132  0.46304  0.95536     C
C      0.83132  0.87596  0.36828     C
C      0.83132  0.95536  0.46304     C
O      0.84117  0.05045  0.13918     O
O      0.84117  0.13918  0.05045     O
O      0.84117  0.70199  0.79072     O
O      0.84117  0.79072  0.70199     O
N      0.84178      0.0  0.57214     N
N      0.84178  0.26964  0.84178     N
N      0.84178  0.57214      0.0     N
N      0.84178  0.84178  0.26964     N
H       0.8431   0.4078   0.9541     H
H       0.8431   0.4353    0.889     H
H       0.8431    0.889   0.4353     H
H       0.8431   0.9541   0.4078     H
C       0.8437  0.04557  0.52581     C
C       0.8437  0.31789  0.79813     C
C       0.8437  0.52581  0.04557     C
C       0.8437  0.79813  0.31789     C
C       0.8444  0.22543  0.88709     C
C       0.8444  0.61897  0.95731     C
C       0.8444  0.88709  0.22543     C
C       0.8444  0.95731  0.61897     C
C      0.84555  0.18431  0.93776     C
C      0.84555  0.66124  0.90779     C
C      0.84555  0.90779  0.66124     C
C      0.84555  0.93776  0.18431     C
H        0.851   0.1148   0.1148     H
H        0.851   0.7362   0.7362     H
H       0.8531   0.0279   0.5714     H
H       0.8531   0.2817   0.8252     H
H       0.8531   0.5714   0.0279     H
H       0.8531   0.8252   0.2817     H
Cu     0.85478  0.14522      0.0    Cu
Cu     0.85478  0.70956  0.85478    Cu
Cu     0.85478  0.85478  0.70956    Cu
Cu     0.85478      1.0  0.14522    Cu
C      0.85565  0.04502  0.57407     C
C      0.85565  0.28158  0.81063     C
C      0.85565  0.57407  0.04502     C
C      0.85565  0.81063  0.28158     C
C        0.856      0.0  0.61992     C
C        0.856  0.23608    0.856     C
C        0.856  0.61992      0.0     C
C        0.856    0.856  0.23608     C
C      0.85663  0.19468  0.90107     C
C      0.85663  0.66195  0.95556     C
C      0.85663  0.90107  0.19468     C
C      0.85663  0.95556  0.66195     C
H       0.8604   0.3791   0.9043     H
H       0.8604   0.4813   0.9561     H
H       0.8604   0.9043   0.3791     H
H       0.8604   0.9561   0.4813     H
O      0.86082  0.15883  0.94955     O
O      0.86082  0.70199  0.91127     O
O      0.86082  0.91127  0.70199     O
O      0.86082  0.94955  0.15883     O
C      0.86636  0.04477  0.46495     C
C      0.86636  0.40141  0.82159     C
C      0.86636  0.46495  0.04477     C
C      0.86636  0.82159  0.40141     C
O      0.87038  0.04868  0.25002     O
O      0.87038  0.25002  0.04868     O
O      0.87038  0.62036   0.8217     O
O      0.87038   0.8217  0.62036     O
C      0.87596  0.04464  0.50768     C
C      0.87596  0.36828  0.83132     C
C      0.87596  0.50768  0.04464     C
C      0.87596  0.83132  0.36828     C
O      0.87988  0.08758  0.60908     O
O      0.87988   0.2708   0.7923     O
O      0.87988  0.60908  0.08758     O
O      0.87988   0.7923   0.2708     O
C      0.88165  0.17478  0.88165     C
C      0.88165  0.70687      0.0     C
C      0.88165  0.88165  0.17478     C
C      0.88165      1.0  0.70687     C
H       0.8852    0.149   0.8852     H
H       0.8852   0.7362      1.0     H
H       0.8852   0.8852    0.149     H
H       0.8852      1.0   0.7362     H
C      0.88709  0.04269  0.66166     C
C      0.88709  0.22543   0.8444     C
C      0.88709  0.66166  0.04269     C
C      0.88709   0.8444  0.22543     C
H        0.889   0.0459   0.4537     H
H        0.889   0.4353   0.8431     H
H        0.889   0.4537   0.0459     H
H        0.889   0.8431   0.4353     H
H       0.8997    0.072   0.6607     H
H       0.8997    0.239   0.8277     H
H       0.8997   0.6607    0.072     H
H       0.8997   0.8277    0.239     H
C      0.90107  0.04444  0.70639     C
C      0.90107  0.19468  0.85663     C
C      0.90107  0.70639  0.04444     C
C      0.90107  0.85663  0.19468     C
H       0.9043   0.0439   0.5252     H
H       0.9043   0.3791   0.8604     H
H       0.9043   0.5252   0.0439     H
H       0.9043   0.8604   0.3791     H
C      0.90779  0.06224  0.24655     C
C      0.90779  0.24655  0.06224     C
C      0.90779  0.66124  0.84555     C
C      0.90779  0.84555  0.66124     C
O      0.91127  0.05045  0.20928     O
O      0.91127  0.20928  0.05045     O
O      0.91127  0.70199  0.86082     O
O      0.91127  0.86082  0.70199     O
O      0.91242  0.12012  0.39092     O
O      0.91242  0.39092  0.12012     O
O      0.91242   0.5215   0.7923     O
O      0.91242   0.7923   0.5215     O
H       0.9253   0.1725   0.6094     H
H       0.9253   0.3159   0.7528     H
H       0.9253   0.6094   0.1725     H
H       0.9253   0.7528   0.3159     H
H        0.928   0.1003   0.3393     H
H        0.928   0.3393   0.1003     H
H        0.928   0.5887   0.8277     H
H        0.928   0.8277   0.5887     H
C      0.93776  0.09221  0.75345     C
C      0.93776  0.18431  0.84555     C
C      0.93776  0.75345  0.09221     C
C      0.93776  0.84555  0.18431     C
O      0.94955  0.08873  0.79072     O
O      0.94955  0.15883  0.86082     O
O      0.94955  0.79072  0.08873     O
O      0.94955  0.86082  0.15883     O
O      0.95132  0.12962  0.74998     O
O      0.95132  0.20134   0.8217     O
O      0.95132  0.74998  0.12962     O
O      0.95132   0.8217  0.20134     O
N       0.9536   0.1859   0.6097     N
N       0.9536   0.3439   0.7677     N
N       0.9536   0.6097   0.1859     N
N       0.9536   0.7677   0.3439     N
H       0.9541    0.111   0.5463     H
H       0.9541   0.4078   0.8431     H
H       0.9541   0.5463    0.111     H
H       0.9541   0.8431   0.4078     H
C      0.95443   0.1563  0.47419     C
C      0.95443  0.47419   0.1563     C
C      0.95443  0.48024  0.79813     C
C      0.95443  0.79813  0.48024     C
C      0.95498  0.14435  0.42593     C
C      0.95498  0.42593  0.14435     C
C      0.95498  0.52905  0.81063     C
C      0.95498  0.81063  0.52905     C
C      0.95523  0.13364  0.53505     C
C      0.95523  0.42018  0.82159     C
C      0.95523  0.53505  0.13364     C
C      0.95523  0.82159  0.42018     C
C      0.95536  0.12404  0.49232     C
C      0.95536  0.46304  0.83132     C
C      0.95536  0.49232  0.12404     C
C      0.95536  0.83132  0.46304     C
H       0.9555   0.2195   0.4876     H
H       0.9555   0.4679    0.736     H
H       0.9555   0.4876   0.2195     H
H       0.9555    0.736   0.4679     H
C      0.95554  0.19783  0.49997     C
C      0.95554  0.45557  0.75771     C
C      0.95554  0.49997  0.19783     C
C      0.95554  0.75771  0.45557     C
C      0.95556  0.09893  0.29361     C
C      0.95556  0.29361  0.09893     C
C      0.95556  0.66195  0.85663     C
C      0.95556  0.85663  0.66195     C
H       0.9561   0.0957   0.4748     H
H       0.9561   0.4748   0.0957     H
H       0.9561   0.4813   0.8604     H
H       0.9561   0.8604   0.4813     H
C      0.95667  0.17603  0.56218     C
C      0.95667  0.39449  0.78064     C
C      0.95667  0.56218  0.17603     C
C      0.95667  0.78064  0.39449     C
C      0.95685  0.20903  0.54394     C
C      0.95685  0.41291  0.74782     C
C      0.95685  0.54394  0.20903     C
C      0.95685  0.74782  0.41291     C
C      0.95731  0.11291  0.33834     C
C      0.95731  0.33834  0.11291     C
C      0.95731  0.61897   0.8444     C
C      0.95731   0.8444  0.61897     C
H       0.9578   0.2383   0.5619     H
H       0.9578   0.3959   0.7195     H
H       0.9578   0.5619   0.2383     H
H       0.9578   0.7195   0.3959     H
H       0.9721   0.1469   0.4286     H
H       0.9721   0.4286   0.1469     H
H       0.9721   0.5435   0.8252     H
H       0.9721   0.8252   0.5435     H
