data_I
_chemical_name_common  '/Users/gianmarcoterrones/Research/MOFs/MOF_structures/water_stability_work_extra_structs/cleaned_from_CoRE/EVOTIT_SL'
_cell_length_a 17.81294
_cell_length_b 31.27680
_cell_length_c 31.27680
_cell_angle_alpha 116.48350
_cell_angle_beta  100.94356
_cell_angle_gamma 100.94356
_space_group_name_H-M_alt      'P 1'


loop_
_space_group_symop_operation_xyz
  'x, y, z' 

loop_
_atom_site_label
_atom_site_fract_x
_atom_site_fract_y
_atom_site_fract_z
_atom_site_type_symbol
C      0.00035  0.45635  0.27564     C
H      0.00113  0.55255  0.09807     H
C       0.0013   0.0061   0.4134     C
C      0.00183  0.05983  0.21628     C
C       0.0023   0.9617   0.5081     C
C       0.0031    0.857   0.6512     C
C      0.00367  0.47398  0.31695     C
C       0.0037   0.9981   0.4553     C
O      0.00447  0.21119  0.69413     O
C       0.0048   0.5927   0.0061     C
H      0.00501   0.0324  0.75898     H
O       0.0054   0.0878   0.4988     O
C       0.0056   0.4572   0.0019     C
C       0.0058   0.5464   0.5081     C
O       0.0066    0.589   0.5012     O
O      0.00707  0.02954  0.62407     O
Zn     0.00716  0.67366  0.99849    Zn
C       0.0085   0.8429   0.2244     C
Zn     0.00867  0.00151  0.67517    Zn
O       0.0098   0.1914   0.7533     O
C       0.0099   0.9595   0.4596     C
O      0.01007  0.41914  0.26287     O
H      0.01127  0.79881  0.95798     H
O      0.01149  0.83231  0.02438     O
O       0.0119  0.03822  0.40528     O
C      0.01283  0.79554  0.99299     C
O      0.01289  0.02438  0.19207     O
C        0.013   0.1316    0.832     C
H      0.01353  0.86131  0.31066     H
H      0.01369  0.64154  0.46811     H
C       0.0145   0.1032   0.3448     C
C       0.0167  0.22098  0.66556     C
C      0.01716  0.58111  0.46493     C
C      0.01759  0.74322  0.86295     C
H      0.01863  0.19629  0.10138     H
H       0.0187   0.9316   0.4341     H
C      0.01984  0.00701  0.80255     C
O      0.02033  0.67661  0.93878     O
C      0.02247  0.27013  0.07848     C
O      0.02247  0.40547  0.02954     O
H      0.02262  0.13097  0.56571     H
O      0.02322  0.65346   0.7071     O
H       0.0245   0.8039   0.7117     H
H      0.02547  0.26389  0.13576     H
C      0.02573  0.98402  0.22044     C
O      0.02632  0.63294  0.03822     O
H      0.02739  0.27342   0.0324     H
H      0.02795  0.14674  0.93357     H
O       0.0282  0.60805  0.17187     O
H      0.02921  0.94549  0.75695     H
H      0.02969  0.85241  0.09132     H
H      0.03132  0.21018  0.94266     H
H      0.03213   0.1892  0.63599     H
C       0.0323   0.1699   0.8231     C
C       0.0335   0.6209   0.7858     C
H      0.03365  0.63891  0.13308     H
C      0.03377   0.4168  0.85264     C
C      0.03511  0.17342  0.72237     C
H      0.03536  0.53637  0.39306     H
N      0.03616  0.94134  0.67714     N
H       0.0371    0.175   0.3696     H
H       0.0381   0.1367   0.8644     H
H       0.0381   0.7481   0.1072     H
H      0.03828  0.92995  0.80826     H
H      0.03894   0.7733  0.35322     H
C       0.0406   0.5464   0.0383     C
H      0.04106  0.80263  0.92328     H
C      0.04171  0.23642  0.01598     C
C       0.0419   0.9145   0.2038     C
H      0.04309  0.43474  0.56571     H
O      0.04362  0.23676   0.0746     O
H      0.04558  0.17343  0.53189     H
O       0.0468   0.7273   0.8844     O
C       0.0484   0.5428   0.5447     C
H      0.04883  0.48192  0.27091     H
O       0.0501   0.9563    0.195     O
C       0.0503   0.4999   0.5404     C
C       0.0504   0.5001   0.0405     C
H      0.05142  0.55255  0.45448     H
C      0.05144  0.23569  0.11014     C
C      0.05223  0.11618  0.53507     C
H       0.0529   0.4211   0.3816     H
H      0.05329  0.04202  0.84083     H
C      0.05399   0.6174  0.46876     C
H      0.05419  0.10039  0.81354     H
H      0.05708  0.22906  0.98006     H
C      0.05739  0.20119  0.70979     C
C        0.058  0.84355  0.05983     C
H      0.06073  0.30505  0.11584     H
C       0.0611   0.8894    0.264     C
H       0.0615   0.7384   0.7148     H
H      0.06163  0.09132  0.23891     H
C      0.06294  0.18022  0.93192     C
H      0.06312  0.43491  0.83286     H
H      0.06317  0.10315  0.88008     H
C      0.06341   0.6174  0.14864     C
C      0.06395  0.58111  0.11618     C
H      0.06412  0.76235  0.85128     H
C       0.0643    0.793   0.6971     C
H      0.06468  0.99442  0.78188     H
O      0.06587  0.16771  0.89319     O
H       0.0691   0.1072   0.3591     H
H      0.06936  0.49057  0.34142     H
H      0.06948  0.25712  0.68459     H
H      0.07026  0.78746  0.00558     H
H      0.07063  0.39366  0.86072     H
H      0.07446  0.42571  0.16192     H
C       0.0748   0.7043   0.8699     C
C      0.07668  0.85935  0.67549     C
C      0.07696  0.66383  0.92285     C
H      0.07702  0.01994    0.249     H
C      0.07703   0.9264  0.25049     C
C      0.07867  0.66217  0.87474     C
O      0.07985  0.60805  0.43618     O
O      0.08155  0.06122  0.73783     O
O       0.0824    0.589   0.0878     O
C       0.0835  0.66217  0.78743     C
H      0.08372  0.81146  0.05451     H
H      0.08383  0.55262  0.44214     H
H       0.0839   0.8954    0.297     H
H       0.0846   0.4975   0.5659     H
C      0.08523  0.14864  0.53124     C
C       0.0859   0.7536   0.6984     C
H      0.08621  0.18341  0.67938     H
C      0.08687  0.66383  0.74098     C
H       0.0871   0.5025   0.0684     H
C       0.0874   0.6209   0.8351     C
H      0.08746  0.16192  0.73621     H
Zn     0.08766  0.35047  0.29038    Zn
C       0.0879   0.5927   0.5866     C
C       0.0887   0.7584   0.1032     C
O      0.09143  0.29478  0.30611     O
O       0.0925  0.31039  0.99151     O
H      0.09317  0.49597  0.67938     H
O       0.0938   0.2387   0.0437     O
H        0.094   0.3443    0.921     H
N      0.09482   0.7358  0.05866     N
O      0.09568  0.32033  0.22151     O
C       0.0965   0.2218   0.8702     C
H       0.0967   0.4203   0.9227     H
H      0.09694  0.09807  0.54552     H
H       0.0972  0.50403  0.18341     H
H       0.0986   0.2723   0.1367     H
C      0.09881  0.81614  0.67549     C
H      0.09943  0.13308  0.49417     H
C      0.09992  0.13902   0.8831     C
O      0.10099  0.00849  0.31888     O
H      0.10376  0.23673  0.74328     H
H      0.10386  0.44679  0.63599     H
H      0.10526  0.63891  0.50583     H
O       0.1062   0.2514   0.8619     O
O      0.10662  0.63294  0.59472     O
H      0.10833  0.87831  0.07005     H
H      0.10835  0.56526  0.13097     H
C      0.10908  0.43601  0.39003     C
C       0.1102  0.13008  0.84554     C
C       0.1125   0.9448   0.6984     C
H      0.11511  0.42747  0.68459     H
C      0.11697   0.5832  0.43584     C
O        0.117  0.59453  0.62407     O
C       0.1186   0.2996   0.1316     C
H       0.1201   0.4924   0.4591     H
H      0.12287  0.16568  0.84269     H
C       0.1253   0.3516   0.2218     C
O      0.12583  0.22151  0.90118     O
H      0.12653  0.19656   0.9593     H
C       0.1274   0.2893   0.0855     C
H       0.1277   0.5076   0.9667     H
H      0.12785  0.64154  0.17343     H
H      0.12821  0.56509  0.39795     H
C       0.1294  0.97766  0.28974     C
C       0.1295   0.7043   0.8344     C
O      0.13024  0.65346  0.94636     O
H       0.1318   0.5789   0.9605     H
C       0.1328   0.9041   0.6971     C
H      0.13297  0.49345  0.23673     H
C       0.1376   0.3468   0.1699     C
H       0.1379   0.8054    0.175     H
C      0.13831  0.45105  0.17342     C
H      0.13952  0.50655  0.74328     H
N      0.14098   0.7358  0.67714     N
O      0.14367  0.17187  0.56382     O
C       0.1438   0.4914  0.20119     C
C      0.14453  0.36833  0.93066     C
O       0.1449    0.195   0.2387     O
O       0.1452   0.3895   0.2514     O
C      0.14542  0.41347  0.93109     C
C       0.1461   0.7942    0.143     C
N      0.14639  0.41452  0.35755     N
C       0.1481   0.7942   0.6512     C
C      0.14862  0.47943  0.43583     C
H      0.14875  0.57429  0.73621     H
C      0.14886  0.44458  0.66556     C
C      0.15063  0.32409   0.0736     C
C      0.15174  0.31208  0.02234     C
H      0.15222  0.44935  0.13869     H
C       0.1524   0.5086  0.70979     C
H       0.1533   0.9764   0.7148     H
C      0.15411  0.07715  0.74098     C
O      0.15628  0.67661  0.73783     O
H      0.15707  0.55321   0.1892     H
C      0.16034  0.28974  0.31208     C
H      0.16044  0.15515  0.91357     H
H        0.161   0.0333   0.5409     H
C       0.1619   0.2038   0.2893     C
O       0.1624   0.1156   0.8429     O
C       0.1656   0.3815   0.1571     C
Zn      0.1665  0.67366  0.67517    Zn
H       0.1675   0.8054   0.6304     H
C       0.1677   0.7536   0.0552     C
C      0.16919  0.52057   0.9564     C
C       0.1697   0.7584   0.6552     C
H       0.1713   0.0395   0.6184     H
C       0.1717   0.3746   0.1106     C
H      0.17198    0.249  0.22906     H
H        0.173    0.079   0.4233     H
C      0.17307  0.56399  0.95402     C
C      0.17346  0.25049  0.32409     C
H       0.1737   0.1356   0.2723     H
H        0.174   0.0773   0.4976     H
H       0.1764   0.5797   0.5024     H
H       0.1769   0.7384   0.0236     H
H      0.17697  0.60634  0.46706     H
H      0.17728  0.23891  0.14759     H
O      0.17918  0.19207  0.16769     O
H       0.1805   0.7273   0.8429     H
C        0.181    0.168   0.2996     C
C      0.18113  0.14736  0.56416     C
O       0.1816   0.4381   0.1914     O
O      0.18388  0.05364   0.7071     O
H      0.18572  0.42008  0.64678     H
H       0.1872   0.9078   0.7117     H
C      0.18726  0.54895  0.72237     C
H      0.18764  0.57253  0.25712     H
H       0.1885   0.4016   0.1046     H
O      0.18966  0.48294  0.69413     O
C      0.19471  0.22044  0.23642     C
Zn     0.20272  0.29038  0.93991    Zn
H      0.20287  0.55065  0.68934     H
C       0.2029    0.264   0.3746     C
O      0.20335  0.98867  0.29478     O
C      0.20393  0.12526  0.78743     C
C      0.20428  0.55542  0.22098     C
C       0.2049   0.1301   0.8344     C
O      0.20672  0.51706  0.21119     O
C       0.2092   0.1769   0.3468     C
H      0.20991  0.13928  0.53294     H
H         0.21   0.7481   0.6409     H
N      0.21116  0.35755  0.94303     N
H      0.21246  0.15917  0.20119     H
C      0.21279   0.0436  0.56417     C
H       0.2131    0.297   0.4016     H
C      0.21387  0.06934  0.43767     C
C      0.21433  0.06891  0.48238     C
C      0.21445  0.21628  0.15645     C
O      0.21468  0.30611  0.01133     O
C       0.2159   0.2244   0.3815     C
H       0.2172  0.78746  0.78188     H
C      0.21729  0.19745  0.20446     C
C      0.21733  0.81614  0.14065     C
O      0.21789  0.31888  0.31039     O
C      0.21905  0.04598  0.60997     C
C       0.2203  0.44812  0.94408     C
H       0.2206   0.9078   0.1961     H
C      0.22378  0.49596  0.94408     C
C       0.2238  0.43767  0.36833     C
O      0.22465  0.09882  0.32033     O
C       0.2263   0.1298   0.3516     C
H      0.22774  0.81146  0.75695     H
C      0.22782  0.50404  0.44812     C
C       0.2287    0.793   0.0959     C
H      0.23002  0.19174  0.12169     H
H      0.23026  0.16714  0.60205     H
N      0.23187  0.58548  0.94303     N
C      0.23195  0.58653  0.51762     C
H      0.23436   0.7733  0.42008     H
Zn     0.23719  0.64953  0.93991    Zn
O       0.2435   0.5619   0.7533     O
O       0.2443   0.1381   0.3895     O
H      0.24603  0.24102  0.27342     H
C       0.2477   0.2142   0.8351     C
H       0.2497   0.6557   0.5767     H
H       0.2503   0.4233   0.3443     H
C       0.2523   0.1649   0.7858     C
H      0.25397  0.72658  0.75898     H
O       0.2557   0.6105   0.8619     O
O       0.2565   0.2467   0.4381     O
Zn     0.26281  0.06009  0.35047    Zn
H      0.26564  0.57992   0.2267     H
C      0.26805  0.48238  0.41347     C
N      0.26813  0.05697  0.41452     N
H      0.26974  0.39795  0.83286     H
H      0.26998  0.87831  0.80826     H
C       0.2713   0.9041    0.207     C
C      0.27218  0.55188  0.49596     C
H      0.27226  0.24305  0.18854     H
C       0.2737   0.6484   0.8702     C
O      0.27535  0.67967  0.90118     O
C       0.2762  0.63167  0.56233     C
C      0.27622  0.05592  0.50404     C
H       0.2794   0.8039   0.0922     H
C       0.2797  0.05592  0.55188     C
C      0.28095  0.39003  0.95402     C
O      0.28211  0.68961  0.68112     O
C      0.28267  0.85935  0.18386     C
C      0.28271  0.79554  0.80255     C
H       0.2828  0.21812  0.21254     H
C       0.2841   0.6185   0.7756     C
O      0.28532  0.98867  0.69389     O
C      0.28555  0.84355  0.78372     C
C      0.28567  0.51762  0.93109     C
C      0.28613  0.56233  0.93066     C
H       0.2869   0.5984    0.703     H
C      0.28721  0.43583   0.9564     C
H      0.28754  0.79881  0.84083     H
H      0.28833  0.09644   0.2078     H
N      0.28884  0.05697  0.64245     N
H         0.29   0.3591   0.2519     H
H      0.29009  0.46706  0.86072     H
C       0.2908   0.6532   0.8231     C
O      0.29328  0.78881  0.48294     O
C       0.2951   0.1656   0.8699     C
C      0.29572  0.77902  0.44458     C
C      0.29607  0.21257  0.87474     C
O      0.29665  0.70522  0.01133     O
C       0.2971   0.6254    0.736     C
H      0.29713  0.31066  0.44935     H
Zn     0.29728  0.06009  0.70962    Zn
C      0.30529  0.76358  0.77956     C
H      0.30872  0.13311  0.17567     H
O      0.31034  0.30587  0.51706     O
H       0.3115   0.8954   0.5984     H
H      0.31236  0.74288  0.42747     H
C      0.31274  0.27763  0.45105     C
H       0.3128   0.2883   0.0922     H
H      0.31428  0.35322  0.57992     H
O      0.31612   0.2929  0.94636     O
O       0.3184   0.8086   0.5619     O
C      0.31887  0.43584  0.85264     C
C        0.319   0.7004    0.832     C
H       0.3195   0.1571   0.2727     H
O      0.32082  0.83231  0.80793     O
H      0.32272  0.85241  0.76109     H
H      0.32303  0.53294  0.39366     H
H       0.3231   0.9764   0.2616     H
H       0.3236   0.4976   0.4203     H
H        0.326   0.5024   0.9227     H
H       0.3263   0.7277   0.8644     H
C      0.32654  0.67591  0.74951     C
C      0.32693  0.04598  0.43601     C
H        0.327   0.5767    0.921     H
H      0.32802  0.77094    0.751     H
C       0.3283   0.8894   0.6254     C
H       0.3287   0.3816   0.9605     H
C       0.3303   0.3448   0.2416     C
C      0.33081   0.0436  0.47943     C
C       0.3323   0.9448   0.2464     C
H       0.3325   0.3696   0.1946     H
Zn      0.3335  0.32483  0.32634    Zn
C       0.3344   0.8429   0.6185     C
C      0.33715  0.11755  0.19907     C
H       0.3376   0.1571   0.8844     H
C       0.3381   0.7107   0.7962     C
H        0.339   0.4591   0.9667     H
C      0.33966  0.68792  0.71026     C
H      0.34293   0.8108  0.44679     H
O      0.34372  0.26217  0.32339     O
C      0.34589  0.25902  0.92285     C
H       0.3467   0.2852   0.0236     H
C       0.3476  0.29021   0.4914     C
H      0.34778  0.86131  0.55065     H
C      0.34826  0.97766  0.68792     C
C      0.34937   0.9264  0.67591     C
C      0.35114  0.33444  0.55542     C
H      0.35125  0.26379  0.42571     H
C      0.35138  0.56417  0.52057     C
C       0.3519   0.3488   0.2058     C
N      0.35361  0.64245  0.58548     N
C       0.3539    0.857   0.2058     C
C      0.35458  0.06891  0.58653     C
O       0.3548   0.7486   0.6105     O
O       0.3551   0.7613    0.805     O
C      0.35547  0.06934  0.63167     C
C       0.3562  0.79881   0.5086     C
O      0.35633  0.43618  0.82813     O
H      0.35831  0.44214  0.88952     H
N      0.35902  0.32286   0.2642     N
H      0.36048  0.25672  0.49345     H
C      0.36169  0.82658  0.54895     C
H       0.3621    0.825   0.1946     H
C       0.3624   0.8301   0.6532     C
H      0.36703  0.76327  0.50655     H
C       0.3672   0.3029   0.0959     C
O      0.36778  0.09146  0.17766     O
H       0.3682   0.0395   0.4211     H
O      0.36976  0.05364  0.34654     O
C       0.3705   0.1656   0.2957     C
C       0.3706  0.71026  0.02234     C
H      0.37086  0.05872  0.21486     H
H      0.37179  0.60205  0.43491     H
H      0.37215  0.82657  0.35846     H
H       0.3723   0.0333   0.4924     H
C       0.3726   0.9145   0.7107     C
O      0.37417  0.09882  0.77849     O
C       0.3747   0.7782   0.6484     C
H       0.3799   0.5409   0.5076     H
C       0.3814   0.8684   0.7004     C
H      0.38294  0.14987  0.23572     H
O        0.383  0.37593  0.40547     O
C      0.38303  0.56416   0.4168     C
H      0.38489  0.31541  0.57253     H
C       0.3875   0.3016   0.0552     C
C      0.39092  0.60997  0.56399     C
H      0.39165  0.86903  0.43474     H
H      0.39167  0.92995  0.12169     H
O      0.39338  0.40528  0.36706     O
O       0.3938   0.1381   0.7486     O
H      0.39474  0.49417  0.36109     H
H      0.39614  0.36401  0.55321     H
H      0.39624  0.25672  0.76327     H
O      0.39901  0.68112  0.99151     O
H      0.40057  0.50583  0.86692     H
C      0.40119  0.32451  0.18386     C
H       0.4014   0.8633   0.7277     H
H       0.4028  0.81659  0.49597     H
H      0.40306  0.45448  0.90193     H
H       0.4033   0.0773   0.5797     H
C       0.4035   0.1298   0.7782     C
O      0.40432  0.77849  0.67967     O
N      0.40518  0.94134   0.2642     N
H        0.406    0.079   0.6557     H
O       0.4062   0.9563   0.7613     O
H      0.40683  0.32062  0.50403     H
O       0.4075  0.00849  0.68961     O
H      0.40761  0.35098  0.48507     H
O      0.40857  0.69389  0.70522     O
C      0.40892  0.08358  0.20405     C
C       0.4113   0.8968   0.2416     C
C       0.4121   0.4134   0.4073     C
Zn     0.41234  0.70962  0.64953    Zn
H      0.41254  0.26379  0.83808     H
C       0.4126   0.1649   0.3791     C
H       0.4129   0.9316   0.4975     H
C      0.41313  0.25902  0.33617     C
H      0.41379  0.32062  0.81659     H
C       0.4141   0.3016   0.2464     C
C      0.41477  0.46876  0.85136     C
H       0.4154   0.4341   0.5025     H
H       0.4161    0.703   0.1046     H
H      0.41628  0.94549  0.18854     H
C       0.4165  0.21257  0.33783     C
H      0.41749  0.15082  0.24374     H
O       0.4176   0.9122    0.411     O
H      0.41842  0.39995  0.46625     H
O      0.41845  0.26217  0.93878     O
O      0.42015  0.56382  0.39195     O
C      0.42133  0.12526  0.33783     C
C      0.42297  0.74951   0.0736     C
H      0.42298    0.751  0.98006     H
C      0.42304  0.07715  0.33617     C
C      0.42332  0.32451  0.14065     C
C       0.4252   0.1301   0.2957     C
H      0.42554  0.83808  0.57429     H
H      0.42937  0.13928  0.60634     H
H      0.42974  0.99442  0.21254     H
H      0.43052  0.31541  0.74288     H
H       0.4309   0.6409   0.8928     H
H       0.4325  0.77442  0.55891     H
H      0.43532  0.21812  0.00558     H
C       0.4357   0.3029    0.207     C
C      0.43605  0.88382  0.41889     C
C      0.43659  0.85136   0.3826     C
H      0.43688  0.16714  0.56509     H
H      0.43837  0.76109  0.90868     H
H       0.4385   0.2852   0.2616     H
C       0.4389    0.736   0.1106     C
C        0.442  0.94017  0.15645     C
C      0.44261  0.29021  0.79881     C
H      0.44292  0.01994  0.77094     H
C      0.44601  0.53124   0.3826     C
H      0.44671  0.15917  0.95798     H
H       0.4471   0.6184   0.5789     H
C      0.44734  0.12057  0.23936     C
C      0.44777  0.46493  0.88382     C
H      0.44858  0.54552  0.44745     H
C       0.4496   0.9595   0.4999     C
H      0.44968  0.06353  0.18429     H
C       0.4497   0.4596   0.5001     C
C      0.44981  0.37517  0.47549     C
O       0.4499    0.805   0.0437     O
H      0.45126  0.28376  0.38166     H
C       0.4516   0.4553   0.4572     C
O       0.4532   0.1156   0.2727     O
H       0.4541  0.30402  0.46447     H
H      0.45442  0.46811  0.82657     H
H      0.45691  0.43429  0.56526     H
C       0.4581   0.7962   0.0855     C
C      0.45829  0.98402  0.76358     C
C       0.4594   0.9617   0.4536     C
H      0.46106  0.64678   0.2267     H
H      0.46172  0.19174  0.07005     H
H       0.4619   0.1356   0.8633     H
H       0.4619   0.8928   0.2519     H
H       0.4629   0.6304    0.825     H
H      0.46381  0.87504   0.5554     H
N      0.46384  0.32286  0.05866     N
C      0.46489  0.27763  0.82658     C
O       0.4661  0.35055   0.4425     O
C      0.46623  0.14736   0.5832     C
H      0.46635  0.86692  0.36109     H
C       0.4665   0.2142   0.3791     C
C       0.4677   0.1769   0.8301     C
H      0.46787  0.36401   0.8108     H
H      0.46879  0.11048  0.55262     H
C      0.46973   0.8137  0.56967     C
H      0.47031  0.90868  0.14759     H
H      0.47079  0.24305  0.05451     H
O       0.4718  0.82813  0.39195     O
H      0.47261   0.9676  0.72658     H
O      0.47368  0.96178  0.36706     O
C      0.47427  0.77956  0.01598     C
H       0.4755   0.2883   0.1961     H
O      0.47678   0.2929  0.34654     O
H      0.47738  0.43429  0.86903     H
O      0.47753  0.97046  0.59453     O
O      0.47967  0.06122  0.32339     O
C      0.48016  0.19745  0.99299     C
H       0.4813   0.5659   0.0684     H
O      0.48182  0.81328  0.53597     O
C      0.48284  0.53507  0.41889     C
C       0.4833  0.33444  0.77902     C
C       0.4855   0.6552   0.8968     C
H      0.48631  0.53189  0.35846     H
H      0.48647  0.68934  0.13869     H
C        0.487    0.168   0.8684     C
O      0.48711  0.80793  0.97562     O
C      0.48717  0.00701  0.20446     C
O       0.4881  0.59472  0.96178     O
O      0.48851  0.97562  0.16769     O
H      0.48873  0.04202  0.20119     H
C       0.4901   0.5404   0.0405     C
O       0.4902   0.2467   0.8086     O
Zn     0.49133  0.32483  0.99849    Zn
C       0.4915   0.7756   0.1571     C
Zn     0.49284  0.00151  0.32634    Zn
O      0.49293  0.37593  0.97046     O
O       0.4934   0.4988    0.411     O
C       0.4942   0.4919   0.4536     C
C       0.4944   0.9981   0.5428     C
O       0.4946   0.5012   0.9122     O
H      0.49499  0.24102   0.9676     H
C      0.49513  0.32462  0.45115     C
C       0.4952   0.9939   0.4073     C
O      0.49553  0.30587  0.78881     O
C       0.4963   0.5447   0.0019     C
C       0.4969   0.3488    0.143     C
C       0.4977   0.4919   0.0383     C
C      0.49817  0.78372  0.94017     C
C       0.4987   0.5866   0.9939     C
H      0.49887  0.90193  0.44745     H
H      0.50113  0.09807  0.55255     H
C       0.5013   0.4134   0.0061     C
C      0.50183  0.21628  0.05983     C
C       0.5023   0.5081   0.9617     C
C       0.5031   0.6512    0.857     C
C       0.5037   0.4553   0.9981     C
O      0.50447  0.69413  0.21119     O
C      0.50469  0.29609  0.41574     C
C       0.5048   0.0061   0.5927     C
H      0.50501  0.75898   0.0324     H
O       0.5054   0.4988   0.0878     O
C       0.5056   0.0019   0.4572     C
C       0.5058   0.5081   0.5464     C
O       0.5066   0.5012    0.589     O
H      0.50666  0.39988  0.50903     H
O      0.50707  0.62407  0.02954     O
Zn     0.50716  0.99849  0.67366    Zn
C      0.50845  0.85352  0.54478     C
C       0.5085   0.2244   0.8429     C
Zn     0.50867  0.67517  0.00151    Zn
H      0.50958  0.13241  0.23603     H
O       0.5098   0.7533   0.1914     O
C       0.5099   0.4596   0.9595     C
O      0.51007  0.26287  0.41914     O
H      0.51127  0.95798  0.79881     H
O      0.51149  0.02438  0.83231     O
O       0.5119  0.40528  0.03822     O
C      0.51283  0.99299  0.79554     C
O      0.51289  0.19207  0.02438     O
C        0.513    0.832   0.1316     C
H      0.51353  0.31066  0.86131     H
H      0.51369  0.46811  0.64154     H
C       0.5145   0.3448   0.1032     C
C       0.5167  0.66556  0.22098     C
C      0.51716  0.46493  0.58111     C
H       0.5187   0.4341   0.9316     H
C      0.51984  0.80255  0.00701     C
O      0.52033  0.93878  0.67661     O
H      0.52135  0.85309  0.51028     H
O      0.52247  0.02954  0.40547     O
H      0.52262  0.56571  0.13097     H
O      0.52322   0.7071  0.65346     O
H       0.5245   0.7117   0.8039     H
C      0.52573  0.22044  0.98402     C
O      0.52632  0.03822  0.63294     O
H      0.52739   0.0324  0.27342     H
O       0.5282  0.17187  0.60805     O
H       0.5292  0.82586   0.5997     H
H      0.52921  0.75695  0.94549     H
H      0.52969  0.09132  0.85241     H
H      0.53121  0.88952  0.44738     H
H      0.53213  0.63599   0.1892     H
C       0.5323   0.8231   0.1699     C
C       0.5335   0.7858   0.6209     C
H      0.53365  0.13308  0.63891     H
C      0.53377  0.85264   0.4168     C
C      0.53511  0.72237  0.17342     C
N      0.53616  0.67714  0.94134     N
H       0.5371   0.3696    0.175     H
H       0.5381   0.1072   0.7481     H
H       0.5381   0.8644   0.1367     H
H      0.53828  0.80826  0.92995     H
H      0.53894  0.35322   0.7733     H
C       0.5406   0.0383   0.5464     C
C      0.54171  0.01598  0.23642     C
C       0.5419   0.2038   0.9145     C
H      0.54309  0.56571  0.43474     H
H      0.54558  0.53189  0.17343     H
H       0.5468   0.8844   0.7273     H
C       0.5484   0.5447   0.5428     C
O       0.5501    0.195   0.9563     O
C       0.5503   0.5404   0.4999     C
C       0.5504   0.0405   0.5001     C
H      0.55142  0.45448  0.55255     H
C      0.55223  0.53507  0.11618     C
H       0.5529   0.3816   0.4211     H
H      0.55329  0.84083  0.04202     H
C      0.55399  0.46876   0.6174     C
H      0.55459  0.89685   0.6138     H
H      0.55563  0.34785  0.48188     H
H      0.55708  0.98006  0.22906     H
C      0.55739  0.70979  0.20119     C
C        0.558  0.05983  0.84355     C
C       0.5611    0.264   0.8894     C
H       0.5615   0.7148   0.7384     H
H      0.56163  0.23891  0.09132     H
H      0.56215  0.31398  0.41093     H
H      0.56312  0.83286  0.43491     H
C      0.56341  0.14864   0.6174     C
C      0.56395  0.11618  0.58111     C
C       0.5643   0.6971    0.793     C
H      0.56468  0.78188  0.99442     H
C      0.56684   0.8727  0.57748     C
H       0.5691   0.3591   0.1072     H
H      0.56948  0.68459  0.25712     H
H      0.57026  0.00558  0.78746     H
H      0.57063  0.86072  0.39366     H
H      0.57446  0.16192  0.42571     H
C       0.5748   0.8699   0.7043     C
C      0.57668  0.67549  0.85935     C
C      0.57696  0.92285  0.66383     C
H      0.57702    0.249  0.01994     H
C      0.57703  0.25049   0.9264     C
C      0.57867  0.87474  0.66217     C
O      0.57985  0.43618  0.60805     O
O      0.58155  0.73783  0.06122     O
O       0.5824   0.0878    0.589     O
C       0.5835  0.78743  0.66217     C
H      0.58372  0.05451  0.81146     H
H       0.5839    0.297   0.8954     H
H       0.5846   0.5659   0.4975     H
C      0.58523  0.53124  0.14864     C
C       0.5859   0.6984   0.7536     C
H      0.58621  0.67938  0.18341     H
C      0.58687  0.74098  0.66383     C
H       0.5871   0.0684   0.5025     H
C       0.5874   0.8351   0.6209     C
H      0.58746  0.73621  0.16192     H
Zn     0.58766  0.29038  0.35047    Zn
C       0.5879   0.5866   0.5927     C
C       0.5887   0.1032   0.7584     C
O      0.59093  0.84373  0.58086     O
O      0.59143  0.30611  0.29478     O
O       0.5925  0.99151  0.31039     O
H      0.59317  0.67938  0.49597     H
O       0.5938   0.0437   0.2387     O
H        0.594    0.921   0.3443     H
N      0.59482  0.05866   0.7358     N
O      0.59568  0.22151  0.32033     O
C       0.5965   0.8702   0.2218     C
H       0.5967   0.9227   0.4203     H
H      0.59694  0.54552  0.09807     H
H       0.5972  0.18341  0.50403     H
H       0.5986   0.1367   0.2723     H
C      0.59881  0.67549  0.81614     C
H      0.59943  0.49417  0.13308     H
O      0.60099  0.31888  0.00849     O
H      0.60376  0.74328  0.23673     H
H      0.60386  0.63599  0.44679     H
H      0.60526  0.50583  0.63891     H
O       0.6062   0.8619   0.2514     O
O      0.60662  0.59472  0.63294     O
H      0.60833  0.07005  0.87831     H
H      0.60835  0.13097  0.56526     H
C      0.60908  0.39003  0.43601     C
C       0.6125   0.6984   0.9448     C
H      0.61274  0.89749  0.57041     H
H      0.61511  0.68459  0.42747     H
C      0.61697  0.43584   0.5832     C
O        0.617  0.62407  0.59453     O
C       0.6186   0.1316   0.2996     C
H       0.6201   0.4591   0.4924     H
C       0.6253   0.2218   0.3516     C
O      0.62583  0.90118  0.22151     O
C       0.6274   0.0855   0.2893     C
H       0.6277   0.9667   0.5076     H
H      0.62785  0.17343  0.64154     H
H      0.62821  0.39795  0.56509     H
C       0.6294  0.28974  0.97766     C
C       0.6295   0.8344   0.7043     C
O      0.63024  0.94636  0.65346     O
H       0.6318   0.9605   0.5789     H
C       0.6328   0.6971   0.9041     C
H      0.63297  0.23673  0.49345     H
C       0.6376   0.1699   0.3468     C
H       0.6379    0.175   0.8054     H
C      0.63831  0.17342  0.45105     C
H      0.63952  0.74328  0.50655     H
N      0.64098  0.67714   0.7358     N
H      0.64169  0.55786  0.11048     H
O      0.64367  0.56382  0.17187     O
C       0.6438  0.20119   0.4914     C
C      0.64453  0.93066  0.36833     C
O       0.6449   0.2387    0.195     O
O       0.6452   0.2514   0.3895     O
C      0.64542  0.93109  0.41347     C
C       0.6461    0.143   0.7942     C
N      0.64639  0.35755  0.41452     N
C       0.6481   0.6512   0.7942     C
C      0.64862  0.43583  0.47943     C
H      0.64875  0.73621  0.57429     H
C      0.64886  0.66556  0.44458     C
C      0.65063   0.0736  0.32409     C
C      0.65174  0.02234  0.31208     C
H      0.65222  0.13869  0.44935     H
C       0.6524  0.70979   0.5086     C
H       0.6533   0.7148   0.9764     H
C      0.65411  0.74098  0.07715     C
O      0.65628  0.73783  0.67661     O
H      0.65707   0.1892  0.55321     H
C      0.66034  0.31208  0.28974     C
H        0.661   0.5409   0.0333     H
C       0.6619   0.2893   0.2038     C
H       0.6624   0.8429   0.1156     H
H       0.6651  0.84939  0.78607     H
C       0.6656   0.1571   0.3815     C
Zn      0.6665  0.67517  0.67366    Zn
H       0.6675   0.6304   0.8054     H
C       0.6677   0.0552   0.7536     C
H       0.6689  0.90188  0.77255     H
H      0.66916  0.73038  0.22089     H
C      0.66919   0.9564  0.52057     C
C       0.6697   0.6552   0.7584     C
H       0.6713   0.6184   0.0395     H
C       0.6717   0.1106   0.3746     C
H      0.67198  0.22906    0.249     H
H        0.673   0.4233    0.079     H
C      0.67307  0.95402  0.56399     C
C      0.67346  0.32409  0.25049     C
H       0.6737   0.2723   0.1356     H
H        0.674   0.4976   0.0773     H
H       0.6764   0.5024   0.5797     H
H       0.6769   0.0236   0.7384     H
H      0.67697  0.46706  0.60634     H
H      0.67728  0.14759  0.23891     H
O      0.67918  0.16769  0.19207     O
O       0.6805   0.8429   0.7273     O
C        0.681   0.2996    0.168     C
C      0.68113  0.56416  0.14736     C
O       0.6816   0.1914   0.4381     O
O      0.68388   0.7071  0.05364     O
H      0.68493  0.77252  0.19395     H
H      0.68572  0.64678  0.42008     H
H      0.68673  0.81282  0.23993     H
H       0.6872   0.7117   0.9078     H
H      0.68725  0.92623  0.81094     H
C      0.68726  0.72237  0.54895     C
H      0.68764  0.25712  0.57253     H
H       0.6885   0.1046   0.4016     H
O      0.68966  0.69413  0.48294     O
C      0.69403   0.8697  0.76792     C
C      0.69471  0.23642  0.22044     C
Zn     0.70272  0.93991  0.29038    Zn
H      0.70287  0.68934  0.55065     H
C       0.7029   0.3746    0.264     C
O      0.70335  0.29478  0.98867     O
C      0.70393  0.78743  0.12526     C
C      0.70428  0.22098  0.55542     C
C       0.7049   0.8344   0.1301     C
O      0.70672  0.21119  0.51706     O
H      0.70698  0.68727  0.16944     H
C       0.7092   0.3468   0.1769     C
H      0.70991  0.53294  0.13928     H
H         0.71   0.6409   0.7481     H
N      0.71116  0.94303  0.35755     N
H      0.71246  0.20119  0.15917     H
C      0.71279  0.56417   0.0436     C
H       0.7131   0.4016    0.297     H
C      0.71387  0.43767  0.06934     C
C      0.71433  0.48238  0.06891     C
C      0.71445  0.15645  0.21628     C
O      0.71468  0.01133  0.30611     O
C      0.71565  0.75371  0.21274     C
C       0.7159   0.3815   0.2244     C
H       0.7172  0.78188  0.78746     H
C      0.71729  0.20446  0.19745     C
C      0.71733  0.14065  0.81614     C
O      0.71789  0.31039  0.31888     O
C      0.71905  0.60997  0.04598     C
C       0.7203  0.94408  0.44812     C
H       0.7206   0.1961   0.9078     H
C      0.72378  0.94408  0.49596     C
C       0.7238  0.36833  0.43767     C
O      0.72465  0.32033  0.09882     O
C       0.7263   0.3516   0.1298     C
H      0.72774  0.75695  0.81146     H
C      0.72782  0.44812  0.50404     C
C       0.7287   0.0959    0.793     C
H      0.73002  0.12169  0.19174     H
H      0.73026  0.60205  0.16714     H
N      0.73187  0.94303  0.58548     N
C      0.73195  0.51762  0.58653     C
H      0.73436  0.42008   0.7733     H
Zn     0.73719  0.93991  0.64953    Zn
O       0.7435   0.7533   0.5619     O
O       0.7443   0.3895   0.1381     O
C      0.74447  0.72821  0.18665     C
H      0.74603  0.27342  0.24102     H
O       0.7472  0.73713  0.15627     O
C       0.7477   0.8351   0.2142     C
H      0.74779  0.95681  0.87831     H
H       0.7497   0.5767   0.6557     H
C      0.74992  0.81973  0.26319     C
H       0.7503   0.3443   0.4233     H
C      0.75047  0.94039  0.83816     C
C       0.7523   0.7858   0.1649     C
H       0.7528  0.84373  0.26287     H
H      0.75318  0.83556  0.30438     H
H      0.75397  0.75898  0.72658     H
O       0.7557   0.8619   0.6105     O
O       0.7565   0.4381   0.2467     O
C      0.76197  0.88536  0.78686     C
Zn     0.76281  0.35047  0.06009    Zn
O      0.76405  0.78374  0.24949     O
H      0.76564   0.2267  0.57992     H
C      0.76805  0.41347  0.48238     C
N      0.76813  0.41452  0.05697     N
H      0.76974  0.83286  0.39795     H
H      0.76998  0.80826  0.87831     H
C       0.7713    0.207   0.9041     C
C      0.77218  0.49596  0.55188     C
H      0.77226  0.18854  0.24305     H
C       0.7737   0.8702   0.6484     C
O      0.77535  0.90118  0.67967     O
O      0.77565  0.90869   0.8293     O
C       0.7762  0.56233  0.63167     C
C      0.77622  0.50404  0.05592     C
H       0.7794   0.0922   0.8039     H
C       0.7797  0.55188  0.05592     C
C      0.78095  0.95402  0.39003     C
O      0.78211  0.68112  0.68961     O
C      0.78267  0.18386  0.85935     C
C      0.78271  0.80255  0.79554     C
H       0.7828  0.21254  0.21812     H
C       0.7841   0.7756   0.6185     C
H      0.78479  0.90133  0.11345     H
O      0.78532  0.69389  0.98867     O
C      0.78555  0.78372  0.84355     C
C      0.78567  0.93109  0.51762     C
C      0.78613  0.93066  0.56233     C
H       0.7869    0.703   0.5984     H
C      0.78721   0.9564  0.43583     C
H      0.78754  0.84083  0.79881     H
N      0.78884  0.64245  0.05697     N
H      0.78999  0.91008  0.77245     H
H         0.79   0.2519   0.3591     H
H      0.79009  0.86072  0.46706     H
H      0.79053  0.97073  0.83435     H
C       0.7908   0.8231   0.6532     C
O      0.79328  0.48294  0.78881     O
C       0.7951   0.8699   0.1656     C
C      0.79572  0.44458  0.77902     C
C      0.79607  0.87474  0.21257     C
O      0.79665  0.01133  0.70522     O
C       0.7971    0.736   0.6254     C
H      0.79713  0.44935  0.31066     H
Zn     0.79728  0.70962  0.06009    Zn
C      0.80529  0.77956  0.76358     C
H      0.80798   0.7345  0.20899     H
O      0.81034  0.51706  0.30587     O
H       0.8115   0.5984   0.8954     H
H      0.81236  0.42747  0.74288     H
C      0.81274  0.45105  0.27763     C
H       0.8128   0.0922   0.2883     H
H      0.81428  0.57992  0.35322     H
O      0.81612  0.94636   0.2929     O
O       0.8184   0.5619   0.8086     O
H      0.81866  0.97279  0.16569     H
C      0.81887  0.85264  0.43584     C
C        0.819    0.832   0.7004     C
H       0.8195   0.2727   0.1571     H
O      0.82082  0.80793  0.83231     O
H      0.82271  0.94652  0.18235     H
H      0.82272  0.76109  0.85241     H
H      0.82303  0.39366  0.53294     H
H       0.8231   0.2616   0.9764     H
H       0.8236   0.4203   0.4976     H
H        0.826   0.9227   0.5024     H
H       0.8263   0.8644   0.7277     H
C      0.82654  0.74951  0.67591     C
C      0.82693  0.43601  0.04598     C
H        0.827    0.921   0.5767     H
H      0.82802    0.751  0.77094     H
C       0.8283   0.6254   0.8894     C
H       0.8287   0.9605   0.3816     H
C       0.8303   0.2416   0.3448     C
C      0.83081  0.47943   0.0436     C
C       0.8323   0.2464   0.9448     C
H       0.8325   0.1946   0.3696     H
Zn      0.8335  0.32634  0.32483    Zn
C       0.8344   0.6185   0.8429     C
C      0.83504  0.91581  0.14981     C
O       0.8376   0.8844   0.1571     O
C       0.8381   0.7962   0.7107     C
H        0.839   0.9667   0.4591     H
C      0.83966  0.71026  0.68792     C
H      0.84282  0.00515  0.13015     H
H      0.84293  0.44679   0.8108     H
O      0.84372  0.32339  0.26217     O
C      0.84589  0.92285  0.25902     C
H       0.8467   0.0236   0.2852     H
C       0.8476   0.4914  0.29021     C
H      0.84778  0.55065  0.86131     H
C      0.84826  0.68792  0.97766     C
C      0.84937  0.67591   0.9264     C
C      0.85114  0.55542  0.33444     C
H      0.85125  0.42571  0.26379     H
C      0.85138  0.52057  0.56417     C
C       0.8519   0.2058   0.3488     C
N      0.85361  0.58548  0.64245     N
C       0.8539   0.2058    0.857     C
C      0.85458  0.58653  0.06891     C
O       0.8548   0.6105   0.7486     O
O       0.8551    0.805   0.7613     O
C      0.85547  0.63167  0.06934     C
C       0.8562   0.5086  0.79881     C
O      0.85633  0.82813  0.43618     O
N      0.85902   0.2642  0.32286     N
H      0.86048  0.49345  0.25672     H
C      0.86169  0.54895  0.82658     C
H       0.8621   0.1946    0.825     H
C       0.8624   0.6532   0.8301     C
H      0.86703  0.50655  0.76327     H
C       0.8672   0.0959   0.3029     C
C      0.86761  0.98767  0.15253     C
H       0.8682   0.4211   0.0395     H
O      0.86976  0.34654  0.05364     O
C       0.8705   0.2957   0.1656     C
C       0.8706  0.02234  0.71026     C
H      0.87179  0.43491  0.60205     H
H      0.87215  0.35846  0.82657     H
H       0.8723   0.4924   0.0333     H
C       0.8726   0.7107   0.9145     C
O      0.87417  0.77849  0.09882     O
C       0.8747   0.6484   0.7782     C
H       0.8799   0.5076   0.5409     H
C       0.8814   0.7004   0.8684     C
O        0.883  0.40547  0.37593     O
C      0.88303   0.4168  0.56416     C
H      0.88489  0.57253  0.31541     H
O      0.88737  0.95623  0.12834     O
C       0.8875   0.0552   0.3016     C
H      0.89022  0.79869  0.90095     H
C      0.89092  0.56399  0.60997     C
H      0.89165  0.43474  0.86903     H
H      0.89167  0.12169  0.92995     H
O      0.89338  0.36706  0.40528     O
O       0.8938   0.7486   0.1381     O
H      0.89474  0.36109  0.49417     H
C      0.89499  0.93184  0.14614     C
H      0.89614  0.55321  0.36401     H
H      0.89624  0.76327  0.25672     H
O      0.89901  0.99151  0.68112     O
H      0.90057  0.86692  0.50583     H
C      0.90119  0.18386  0.32451     C
H       0.9014   0.7277   0.8633     H
H       0.9028  0.49597  0.81659     H
H      0.90306  0.90193  0.45448     H
H       0.9033   0.5797   0.0773     H
C       0.9035   0.7782   0.1298     C
O      0.90432  0.67967  0.77849     O
N      0.90518   0.2642  0.94134     N
H        0.906   0.6557    0.079     H
O       0.9062   0.7613   0.9563     O
H      0.90683  0.50403  0.32062     H
O       0.9075  0.68961  0.00849     O
O      0.90857  0.70522  0.69389     O
H      0.91093  0.83532  0.86882     H
C       0.9113   0.2416   0.8968     C
C       0.9121   0.4073   0.4134     C
Zn     0.91234  0.64953  0.70962    Zn
H      0.91254  0.83808  0.26379     H
C       0.9126   0.3791   0.1649     C
H       0.9129   0.4975   0.9316     H
C      0.91313  0.33617  0.25902     C
H      0.91379  0.81659  0.32062     H
C       0.9141   0.2464   0.3016     C
C      0.91477  0.85136  0.46876     C
H       0.9154   0.5025   0.4341     H
H      0.91569  0.89971  0.12143     H
H       0.9161   0.1046    0.703     H
H      0.91617  0.44738  0.55786     H
H      0.91628  0.18854  0.94549     H
C       0.9165  0.33783  0.21257     C
O       0.9176    0.411   0.9122     O
O      0.91845  0.93878  0.26217     O
O      0.92015  0.39195  0.56382     O
H      0.92104  0.01733  0.18656     H
C      0.92133  0.33783  0.12526     C
C      0.92297   0.0736  0.74951     C
H      0.92298  0.98006    0.751     H
C      0.92304  0.33617  0.07715     C
C      0.92332  0.14065  0.32451     C
H      0.92398  0.21984  0.05108     H
C       0.9252   0.2957   0.1301     C
H      0.92554  0.57429  0.83808     H
H      0.92723  0.28404  0.06267     H
H      0.92937  0.60634  0.13928     H
H      0.92974  0.21254  0.99442     H
H      0.93052  0.74288  0.31541     H
H       0.9309   0.8928   0.6409     H
H      0.93532  0.00558  0.21812     H
C       0.9357    0.207   0.3029     C
C      0.93605  0.41889  0.88382     C
C      0.93659   0.3826  0.85136     C
H      0.93665  0.48716  0.36911     H
H      0.93688  0.56509  0.16714     H
H      0.93837  0.90868  0.76109     H
H       0.9385   0.2616   0.2852     H
C      0.93851  0.81772  0.89023     C
H      0.93857  0.45136   0.2522     H
C       0.9389   0.1106    0.736     C
H      0.94186  0.95563  0.18498     H
C        0.942  0.15645  0.94017     C
C      0.94261  0.79881  0.29021     C
H      0.94292  0.77094  0.01994     H
H      0.94298  0.75248  0.89797     H
C      0.94601   0.3826  0.53124     C
H      0.94671  0.95798  0.15917     H
H       0.9471   0.5789   0.6184     H
C      0.94777  0.88382  0.46493     C
H      0.94858  0.44745  0.54552     H
C       0.9496   0.4999   0.9595     C
C       0.9497   0.5001   0.4596     C
O       0.9499   0.0437    0.805     O
C       0.9516   0.4572   0.4553     C
O       0.9532   0.2727   0.1156     O
H      0.95442  0.82657  0.46811     H
C       0.9567  0.26175  0.07722     C
H      0.95691  0.56526  0.43429     H
C       0.9581   0.0855   0.7962     C
C      0.95829  0.76358  0.98402     C
C       0.9594   0.4536   0.9617     C
H      0.96106   0.2267  0.64678     H
H      0.96172  0.07005  0.19174     H
H       0.9619   0.2519   0.8928     H
H       0.9619   0.8633   0.1356     H
H       0.9629    0.825   0.6304     H
O      0.96344  0.78941  0.86609     O
N      0.96384  0.05866  0.32286     N
C      0.96489  0.82658  0.27763     C
C      0.96623   0.5832  0.14736     C
H      0.96635  0.36109  0.86692     H
C       0.9665   0.3791   0.2142     C
H      0.96739  0.71172  0.82798     H
C       0.9677   0.8301   0.1769     C
H      0.96787   0.8108  0.36401     H
H      0.97031  0.14759  0.90868     H
H      0.97071  0.44397  0.32401     H
H      0.97079  0.05451  0.24305     H
C      0.97165  0.51941   0.3657     C
O       0.9718  0.39195  0.82813     O
H      0.97261  0.72658   0.9676     H
O      0.97368  0.36706  0.96178     O
O      0.97426  0.50501  0.32671     O
C      0.97427  0.01598  0.77956     C
H       0.9755   0.1961   0.2883     H
O      0.97678  0.34654   0.2929     O
H      0.97738  0.86903  0.43429     H
O      0.97753  0.59453  0.97046     O
O      0.97967  0.32339  0.06122     O
C      0.98016  0.99299  0.19745     C
H       0.9813   0.0684   0.5659     H
C      0.98284  0.41889  0.53507     C
C       0.9833  0.77902  0.33444     C
C       0.9855   0.8968   0.6552     C
H      0.98631  0.35846  0.53189     H
H      0.98647  0.13869  0.68934     H
C        0.987   0.8684    0.168     C
O      0.98711  0.97562  0.80793     O
C      0.98717  0.20446  0.00701     C
O       0.9881  0.96178  0.59472     O
O      0.98851  0.16769  0.97562     O
H      0.98873  0.20119  0.04202     H
H       0.9888  0.84826  0.92575     H
C       0.9901   0.0405   0.5404     C
O       0.9902   0.8086   0.2467     O
C      0.99127  0.77194  0.88757     C
Zn     0.99133  0.99849  0.32483    Zn
C       0.9915   0.1571   0.7756     C
Zn     0.99284  0.32634  0.00151    Zn
O      0.99293  0.97046  0.37593     O
O       0.9934    0.411   0.4988     O
C       0.9942   0.4536   0.4919     C
C       0.9944   0.5428   0.9981     C
O       0.9946   0.9122   0.5012     O
H      0.99499   0.9676  0.24102     H
C       0.9952   0.4073   0.9939     C
O      0.99553  0.78881  0.30587     O
C       0.9963   0.0019   0.5447     C
C       0.9969    0.143   0.3488     C
C       0.9977   0.0383   0.4919     C
C      0.99817  0.94017  0.78372     C
C       0.9987   0.9939   0.5866     C
H      0.99887  0.44745  0.90193     H
