data_I
_chemical_name_common  '/Users/gianmarcoterrones/Research/MOFs/MOF_structures/water_stability_work_extra_structs/cleaned_from_CCDC/GIZNOT'
_cell_length_a  9.18840
_cell_length_b  9.18840
_cell_length_c 12.74300
_cell_angle_alpha 90.00000
_cell_angle_beta  90.00000
_cell_angle_gamma 120.00000
_space_group_name_H-M_alt      'P 1'


loop_
_space_group_symop_operation_xyz
  'x, y, z' 

loop_
_atom_site_label
_atom_site_fract_x
_atom_site_fract_y
_atom_site_fract_z
_atom_site_type_symbol
C          0.0   0.0969 0.66666667     C
N          0.0   0.3947 0.66666667     N
Cd         0.0 0.640115 0.66666667    Cd
C          0.0   0.9323 0.66666667     C
H       0.0388   0.8307   0.8821     H
C       0.0677   0.0677 0.33333333     C
O       0.0728   0.1922 0.28988333     O
C       0.0945   0.3713 0.59701667     C
C       0.0969      1.0      0.0     C
C       0.1003   0.2228 0.59572667     C
O       0.1194   0.9272 0.62321667     O
C       0.1225   0.8997  0.92906     C
H       0.1693   0.2081 0.54876667     H
O       0.1822   0.6462 0.53394667     O
O       0.1922   0.0728 0.37678333     O
C       0.1955    0.518 0.52223667     C
H       0.2081   0.1693   0.1179     H
O       0.2171   0.7159  0.78893     O
C       0.2228   0.1003  0.07094     C
C       0.2768   0.9055  0.93035     C
O       0.2841   0.5012 0.45559667     O
C       0.3225   0.8045  0.85557     C
O       0.3538    0.536 0.20061333     O
Cd    0.359885 0.359885 0.33333333    Cd
C       0.3713   0.0945  0.06965     C
N       0.3947      0.0      0.0     N
O        0.464   0.8178  0.86728     O
C        0.482   0.6775 0.18890333     C
O       0.4988   0.7829 0.12226333     O
O       0.5012   0.2841  0.21107     O
C        0.518   0.1955  0.14443     C
O        0.536   0.3538 0.46605333     O
N       0.6053   0.6053 0.33333333     N
C       0.6287   0.7232 0.26368333     C
Cd    0.640115      0.0      0.0    Cd
O       0.6462   0.1822  0.13272     O
C       0.6775    0.482 0.47776333     C
O       0.7159   0.2171 0.87773667     O
C       0.7232   0.6287 0.40298333     C
C       0.7772   0.8775 0.26239333     C
O       0.7829   0.4988 0.54440333     O
H       0.7919   0.9612 0.21543333     H
C       0.8045   0.3225 0.81109667     C
O       0.8078   0.8806  0.95655     O
O       0.8178    0.464 0.79938667     O
H       0.8307   0.0388 0.78456667     H
C       0.8775   0.7772 0.40427333     C
O       0.8806   0.8078 0.71011667     O
C       0.8997   0.1225 0.73760667     C
C       0.9031   0.9031 0.33333333     C
C       0.9055   0.2768 0.73631667     C
O       0.9272   0.1194  0.04345     O
C       0.9323      0.0      0.0     C
H       0.9612   0.7919 0.45123333     H
