data_I
_chemical_name_common  '/Users/gianmarcoterrones/Research/MOFs/MOF_structures/water_stability_work_extra_structs/cleaned_from_CCDC/HUFKOK'
_cell_length_a 26.33470
_cell_length_b 30.03320
_cell_length_c 31.51262
_cell_angle_alpha 77.30501
_cell_angle_beta  90.00000
_cell_angle_gamma 90.00000
_space_group_name_H-M_alt      'P 1'


loop_
_space_group_symop_operation_xyz
  'x, y, z' 

loop_
_atom_site_label
_atom_site_fract_x
_atom_site_fract_y
_atom_site_fract_z
_atom_site_type_symbol
Cd         0.0      0.0      0.0    Cd
Cd         0.0      0.5      0.5    Cd
C      0.00079  0.95015  0.53896     C
C       0.0008  0.55334  0.97321     C
H       0.0011   0.9796   0.5437     H
H       0.0033    0.687   0.0182     H
C       0.0063    0.792   0.1283     C
C      0.00937  0.69782  0.36166     C
H       0.0164   0.2012   0.4307     H
C      0.01692  0.85993  0.07106     C
H       0.0187   0.4409    0.637     H
H       0.0189   0.0697   0.8697     H
C      0.01937  0.60082  0.01333     C
H       0.0206   0.7689   0.1494     H
H       0.0224   0.7203   0.3392     H
C       0.0231  0.63252   0.4203     C
N      0.02452  0.11566  0.46836     N
C      0.02584  0.88743  0.52799     C
N      0.02638  0.38559  0.00544     N
H       0.0292   0.3953   0.7059     H
C      0.03012  0.36902  0.57125     C
H       0.0305   0.9021   0.9316     H
H       0.0306   0.1223   0.8037     H
C      0.03158  0.31192  0.98659     C
H       0.0335   0.2187   0.6711     H
H       0.0346   0.2922   0.8375     H
C       0.0351  0.13848  0.93499     C
O       0.0359  0.92656  0.01637     O
N      0.03612  0.56444  0.00168     N
H       0.0364   0.6156   0.0321     H
C       0.0376  0.82557  0.10353     C
C      0.03776  0.41591  0.03101     C
H       0.0381   0.6059   0.5563     H
H       0.0382   0.5668   0.5985     H
H       0.0384   0.2489   0.7059     H
H       0.0385    0.901   0.3955     H
H       0.0392   0.2624   0.8024     H
H       0.0392   0.5695   0.1352     H
O      0.04018   0.0139  0.93662     O
C      0.04111  0.07418  0.46279     C
C      0.04123  0.66635  0.38635     C
H       0.0414   0.4142   0.8719     H
H       0.0419   0.0934   0.6392     H
C      0.04236  0.30396  0.62976     C
O      0.04236  0.48895  0.56359     O
C      0.04262  0.19671  0.45096     C
O      0.04321  0.56848  0.47829     O
H       0.0434   0.3912   0.5486     H
N      0.04354    0.926  0.53285     N
H       0.0436     0.25   0.9723     H
C      0.04489  0.20701   0.8782     C
H       0.0455   0.4003   0.4305     H
H       0.0462    0.864   0.5225     H
H       0.0467   0.8962   0.8853     H
H       0.0468   0.6176   0.6018     H
H       0.0484   0.5223   0.1228     H
H       0.0493   0.1152    0.956     H
H       0.0506   0.0831    0.082     H
H       0.0508   0.1545   0.7279     H
C       0.0511  0.43373  0.64804     C
C      0.05113  0.07457  0.85747     C
H       0.0515   0.9144   0.4396     H
H       0.0518   0.3586   0.7795     H
C       0.0524  0.89321  0.04572     C
H       0.0525   0.9515   0.3961     H
C        0.053   0.5956   0.5845     C
H       0.0536   0.9434    0.898     H
C      0.05407  0.15392   0.4742     C
C       0.0547   0.9109   0.9086     C
C      0.05585  0.34765  0.99934     C
C      0.05681  0.23675  0.68425     C
C       0.0573  0.40665  0.68915     C
C      0.05785  0.27447  0.82392     C
C      0.05791  0.10557  0.81763     C
H       0.0582   0.3268   0.7462     H
C      0.05851  0.60076  0.44642     C
C       0.0592   0.9201   0.4091     C
C      0.05973  0.27406  0.98094     C
O      0.05994  0.46155  0.47088     O
H         0.06   0.1849    0.762     H
H       0.0612   0.3807   0.1986     H
C      0.06167  0.33788  0.59641     C
H       0.0618   0.4631   0.9163     H
C       0.0625   0.5444   0.1374     C
H       0.0627   0.2628   0.4426     H
O      0.06376   0.0292  0.03278     O
H       0.0638   0.3464   0.3911     H
C      0.06566  0.17067  0.91045     C
H       0.0657   0.0379   0.6034     H
H       0.0666   0.4155   0.0481     H
H       0.0708   0.1288   0.1287     H
C      0.07087  0.23359  0.45801     C
H       0.0722   0.4313   0.1325     H
H       0.0724   0.8249   0.1088     H
H       0.0734    0.574   0.6595     H
C      0.07347   0.4131  0.88443     C
H       0.0745   0.0649   0.4607     H
C      0.07482  0.09301  0.62853     C
H       0.0758   0.6678   0.3802     H
C       0.0759  0.34084  0.76685     C
C      0.07627  0.17105  0.74045     C
O      0.07698  0.27323  0.65178     O
C       0.0778  0.39912  0.41894     C
H       0.0779   0.0693   0.3187     H
O      0.07859  0.23798  0.85593     O
H        0.082   0.2678   0.2773     H
H       0.0821   0.3095    0.499     H
C      0.08328  0.08195  0.09348     C
C      0.08535  0.02015  0.92234     C
C      0.08573  0.44206   0.9113     C
H       0.0868   0.1876   0.2516     H
C      0.08716  0.47924  0.57664     C
H       0.0875   0.0279    0.387     H
C      0.08864  0.36682  0.39578     C
H       0.0887   0.3218   0.3284     H
C      0.08903  0.06011  0.60681     C
C      0.09242  0.05143  0.87841     C
O      0.09244  0.15691  0.65734     O
O       0.0929  0.35548  0.84907     O
H       0.0935   0.1855   0.0189     H
C      0.09358  0.14645  0.50255     C
C      0.09361  0.38977  0.18853     C
H       0.0941   0.2278   0.3177     H
C       0.0943  0.45061  0.62258     C
H       0.0953   0.2324   0.2154     H
C      0.09545  0.10982  0.12103     C
H       0.0964   0.3394   0.5912     H
C       0.0966    0.879   0.9431     C
H       0.0968   0.1429   0.1962     H
O      0.09915  0.88741  0.05071     O
C      0.10042  0.41988  0.14924     C
C      0.10046  0.20767  0.70514     C
H       0.1006   0.1689   0.9148     H
C      0.10073  0.30456   0.8022     C
H       0.1018    0.117   0.5175     H
C      0.10219  0.46603  0.45129     C
H        0.105   0.2819   0.3676     H
O      0.10521   0.6057  0.43975     O
C      0.10528  0.02237  0.05167     C
C        0.106  0.39664  0.70516     C
C       0.1062  0.11101  0.79921     C
C      0.10653  0.34618  0.00696     C
C       0.1087   0.5662   0.6588     C
C      0.10901  0.25023  0.29398     C
C      0.10936  0.38235  0.87628     C
O      0.10964  0.25519  0.75431     O
C      0.10967  0.06711  0.33189     C
H       0.1098   0.1858    0.159     H
C       0.1098   0.9096   0.9138     C
C      0.11001   0.1261  0.63464     C
C      0.11017  0.22805  0.48695     C
C        0.112  0.27253  0.98827     C
C      0.11216  0.20885  0.23674     C
C       0.1125   0.8983   0.8249     C
H       0.1132   0.5343   0.6714     H
N       0.1135  0.91017  0.40313     N
C       0.1144  0.43042  0.42541     C
H       0.1145   0.8961   0.3431     H
O      0.11516  0.58165  0.07316     O
C      0.11574  0.04215  0.37225     C
O      0.11604  0.50249  0.96275     O
O      0.11614  0.48003   0.0701     O
O      0.11624  0.14037  0.76056     O
H       0.1165   0.5248   0.1982     H
C       0.1166   0.9437   0.8291     C
O      0.11674  0.36959  0.74552     O
C      0.11736  0.30454  0.34281     C
C       0.1174   0.5889   0.5792     C
C      0.11741  0.30787  0.49963     C
Cd    0.118243 0.540686 0.015573    Cd
C       0.1185   0.5642   0.1124     C
C      0.11861  0.05204   0.0822     C
O       0.1192  0.99582  0.56199     O
C      0.12152  0.18392  0.50878     C
O      0.12232  0.89031  0.47571     O
H       0.1224   0.3702   0.0159     H
C      0.12404   0.1886   0.0037     C
C      0.12415  0.16228  0.18206     C
O      0.12431  0.00233  0.94136     O
O      0.12578  0.34284  0.25141     O
N       0.1259   0.5762   0.6152     N
Cd    0.126894 0.948773 0.000268    Cd
Cd    0.127134 0.944754 0.521305    Cd
O       0.1274  0.49149  0.55557     O
H       0.1276   0.3703   0.5105     H
H       0.1278   0.9471   0.3425     H
H       0.1279   0.5839   0.6751     H
C      0.12851  0.18581  0.67214     C
C      0.12924  0.32563  0.83485     C
Cd    0.129593 0.544509 0.495388    Cd
O      0.13058  0.99474  0.45963     O
O      0.13113  0.89933  0.95005     O
O      0.13228  0.59775  0.54215     O
N       0.1324   0.9219   0.8792     N
C      0.13269  0.44049  0.93085     C
C       0.1327  0.91595  0.35775     C
C      0.13458  0.30916  0.00144     C
O      0.13465  0.49675  0.45158     O
C      0.13668  0.37316  0.21302     C
C      0.13691  0.36501  0.37946     C
C      0.13718  0.05928  0.58995     C
O      0.13733   0.9931  0.04702     O
C       0.1385  0.23476  0.72594     C
H       0.1389   0.1204   0.0138     H
C       0.1392  0.27737  0.78131     C
C       0.1396   0.8974   0.4381     C
O      0.13964  0.22829  0.26685     O
C       0.1397  0.05669  0.85881     C
O      0.14061  0.11515  0.26937     O
H       0.1408   0.2091    0.648     H
H       0.1408   0.3022   0.8592     H
C      0.14088  0.26801  0.49341     C
C      0.14123  0.23131  0.98484     C
C       0.1428  0.44001  0.63969     C
C      0.14345  0.10988  0.13724     C
O      0.14361  0.60798  0.96982     O
N       0.1437   0.5545   0.1388     N
C      0.14416  0.34412  0.50658     C
C      0.14565  0.46924  0.96244     C
C      0.14605  0.28177  0.31155     C
C       0.1462  0.08653  0.81907     C
C       0.1482  0.41317  0.68093     C
H       0.1486   0.1791   0.5282     H
C      0.14915  0.43373  0.13397     C
C       0.1494   0.5332   0.1858     C
H       0.1501    0.319   0.1005     H
C      0.15042  0.08967  0.30995     C
C      0.15122  0.14915  0.00075     C
O      0.15137  0.88608  0.57752     O
C      0.15193  0.18382  0.21467     C
C      0.15316   0.0244  0.56545     C
O      0.15331    0.334  0.35625     O
H       0.1539   0.1503   0.4265     H
H        0.155   0.2579   0.7039     H
C       0.1563  0.46691  0.09078     C
H       0.1568   0.2552   0.8034     H
H       0.1573   0.1681   0.6858     H
C      0.15748  0.38049  0.89437     C
H       0.1584   0.3428   0.8213     H
C      0.15953  0.12592  0.61892     C
O       0.1603   0.1361  0.16475     O
C      0.16211  0.42821  0.40845     C
H       0.1639   0.2976   0.7642     H
C      0.16412  0.03634  0.39364     C
H       0.1642   0.2148   0.7419     H
H       0.1649   0.5546   0.2004     H
H       0.1673   0.0401   0.8725     H
C      0.16756  0.05266  0.09863     C
H       0.1682   0.9087   0.3584     H
C      0.16823  0.40931  0.92195     C
C      0.16856  0.31786  0.27387     C
H       0.1694   0.3087   0.0066     H
C      0.16955  0.00948  0.43855     C
H       0.1703   0.5065   0.1891     H
H       0.1713   0.4511   0.6233     H
O      0.17194  0.25312  0.16171     O
O      0.17215  0.21887   0.3679     O
C      0.17227  0.09261  0.59604     C
C      0.17314  0.39453  0.38674     C
H        0.174   0.6701   0.9097     H
H       0.1746   0.0706   0.9551     H
C      0.17771  0.14712  0.24922     C
H        0.178   0.0898   0.8059     H
C         0.18   0.0808  0.12644     C
H         0.18   0.8225   0.6347     H
H       0.1805   0.4062   0.6924     H
H       0.1813   0.4143   0.5501     H
H       0.1819   0.3604   0.8882     H
H       0.1833   0.1473   0.6235     H
O       0.1834  0.45891  0.98599     O
C      0.18387  0.38629  0.19829     C
C      0.18438  0.31956  0.10746     C
C      0.18637  0.23544  0.96146     C
H       0.1868   0.4494   0.4117     H
H       0.1877   0.3034   0.2543     H
C      0.18873  0.15473  0.42327     C
C      0.19005  0.41675   0.1591     C
C      0.19054  0.59891  0.97263     C
C        0.191  0.25412  0.33497     C
H        0.191   0.3382    0.285     H
C       0.1916   0.2677   0.4927     C
H       0.1923   0.0339   0.0908     H
C      0.19366  0.21616  0.19385     C
H       0.1938    0.161   0.2708     H
C       0.1939   0.9225   0.8785     C
C      0.19564  0.15349  0.97861     C
O      0.19614  0.02646  0.55034     O
C       0.1964   0.8924   0.4314     C
C      0.19697  0.34152  0.50768     C
H       0.1983   0.2642   0.9481     H
C      0.19835  0.88995  0.56826     C
C      0.19867  0.08491  0.32909     C
O      0.19983  0.47797  0.07952     O
H       0.2001   0.4079   0.9349     H
H       0.2021   0.8705   0.4138     H
H       0.2023   0.3758   0.0626     H
H       0.2037   0.1318   0.2359     H
C      0.20418   0.0583   0.3702     C
H       0.2048   0.0925   0.5845     H
C      0.20509  0.28633  0.14074     C
H       0.2055   0.9516   0.8624     H
O      0.20578  0.56341  0.99964     O
H        0.206   0.3919   0.3768     H
H       0.2061   0.9175   0.9079     H
H       0.2063   0.6273   0.4965     H
H       0.2066   0.8988   0.8652     H
C      0.20687  0.19074  0.39246     C
C      0.20728  0.07577  0.96405     C
H        0.208   0.8726   0.9841     H
H       0.2082    0.242   0.4877     H
H       0.2085   0.1003   0.4705     H
C      0.20888  0.66621  0.91349     C
N      0.20922  0.92702  0.01078     N
H       0.2105   0.9214   0.4171     H
H       0.2107   0.2415   0.3144     H
H       0.2111   0.2283    0.216     H
N      0.21195  0.56635  0.48158     N
C      0.21217  0.41217  0.53633     C
H       0.2122   0.3747   0.2147     H
H       0.2125   0.8822   0.4591     H
H       0.2126   0.0803   0.1378     H
H        0.213   0.2738   0.3474     H
C      0.21379  0.19679  0.95791     C
C      0.21428  0.82177  0.62781     C
O      0.21431   0.0036  0.45399     O
O      0.21496  0.92027   0.5375     O
C      0.21581  0.35336  0.08494     C
H       0.2183   0.1998   0.1801     H
C       0.2211   0.3053   0.4992     C
C      0.22158  0.12459  0.44988     C
H       0.2226    0.426   0.1495     H
N       0.2238  0.11406  0.97569     N
N      0.22565  0.37956  0.51433     N
C      0.22658  0.88978  0.99987     C
H       0.2266   0.0996   0.3141     H
C      0.22671   0.6306  0.94572     C
C      0.22696  0.60661  0.48663     C
H       0.2277   0.7191   0.8656     H
H       0.2305   0.7655   0.6738     H
C      0.23326  0.85487  0.59462     C
H       0.2364   0.0551   0.3827     H
C      0.24087  0.69567  0.88713     C
H       0.2437   0.8046   0.9977     H
H       0.2438   0.1996    0.942     H
C      0.24423  0.78743   0.6513     C
Cd    0.245117  0.49172 0.017449    Cd
H       0.2452   0.0177   0.9617     H
C      0.24635  0.04665  0.96769     C
H       0.2467   0.9659    0.047     H
C      0.24791  0.94077  0.03433     C
C      0.25209  0.44077  0.53433     C
H       0.2533   0.4659    0.547     H
C      0.25365  0.54665  0.46769     C
H       0.2548   0.5177   0.4617     H
Cd    0.254883  0.99172 0.517449    Cd
C      0.25577  0.28743   0.1513     C
H       0.2562   0.6996    0.442     H
H       0.2563   0.3046   0.4977     H
C      0.25913  0.19567  0.38713     C
H       0.2636   0.5551   0.8827     H
C      0.26674  0.35487  0.09462     C
H       0.2695   0.2655   0.1738     H
H       0.2723   0.2191   0.3656     H
C      0.27304  0.10661  0.98663     C
C      0.27329   0.1306  0.44572     C
H       0.2734   0.5996   0.8141     H
C      0.27342  0.38978  0.49987     C
N      0.27435  0.87956  0.01433     N
N       0.2762  0.61406  0.47569     N
H       0.2774    0.926   0.6495     H
C      0.27842  0.62459  0.94988     C
C       0.2789   0.8053   0.9992     C
H       0.2817   0.6998   0.6801     H
C      0.28419  0.85336  0.58494     C
O      0.28504  0.42027   0.0375     O
O      0.28569   0.5036  0.95399     O
C      0.28572  0.32177  0.12781     C
C      0.28621  0.69679  0.45791     C
H        0.287   0.7738   0.8474     H
H       0.2874   0.5803   0.6378     H
H       0.2875   0.3822   0.9591     H
H       0.2878   0.8747   0.7147     H
C      0.28783  0.91217  0.03633     C
N      0.28805  0.06635  0.98158     N
H       0.2889   0.7283    0.716     H
H       0.2893   0.7415   0.8144     H
H       0.2895   0.4214   0.9171     H
N      0.29078  0.42702  0.51078     N
C      0.29112  0.16621  0.41349     C
H       0.2915   0.6003   0.9705     H
H       0.2918    0.742   0.9877     H
H        0.292   0.3726   0.4841     H
C      0.29272  0.57577  0.46405     C
C      0.29313  0.69074  0.89246     C
H       0.2934   0.3988   0.3652     H
H       0.2937   0.1273   0.9965     H
H       0.2939   0.4175   0.4079     H
H        0.294   0.8919   0.8768     H
O      0.29422  0.06341  0.49964     O
H       0.2945   0.4516   0.3624     H
C      0.29491  0.78633  0.64074     C
H       0.2952   0.5925   0.0845     H
C      0.29582   0.5583   0.8702     C
H       0.2963   0.6318   0.7359     H
H       0.2977   0.8758   0.5626     H
H       0.2979   0.3705   0.9138     H
H       0.2999   0.9079   0.4349     H
O      0.30017  0.97797  0.57952     O
C      0.30133  0.58491  0.82909     C
C      0.30165  0.38995  0.06826     C
H       0.3017   0.7642   0.4481     H
C      0.30303  0.84152  0.00768     C
C       0.3036   0.3924   0.9314     C
O      0.30386  0.52646  0.05034     O
C      0.30436  0.65349  0.47861     C
C       0.3061   0.4225   0.3785     C
H       0.3062    0.661   0.7708     H
C      0.30634  0.71616  0.69385     C
H       0.3077   0.5339   0.5908     H
C       0.3084   0.7677   0.9927     C
C        0.309  0.75412  0.83497     C
H        0.309   0.8382    0.785     H
C      0.30946  0.09891  0.47263     C
C      0.30995  0.91675   0.6591     C
C      0.31127  0.65473  0.92327     C
H       0.3123   0.8034   0.7543     H
H       0.3132   0.9494   0.9117     H
C      0.31363  0.73544  0.46146     C
C      0.31562  0.81956  0.60746     C
C      0.31613  0.88629  0.69829     C
O       0.3166  0.95891  0.48599     O
H       0.3167   0.6473   0.1235     H
H       0.3181   0.8604   0.3882     H
H       0.3187   0.9143   0.0501     H
H       0.3195   0.9062   0.1924     H
H         0.32   0.3225   0.1347     H
C         0.32   0.5808  0.62644     C
H        0.322   0.5898   0.3059     H
C      0.32229  0.64712  0.74922     C
H       0.3254   0.5706   0.4551     H
H        0.326   0.1701   0.4097     H
C      0.32686  0.89453  0.88674     C
C      0.32773  0.59261  0.09604     C
O      0.32785  0.71887   0.8679     O
O      0.32806  0.75312  0.66171     O
H       0.3287   0.9511   0.1233     H
H       0.3297   0.0065   0.6891     H
C      0.33045  0.50948  0.93855     C
H       0.3306   0.8087   0.5066     H
C      0.33144  0.81786  0.77387     C
C      0.33177  0.90931  0.42195     C
H       0.3318   0.4087   0.8584     H
C      0.33244  0.55266  0.59863     C
H       0.3327   0.5401   0.3725     H
H       0.3351   0.0546   0.7004     H
H       0.3358   0.7148   0.2419     H
C      0.33588  0.53634  0.89364     C
H       0.3361   0.7976   0.2642     H
C      0.33789  0.92821  0.90845     C
O       0.3397   0.6361  0.66475     O
C      0.34047  0.62592  0.11892     C
H       0.3416   0.8428   0.3213     H
C      0.34252  0.88049  0.39437     C
H       0.3427   0.6681   0.1858     H
H       0.3432   0.7552   0.3034     H
C       0.3437  0.96691  0.59078     C
H        0.345   0.7579   0.2039     H
H       0.3461   0.6503   0.9265     H
O      0.34669    0.834  0.85625     O
C      0.34684   0.5244  0.06545     C
C      0.34807  0.68382  0.71467     C
O      0.34863  0.38608  0.07752     O
C      0.34878  0.64915  0.50075     C
C      0.34958  0.58967  0.80995     C
H       0.3499    0.819   0.6005     H
C       0.3506   0.0332   0.6858     C
C      0.35085  0.93373  0.63397     C
H       0.3514   0.6791   0.0282     H
C       0.3518  0.91317  0.18093     C
C       0.3538  0.58653  0.31907     C
C      0.35395  0.78177  0.81155     C
C      0.35435  0.96924  0.46244     C
C      0.35584  0.84412  0.00658     C
N       0.3563   0.0545   0.6388     N
O      0.35639  0.10798  0.46982     O
C      0.35655  0.60988  0.63724     C
C       0.3572  0.94001  0.13969     C
C      0.35877  0.73131  0.48484     C
C      0.35912  0.76801  0.99341     C
H       0.3592   0.7091    0.148     H
H       0.3592   0.8022   0.3592     H
O      0.35939  0.61515  0.76937     O
C       0.3603  0.55669  0.35881     C
O      0.36036  0.72829  0.76685     O
C       0.3604   0.3974   0.9381     C
C       0.3608  0.77737  0.28131     C
H       0.3611   0.6204   0.5138     H
C       0.3615  0.73476  0.22594     C
O      0.36267   0.4931  0.54702     O
C      0.36282  0.55928  0.08995     C
C      0.36309  0.86501  0.87946     C
C      0.36332  0.87316  0.71302     C
O      0.36535  0.99675  0.95158     O
C      0.36542  0.80916  0.50144     C
C       0.3673  0.41595  0.85775     C
C      0.36731  0.94049  0.43085     C
N       0.3676   0.4219   0.3792     N
O      0.36772  0.09775  0.04215     O
O      0.36887  0.39933  0.45005     O
O      0.36942  0.49474  0.95963     O
Cd    0.370407 0.044509 0.995388    Cd
C      0.37076  0.82563  0.33485     C
C      0.37149  0.68581  0.17214     C
H       0.3721   0.0839   0.1751     H
H       0.3722   0.4471   0.8425     H
H       0.3724   0.8703   0.0105     H
O       0.3726  0.99149  0.05557     O
Cd    0.372866 0.444754 0.021305    Cd
Cd    0.373106 0.448773 0.500268    Cd
N       0.3741   0.0762   0.1152     N
O      0.37422  0.84284  0.75141     O
O      0.37569  0.50233  0.44136     O
C      0.37585  0.66228  0.68206     C
C      0.37596   0.6886   0.5037     C
H       0.3776   0.8702   0.5159     H
O      0.37768  0.39031  0.97571     O
C      0.37848  0.68392  0.00878     C
O       0.3808  0.49582  0.06199     O
C      0.38139  0.55204   0.5822     C
C       0.3815   0.0642   0.6124     C
Cd    0.381757 0.040686 0.515573    Cd
C      0.38259  0.80787  0.99963     C
C       0.3826   0.0889   0.0792     C
C      0.38264  0.80454  0.84281     C
O      0.38326  0.86959  0.24552     O
C       0.3834   0.4437   0.3291     C
H       0.3835   0.0248   0.6982     H
O      0.38376  0.64037  0.26056     O
O      0.38386  0.98003   0.5701     O
O      0.38396  0.00249  0.46275     O
C      0.38426  0.54215  0.87225     C
O      0.38484  0.08165  0.57316     O
H       0.3855   0.3961   0.8431     H
C       0.3856  0.93042  0.92541     C
N       0.3865  0.41017  0.90313     N
H       0.3868   0.0343   0.1714     H
C       0.3875   0.3983   0.3249     C
C      0.38784  0.70885  0.73674     C
C        0.388  0.77253  0.48827     C
C      0.38983  0.72805  0.98695     C
C      0.38999   0.6261  0.13464     C
C       0.3902   0.4096   0.4138     C
H       0.3902   0.6858    0.659     H
C      0.39033  0.56711  0.83189     C
O      0.39036  0.75519  0.25431     O
C      0.39064  0.88235  0.37628     C
C      0.39099  0.75023  0.79398     C
C       0.3913   0.0662   0.1588     C
C      0.39347  0.84618  0.50696     C
C       0.3938  0.61101  0.29921     C
C        0.394  0.89664  0.20516     C
C      0.39472  0.52237  0.55167     C
O      0.39479   0.1057  0.93975     O
H        0.395   0.7819   0.8676     H
C      0.39781  0.96603  0.95129     C
H       0.3982    0.617   0.0175     H
C      0.39927  0.80456   0.3022     C
H       0.3994   0.6689   0.4148     H
C      0.39954  0.70767  0.20514     C
C      0.39958  0.91988  0.64924     C
O      0.40085  0.38741  0.55071     O
H       0.4032   0.6429   0.6962     H
C       0.4034    0.379   0.4431     C
H       0.4036   0.8394   0.0912     H
C      0.40455  0.60982  0.62103     C
H       0.4047   0.7324   0.7154     H
C       0.4057  0.95061  0.12258     C
H       0.4059   0.7278   0.8177     H
C      0.40639  0.88977  0.68853     C
C      0.40642  0.64645  0.00255     C
H       0.4065   0.6855   0.5189     H
O       0.4071  0.85548  0.34907     O
O      0.40756  0.65691  0.15734     O
C      0.40758  0.55143  0.37841     C
C      0.41097  0.56011  0.10681     C
H       0.4113   0.8218   0.8284     H
C      0.41136  0.86682  0.89578     C
H       0.4125   0.5279    0.887     H
C      0.41284  0.97924  0.07664     C
H       0.4132   0.6876   0.7516     H
C      0.41427  0.94206   0.4113     C
C      0.41465  0.52015  0.42234     C
C      0.41672  0.58195  0.59348     C
H       0.4179   0.8095    0.999     H
H        0.418   0.7678   0.7773     H
O      0.42141  0.73798  0.35593     O
H       0.4221   0.5693   0.8187     H
C       0.4222  0.89912  0.91894     C
O      0.42302  0.77323  0.15178     O
C      0.42373  0.67105  0.24045     C
C       0.4241  0.84084  0.26685     C
H       0.4242   0.1678   0.8802     H
C      0.42518  0.59301  0.12853     C
H       0.4255   0.5649   0.9607     H
C      0.42653   0.9131  0.38443     C
H       0.4266    0.074   0.1595     H
H       0.4276   0.3249   0.6088     H
H       0.4278   0.9313   0.6325     H
C      0.42913  0.73359  0.95801     C
H       0.4292   0.6288   0.6287     H
H       0.4334   0.9155   0.5481     H
H       0.4343   0.5379   0.1034     H
C      0.43434  0.67067  0.41045     C
H       0.4362   0.8464   0.8911     H
O      0.43624   0.5292  0.53278     O
H       0.4373   0.7628   0.9426     H
C       0.4375   0.0444   0.6374     C
H       0.4382   0.9631   0.4163     H
C      0.43833  0.83788  0.09641     C
H       0.4388   0.8807   0.6986     H
H         0.44   0.6849    0.262     H
O      0.44006  0.96155  0.97088     O
C      0.44027  0.77406  0.48094     C
C       0.4408   0.4201   0.9091     C
C      0.44149  0.10076  0.94642     C
H       0.4418   0.8268   0.2462     H
C      0.44209  0.60557  0.31763     C
C      0.44215  0.77447  0.32392     C
C       0.4427  0.90665  0.18915     C
C      0.44319  0.73675  0.18425     C
C      0.44415  0.84765  0.49934     C
C       0.4453   0.4109   0.4086     C
C      0.44593  0.65392   0.9742     C
H       0.4464   0.4434    0.398     H
C        0.447   0.0956   0.0845     C
H       0.4475   0.4515   0.8961     H
C       0.4476  0.39321  0.54572     C
H       0.4482   0.8586   0.2795     H
H       0.4485   0.4144   0.9396     H
C      0.44887  0.57457  0.35747     C
C       0.4489  0.93373  0.14804     C
H       0.4492   0.6545   0.2279     H
H       0.4494   0.5831    0.582     H
H       0.4507   0.6152    0.456     H
H       0.4516   0.0223   0.6228     H
H       0.4532   0.1176   0.1018     H
H       0.4533   0.3962   0.3853     H
H       0.4538    0.364   0.0225     H
H       0.4545   0.9003   0.9305     H
C      0.45511  0.70701   0.3782     C
H       0.4564     0.75   0.4723     H
N      0.45646    0.426  0.03285     N
H       0.4566   0.8912   0.0486     H
O      0.45679  0.06848  0.97829     O
C      0.45738  0.69671  0.95096     C
C      0.45764  0.80396  0.12976     C
O      0.45764  0.98895  0.06359     O
H       0.4581   0.5934   0.1392     H
H       0.4586   0.9142   0.3719     H
C      0.45877  0.16635  0.88635     C
C      0.45889  0.57418  0.96279     C
O      0.45982   0.5139  0.43662     O
H       0.4608   0.0695   0.6352     H
H       0.4608   0.7624   0.3024     H
H       0.4615    0.401   0.8955     H
H       0.4616   0.7489   0.2059     H
H       0.4618   0.0668   0.0985     H
H       0.4619   0.1059   0.0563     H
C      0.46224  0.91591  0.53101     C
C       0.4624  0.32557  0.60353     C
H       0.4636   0.1156   0.5321     H
N      0.46388  0.06444  0.50168     N
O       0.4641  0.42656  0.51637     O
C       0.4649  0.63848  0.43499     C
H       0.4654   0.7922   0.3375     H
H       0.4665   0.7187   0.1711     H
C      0.46842  0.81192  0.48659     C
H       0.4694   0.6223   0.3037     H
H       0.4695   0.4021   0.4316     H
C      0.46988  0.86902  0.07125     C
H       0.4708   0.8953   0.2059     H
N      0.47362  0.88559  0.50544     N
C      0.47416  0.38743  0.02799     C
N      0.47548  0.61566  0.96836     N
C       0.4769  0.13252   0.9203     C
H       0.4776   0.2203   0.8392     H
H       0.4794   0.2689   0.6494     H
C      0.48063  0.10082  0.51333     C
H       0.4811   0.5697   0.3697     H
H       0.4813   0.9409    0.137     H
C      0.48308  0.35993  0.57106     C
H       0.4836   0.7012   0.9307     H
C      0.49063  0.19782  0.86166     C
C       0.4937    0.292   0.6283     C
H       0.4967    0.187   0.5182     H
H       0.4989   0.4796   0.0437     H
C       0.4992  0.05334  0.47321     C
C      0.49921  0.45015  0.03896     C
Cd         0.5      0.5      0.5    Cd
Cd         0.5      1.0      1.0    Cd
C      0.50079  0.54985  0.96104     C
C       0.5008  0.94666  0.52679     C
H       0.5011   0.5204   0.9563     H
H       0.5033    0.813   0.4818     H
C       0.5063    0.708   0.3717     C
C      0.50937  0.80218  0.13834     C
H       0.5164   0.2988   0.0693     H
C      0.51692  0.64007  0.42894     C
H       0.5187   0.0591    0.863     H
H       0.5189   0.4303   0.6303     H
C      0.51937  0.89918  0.48667     C
H       0.5206   0.7311   0.3506     H
H       0.5224   0.7797   0.1608     H
C       0.5231  0.86748   0.0797     C
N      0.52452  0.38434  0.03164     N
C      0.52584  0.61257  0.97201     C
N      0.52638  0.11441  0.49456     N
H       0.5292   0.1047   0.7941     H
C      0.53012  0.13098  0.92875     C
H       0.5305   0.5979   0.5684     H
H       0.5306   0.3777   0.6963     H
C      0.53158  0.18808  0.51341     C
H       0.5335   0.2813   0.8289     H
H       0.5346   0.2078   0.6625     H
C       0.5351  0.36152  0.56501     C
O       0.5359  0.57344  0.48363     O
N      0.53612  0.93556  0.49832     N
H       0.5364   0.8844   0.4679     H
C       0.5376  0.67443  0.39647     C
C      0.53776  0.08409  0.46899     C
H       0.5381   0.8941   0.9437     H
H       0.5382   0.9332   0.9015     H
H       0.5384   0.2511   0.7941     H
H       0.5385    0.599   0.1045     H
H       0.5392   0.2376   0.6976     H
H       0.5392   0.9305   0.3648     H
O      0.54018   0.4861  0.56338     O
C      0.54111  0.42582  0.03721     C
C      0.54123  0.83365  0.11365     C
H       0.5414   0.0858   0.6281     H
H       0.5419   0.4066   0.8608     H
O      0.54236  0.01105  0.93641     O
C      0.54236  0.19604  0.87024     C
C      0.54262  0.30329  0.04904     C
O      0.54321  0.93152  0.02171     O
H       0.5434   0.1088   0.9514     H
N      0.54354    0.574  0.96715     N
H       0.5436     0.25   0.5277     H
C      0.54489  0.29299   0.6218     C
H       0.5455   0.0997   0.0695     H
H       0.5462    0.636   0.9775     H
H       0.5467   0.6038   0.6147     H
H       0.5468   0.8824   0.8982     H
H       0.5484   0.9777   0.3772     H
H       0.5493   0.3848    0.544     H
H       0.5506   0.4169    0.418     H
H       0.5508   0.3455   0.7721     H
C       0.5511  0.06627  0.85196     C
C      0.55113  0.42543  0.64253     C
H       0.5515   0.5856   0.0604     H
H       0.5518   0.1414   0.7205     H
C       0.5524  0.60679  0.45428     C
H       0.5525   0.5485   0.1039     H
C        0.553   0.9044   0.9155     C
H       0.5536   0.5566    0.602     H
C      0.55407  0.34608   0.0258     C
C       0.5547   0.5891   0.5914     C
C      0.55585  0.15235  0.50066     C
C      0.55681  0.26325  0.81575     C
C       0.5573  0.09335  0.81085     C
C      0.55785  0.22553  0.67608     C
C      0.55791  0.39443  0.68237     C
H       0.5582   0.1732   0.7538     H
C      0.55851  0.89924  0.05358     C
C       0.5592   0.5799   0.0909     C
C      0.55973  0.22594  0.51906     C
O      0.55994  0.03845  0.02912     O
H         0.56   0.3151    0.738     H
H       0.5612   0.1193   0.3014     H
C      0.56167  0.16212  0.90359     C
H       0.5618   0.0369   0.5837     H
C       0.5625   0.9556   0.3626     C
H       0.5627   0.2372   0.0574     H
O      0.56376   0.4708  0.46722     O
H       0.5638   0.1536   0.1089     H
C      0.56566  0.32933  0.58955     C
H       0.5657   0.4621   0.8966     H
H       0.5666   0.0845   0.4519     H
H       0.5708   0.3712   0.3713     H
C      0.57087  0.26641  0.04199     C
H       0.5722   0.0687   0.3675     H
H       0.5724   0.6751   0.3912     H
H       0.5734    0.926   0.8405     H
C      0.57347   0.0869  0.61557     C
H       0.5745   0.4351   0.0393     H
C      0.57482  0.40699  0.87147     C
H       0.5758   0.8322   0.1198     H
C       0.5759  0.15916  0.73315     C
C      0.57627  0.32895  0.75955     C
O      0.57698  0.22677  0.84822     O
C       0.5778  0.10088  0.08106     C
H       0.5779   0.4307   0.1813     H
O      0.57859  0.26202  0.64407     O
H        0.582   0.2322   0.2227     H
H       0.5821   0.1905    0.001     H
C      0.58328  0.41805  0.40652     C
C      0.58535  0.47985  0.57766     C
C      0.58573  0.05794   0.5887     C
H       0.5868   0.3124   0.2484     H
C      0.58716  0.02076  0.92336     C
H       0.5875   0.4721    0.113     H
C      0.58864  0.13318  0.10422     C
H       0.5887   0.1782   0.1716     H
C      0.58903  0.43989  0.89319     C
C      0.59242  0.44857  0.62159     C
O      0.59244  0.34309  0.84266     O
O       0.5929  0.14452  0.65093     O
H       0.5935   0.3145   0.4811     H
C      0.59358  0.35355  0.99745     C
C      0.59361  0.11023  0.31147     C
H       0.5941   0.2722   0.1823     H
C       0.5943  0.04939  0.87742     C
H       0.5953   0.2676   0.2846     H
C      0.59545  0.39018  0.37897     C
H       0.5964   0.1606   0.9088     H
C       0.5966    0.621   0.5569     C
H       0.5968   0.3571   0.3038     H
O      0.59915  0.61259  0.44929     O
C      0.60042  0.08012  0.35076     C
C      0.60046  0.29233  0.79486     C
H       0.6006   0.3311   0.5852     H
C      0.60073  0.19544   0.6978     C
H       0.6018    0.383   0.9825     H
C      0.60219  0.03397  0.04871     C
H        0.605   0.2181   0.1324     H
O      0.60521   0.8943  0.06025     O
C      0.60528  0.47763  0.44833     C
C        0.606  0.10336  0.79484     C
C       0.6062  0.38899  0.70079     C
C      0.60653  0.15382  0.49304     C
C       0.6087   0.9338   0.8412     C
C      0.60901  0.24977  0.20602     C
C      0.60936  0.11765  0.62372     C
O      0.60964  0.24481  0.74569     O
C      0.60967  0.43289  0.16811     C
H       0.6098   0.3142    0.341     H
C       0.6098   0.5904   0.5862     C
C      0.61001   0.3739  0.86536     C
C      0.61017  0.27195  0.01305     C
C        0.612  0.22747  0.51173     C
C      0.61216  0.29115  0.26326     C
C       0.6125   0.6017   0.6751     C
H       0.6132   0.9657   0.8286     H
N       0.6135  0.58983  0.09687     N
C       0.6144  0.06958  0.07459     C
H       0.6145   0.6039   0.1569     H
O      0.61516  0.91835  0.42684     O
C      0.61574  0.45785  0.12775     C
O      0.61604  0.99751  0.53725     O
O      0.61614  0.01997   0.4299     O
O      0.61624  0.35963  0.73944     O
H       0.6165   0.9752   0.3018     H
C       0.6166   0.5563   0.6709     C
O      0.61674  0.13041  0.75448     O
C      0.61736  0.19546  0.15719     C
C       0.6174   0.9111   0.9208     C
C      0.61741  0.19213  0.00037     C
Cd    0.618243 0.959314 0.484427    Cd
C       0.6185   0.9358   0.3876     C
C      0.61861  0.44796   0.4178     C
O       0.6192  0.50418  0.93801     O
C      0.62152  0.31608  0.99122     C
O      0.62232  0.60969  0.02429     O
H       0.6224   0.1298   0.4841     H
C      0.62404   0.3114   0.4963     C
C      0.62415  0.33772  0.31794     C
O      0.62431  0.49767  0.55864     O
O      0.62578  0.15716  0.24859     O
N       0.6259   0.9238   0.8848     N
Cd    0.626894 0.551227 0.499732    Cd
Cd    0.627134 0.555246 0.978695    Cd
O       0.6274  0.00851  0.94443     O
H       0.6276   0.1297   0.9895     H
H       0.6278   0.5529   0.1575     H
H       0.6279   0.9161   0.8249     H
C      0.62851  0.31419  0.82786     C
C      0.62924  0.17437  0.66515     C
Cd    0.629593 0.955491 0.004612    Cd
O      0.63058  0.50526  0.04037     O
O      0.63113  0.60067  0.54995     O
O      0.63228  0.90225  0.95785     O
N       0.6324   0.5781   0.6208     N
C      0.63269  0.05951  0.56915     C
C       0.6327  0.58405  0.14225     C
C      0.63458  0.19084  0.49856     C
O      0.63465  0.00325  0.04842     O
C      0.63668  0.12684  0.28698     C
C      0.63691  0.13499  0.12054     C
C      0.63718  0.44072  0.91005     C
O      0.63733   0.5069  0.45298     O
C       0.6385  0.26524  0.77406     C
H       0.6389   0.3796   0.4862     H
C       0.6392  0.22263  0.71869     C
C       0.6396   0.6026   0.0619     C
O      0.63964  0.27171  0.23315     O
C       0.6397  0.44331  0.64119     C
O      0.64061  0.38485  0.23063     O
H       0.6408   0.1978   0.6408     H
H       0.6408   0.2909    0.852     H
C      0.64088  0.23199  0.00659     C
C      0.64123  0.26869  0.51516     C
C       0.6428  0.05999  0.86031     C
C      0.64345  0.39012  0.36276     C
O      0.64361  0.89202  0.53018     O
N       0.6437   0.9455   0.3612     N
C      0.64416  0.15588  0.99342     C
C      0.64565  0.03076  0.53756     C
C      0.64605  0.21823  0.18845     C
C       0.6462  0.41347  0.68093     C
C       0.6482  0.08683  0.81907     C
H       0.6486   0.3209   0.9718     H
C      0.64915  0.06627  0.36603     C
C       0.6494   0.9668   0.3142     C
H       0.6501    0.181   0.3995     H
C      0.65042  0.41033  0.19005     C
C      0.65122  0.35085  0.49925     C
O      0.65137  0.61392  0.92248     O
C      0.65193  0.31618  0.28533     C
C      0.65316   0.4756  0.93455     C
O      0.65331    0.166  0.14375     O
H       0.6539   0.3497   0.0735     H
H        0.655   0.2421   0.7961     H
C       0.6563  0.03309  0.40922     C
H       0.6568   0.2448   0.6966     H
H       0.6573   0.3319   0.8142     H
C      0.65748  0.11951  0.60563     C
H       0.6584   0.1572   0.6787     H
C      0.65953  0.37408  0.88108     C
O       0.6603   0.3639  0.33525     O
C      0.66211  0.07179  0.09155     C
H       0.6639   0.2024   0.7358     H
C      0.66412  0.46366  0.10636     C
H       0.6642   0.2852   0.7581     H
H       0.6649   0.9454   0.2996     H
H       0.6673   0.4599   0.6275     H
C      0.66756  0.44734  0.40137     C
H       0.6682   0.5913   0.1416     H
C      0.66823  0.09069  0.57805     C
C      0.66856  0.18214  0.22613     C
H       0.6694   0.1913   0.4934     H
C      0.66955  0.49052  0.06145     C
H       0.6703   0.9935   0.3109     H
H       0.6713   0.0489   0.8767     H
O      0.67194  0.24688  0.33829     O
O      0.67215  0.28113   0.1321     O
C      0.67227  0.40739  0.90396     C
C      0.67314  0.10547  0.11326     C
H        0.674   0.8299   0.5903     H
H       0.6746   0.4294   0.5449     H
C      0.67771  0.35288  0.25078     C
H        0.678   0.4102   0.6941     H
C         0.68   0.4192  0.37356     C
H         0.68   0.6775   0.8653     H
H       0.6805   0.0938   0.8076     H
H       0.6813   0.0857   0.9499     H
H       0.6819   0.1396   0.6118     H
H       0.6833   0.3527   0.8765     H
O       0.6834  0.04109  0.51401     O
C      0.68387  0.11371  0.30171     C
C      0.68438  0.18044  0.39254     C
C      0.68637  0.26456  0.53854     C
H       0.6868   0.0506   0.0883     H
H       0.6877   0.1966   0.2457     H
C      0.68873  0.34527  0.07673     C
C      0.69005  0.08325   0.3409     C
C      0.69054  0.90109  0.52737     C
H        0.691   0.1618    0.215     H
C        0.691  0.24588  0.16503     C
C       0.6916   0.2323   0.0073     C
H       0.6923   0.4661   0.4092     H
C      0.69366  0.28384  0.30615     C
H       0.6938    0.339   0.2292     H
C       0.6939   0.5775   0.6215     C
C      0.69564  0.34651  0.52139     C
O      0.69614  0.47354  0.94966     O
C       0.6964   0.6076   0.0686     C
C      0.69697  0.15848  0.99232     C
H       0.6983   0.2358   0.5519     H
C      0.69835  0.61005  0.93174     C
C      0.69867  0.41509  0.17091     C
O      0.69983  0.02203  0.42048     O
H       0.7001   0.0921   0.5651     H
H       0.7021   0.6295   0.0862     H
H       0.7023   0.1242   0.4374     H
H       0.7037   0.3682   0.2641     H
C      0.70418   0.4417   0.1298     C
H       0.7048   0.4075   0.9155     H
C      0.70509  0.21367  0.35926     C
H       0.7055   0.5484   0.6376     H
O      0.70578  0.93659  0.50036     O
H        0.706   0.1081   0.1232     H
H       0.7061   0.5825   0.5921     H
H       0.7063   0.8727   0.0035     H
H       0.7066   0.6012   0.6348     H
C      0.70687  0.30926  0.10754     C
C      0.70728  0.42423  0.53595     C
H        0.708   0.6274   0.5159     H
H       0.7082    0.258   0.0123     H
H       0.7085   0.3997   0.0295     H
C      0.70888  0.83379  0.58651     C
N      0.70922  0.57298  0.48922     N
H       0.7105   0.5786   0.0829     H
H       0.7107   0.2585   0.1856     H
H       0.7111   0.2717    0.284     H
N      0.71195  0.93365  0.01842     N
C      0.71217  0.08783  0.96367     C
H       0.7122   0.1253   0.2853     H
H       0.7125   0.6178   0.0409     H
H       0.7126   0.4197   0.3622     H
H        0.713   0.2262   0.1526     H
C      0.71379  0.30321  0.54209     C
C      0.71428  0.67823  0.87219     C
O      0.71431   0.4964  0.04601     O
O      0.71496  0.57973   0.9625     O
C      0.71581  0.14664  0.41506     C
H       0.7183   0.3002   0.3199     H
C       0.7211   0.1947   0.0008     C
C      0.72158  0.37541  0.05012     C
H       0.7226    0.074   0.3505     H
N       0.7238  0.38594  0.52431     N
N      0.72565  0.12044  0.98567     N
C      0.72658  0.61022  0.50013     C
H       0.7266   0.4004   0.1859     H
C      0.72671   0.8694  0.55428     C
C      0.72696  0.89339  0.01337     C
H       0.7277   0.7809   0.6344     H
H       0.7305   0.7345   0.8262     H
C      0.73326  0.64513  0.90538     C
H       0.7364   0.4449   0.1173     H
C      0.74087  0.80433  0.61287     C
H       0.7437   0.6954   0.5023     H
H       0.7438   0.3004    0.558     H
C      0.74423  0.71257   0.8487     C
Cd    0.745117  0.00828 0.482551    Cd
H       0.7452   0.4823   0.5383     H
C      0.74635  0.45335  0.53231     C
H       0.7467   0.5341    0.453     H
C      0.74791  0.55923  0.46567     C
C      0.75209  0.05923  0.96567     C
H       0.7533   0.0341    0.953     H
C      0.75365  0.95335  0.03231     C
H       0.7548   0.9823   0.0383     H
Cd    0.754883  0.50828 0.982551    Cd
C      0.75577  0.21257   0.3487     C
H       0.7562   0.8004    0.058     H
H       0.7563   0.1954   0.0023     H
C      0.75913  0.30433  0.11287     C
H       0.7636   0.9449   0.6173     H
C      0.76674  0.14513  0.40538     C
H       0.7695   0.2345   0.3262     H
H       0.7723   0.2809   0.1344     H
C      0.77304  0.39339  0.51337     C
C      0.77329   0.3694  0.05428     C
H       0.7734   0.9004   0.6859     H
C      0.77342  0.11022  0.00013     C
N      0.77435  0.62044  0.48567     N
N       0.7762  0.88594  0.02431     N
H       0.7774    0.574   0.8505     H
C      0.77842  0.87541  0.55012     C
C       0.7789   0.6947   0.5008     C
H       0.7817   0.8002   0.8199     H
C      0.78419  0.64664  0.91506     C
O      0.78504  0.07973   0.4625     O
O      0.78569   0.9964  0.54601     O
C      0.78572  0.17823  0.37219     C
C      0.78621  0.80321  0.04209     C
H        0.787   0.7262   0.6526     H
H       0.7874   0.9197   0.8622     H
H       0.7875   0.1178   0.5409     H
H       0.7878   0.6253   0.7853     H
C      0.78783  0.58783  0.46367     C
N      0.78805  0.43365  0.51842     N
H       0.7889   0.7717    0.784     H
H       0.7893   0.7585   0.6856     H
H       0.7895   0.0786   0.5829     H
N      0.79078  0.07298  0.98922     N
C      0.79112  0.33379  0.08651     C
H       0.7915   0.8997   0.5295     H
H       0.7918    0.758   0.5123     H
H        0.792   0.1274   0.0159     H
C      0.79272  0.92423  0.03595     C
C      0.79313  0.80926  0.60754     C
H       0.7934   0.1012   0.1348     H
H       0.7937   0.3727   0.5035     H
H       0.7939   0.0825   0.0921     H
H        0.794   0.6081   0.6232     H
O      0.79422  0.43659  0.00036     O
H       0.7945   0.0484   0.1376     H
C      0.79491  0.71367  0.85926     C
H       0.7952   0.9075   0.4155     H
C      0.79582   0.9417   0.6298     C
H       0.7963   0.8682   0.7641     H
H       0.7977   0.6242   0.9374     H
H       0.7979   0.1295   0.5862     H
H       0.7999   0.5921   0.0651     H
O      0.80017  0.52203  0.92048     O
C      0.80133  0.91509  0.67091     C
C      0.80165  0.11005  0.43174     C
H       0.8017   0.7358   0.0519     H
C      0.80303  0.65848  0.49232     C
C       0.8036   0.1076   0.5686     C
O      0.80386  0.97354  0.44966     O
C      0.80436  0.84651  0.02139     C
C       0.8061   0.0775   0.1215     C
H       0.8062    0.839   0.7292     H
C      0.80634  0.78384  0.80615     C
H       0.8077   0.9661   0.9092     H
C       0.8084   0.7323   0.5073     C
H        0.809   0.6618    0.715     H
C        0.809  0.74588  0.66503     C
C      0.80946  0.40109  0.02737     C
C      0.80995  0.58325   0.8409     C
C      0.81127  0.84527  0.57673     C
H       0.8123   0.6966   0.7457     H
H       0.8132   0.5506   0.5883     H
C      0.81363  0.76456  0.03854     C
C      0.81562  0.68044  0.89254     C
C      0.81613  0.61371  0.80171     C
O       0.8166  0.54109  0.01401     O
H       0.8167   0.8527   0.3765     H
H       0.8181   0.6396   0.1118     H
H       0.8187   0.5857   0.4499     H
H       0.8195   0.5938   0.3076     H
H         0.82   0.1775   0.3653     H
C         0.82   0.9192  0.87356     C
H        0.822   0.9102   0.1941     H
C      0.82229  0.85288  0.75078     C
H       0.8254   0.9294   0.0449     H
H        0.826   0.3299   0.0903     H
C      0.82686  0.60547  0.61326     C
C      0.82773  0.90739  0.40396     C
O      0.82785  0.78113   0.6321     O
O      0.82806  0.74688  0.83829     O
H       0.8287   0.5489   0.3767     H
H       0.8297   0.4935   0.8109     H
C      0.83045  0.99052  0.56145     C
H       0.8306   0.6913   0.9934     H
C      0.83144  0.68214  0.72613     C
C      0.83177  0.59069  0.07805     C
H       0.8318   0.0913   0.6416     H
C      0.83244  0.94734  0.90137     C
H       0.8327   0.9599   0.1275     H
H       0.8351   0.4454   0.7996     H
H       0.8358   0.7852   0.2581     H
C      0.83588  0.96366  0.60636     C
H       0.8361   0.7024   0.2358     H
C      0.83789  0.57179  0.59155     C
O       0.8397   0.8639  0.83525     O
C      0.84047  0.87408  0.38108     C
H       0.8416   0.6572   0.1787     H
C      0.84252  0.61951  0.10563     C
H       0.8427   0.8319   0.3142     H
H       0.8432   0.7448   0.1966     H
C       0.8437  0.53309  0.90922     C
H        0.845   0.7421   0.2961     H
H       0.8461   0.8497   0.5735     H
O      0.84669    0.666  0.64375     O
C      0.84684   0.9756  0.43455     C
C      0.84807  0.81618  0.78533     C
O      0.84863  0.11392  0.42248     O
C      0.84878  0.85085  0.99925     C
C      0.84958  0.91033  0.69005     C
H       0.8499    0.681   0.8995     H
C       0.8506   0.4668   0.8142     C
C      0.85085  0.56627  0.86603     C
H       0.8514   0.8209   0.4718     H
C       0.8518  0.58683  0.31907     C
C       0.8538  0.91347  0.18093     C
C      0.85395  0.71823  0.68845     C
C      0.85435  0.53076  0.03756     C
C      0.85584  0.65588  0.49342     C
N       0.8563   0.4455   0.8612     N
O      0.85639  0.39202  0.03018     O
C      0.85655  0.89012  0.86276     C
C       0.8572  0.55999  0.36031     C
C      0.85877  0.76869  0.01516     C
C      0.85912  0.73199  0.50659     C
H       0.8592   0.6978   0.1408     H
H       0.8592   0.7909    0.352     H
O      0.85939  0.88485  0.73063     O
C       0.8603  0.94331  0.14119     C
O      0.86036  0.77171  0.73315     O
C       0.8604   0.1026   0.5619     C
C       0.8608  0.72263  0.21869     C
H       0.8611   0.8796   0.9862     H
C       0.8615  0.76524  0.27406     C
O      0.86267   0.0069  0.95298     O
C      0.86282  0.94072  0.41005     C
C      0.86309  0.63499  0.62054     C
C      0.86332  0.62684  0.78698     C
O      0.86535  0.50325  0.54842     O
C      0.86542  0.69084  0.99856     C
C       0.8673  0.08405  0.64225     C
C      0.86731  0.55951  0.06915     C
N       0.8676   0.0781   0.1208     N
O      0.86772  0.40225  0.45785     O
O      0.86887  0.10067  0.04995     O
O      0.86942  0.00526  0.54037     O
Cd    0.870407 0.455491 0.504612    Cd
C      0.87076  0.67437  0.16515     C
C      0.87149  0.81419  0.32786     C
H       0.8721   0.4161   0.3249     H
H       0.8722   0.0529   0.6575     H
H       0.8724   0.6297   0.4895     H
O       0.8726  0.50851  0.44443     O
Cd    0.872866 0.055246 0.478695    Cd
Cd    0.873106 0.051227 0.999732    Cd
N       0.8741   0.4238   0.3848     N
O      0.87422  0.65716  0.74859     O
O      0.87569  0.99767  0.05864     O
C      0.87585  0.83772  0.81794     C
C      0.87596   0.8114   0.9963     C
H       0.8776   0.6298   0.9841     H
O      0.87768  0.10969  0.52429     O
C      0.87848  0.81608  0.49122     C
O       0.8808  0.00418  0.43801     O
C      0.88139  0.94796   0.9178     C
C       0.8815   0.4358   0.8876     C
Cd    0.881757 0.459314 0.984427    Cd
C      0.88259  0.69213  0.50037     C
C       0.8826   0.4111   0.4208     C
C      0.88264  0.69546  0.65719     C
O      0.88326  0.63041  0.25448     O
C       0.8834   0.0563   0.1709     C
H       0.8835   0.4752   0.8018     H
O      0.88376  0.85963  0.23944     O
O      0.88386  0.51997   0.9299     O
O      0.88396  0.49751  0.03725     O
C      0.88426  0.95785  0.62775     C
O      0.88484  0.41835  0.92684     O
H       0.8855   0.1039   0.6569     H
C       0.8856  0.56958  0.57459     C
N       0.8865  0.08983  0.59687     N
H       0.8868   0.4657   0.3286     H
C       0.8875   0.1017   0.1751     C
C      0.88784  0.79115  0.76326     C
C        0.888  0.72747  0.01173     C
C      0.88983  0.77195  0.51305     C
C      0.88999   0.8739  0.36536     C
C       0.8902   0.0904   0.0862     C
H       0.8902   0.8142    0.841     H
C      0.89033  0.93289  0.66811     C
O      0.89036  0.74481  0.24569     O
C      0.89064  0.61765  0.12372     C
C      0.89099  0.74977  0.70602     C
C       0.8913   0.4338   0.3412     C
C      0.89347  0.65382  0.99304     C
C       0.8938  0.88899  0.20079     C
C        0.894  0.60336  0.29484     C
C      0.89472  0.97763  0.94833     C
O      0.89479   0.3943  0.56025     O
H        0.895   0.7181   0.6324     H
C      0.89781  0.53397  0.54871     C
H       0.8982    0.883   0.4825     H
C      0.89927  0.69544   0.1978     C
H       0.8994   0.8311   0.0852     H
C      0.89954  0.79233  0.29486     C
C      0.89958  0.58012  0.85076     C
O      0.90085  0.11259  0.94929     O
H       0.9032   0.8571   0.8038     H
C       0.9034    0.121   0.0569     C
H       0.9036   0.6606   0.4088     H
C      0.90455  0.89018  0.87897     C
H       0.9047   0.7676   0.7846     H
C       0.9057  0.54939  0.37742     C
H       0.9059   0.7722   0.6823     H
C      0.90639  0.61023  0.81147     C
C      0.90642  0.85355  0.49745     C
H       0.9065   0.8145   0.9811     H
O       0.9071  0.64452  0.15093     O
O      0.90756  0.84309  0.34266     O
C      0.90758  0.94857  0.12159     C
C      0.91097  0.93989  0.39319     C
H       0.9113   0.6782   0.6716     H
C      0.91136  0.63318  0.60422     C
H       0.9125   0.9721    0.613     H
C      0.91284  0.52076  0.42336     C
H       0.9132   0.8124   0.7484     H
C      0.91427  0.55794   0.0887     C
C      0.91465  0.97985  0.07766     C
C      0.91672  0.91805  0.90652     C
H       0.9179   0.6905    0.501     H
H        0.918   0.7322   0.7227     H
O      0.92141  0.76202  0.14407     O
H       0.9221   0.9307   0.6813     H
C       0.9222  0.60088  0.58106     C
O      0.92302  0.72677  0.34822     O
C      0.92373  0.82895  0.25955     C
C       0.9241  0.65916  0.23315     C
H       0.9242   0.3322   0.6198     H
C      0.92518  0.90699  0.37147     C
H       0.9255   0.9351   0.5393     H
C      0.92653   0.5869  0.11557     C
H       0.9266    0.426   0.3405     H
H       0.9276   0.1751   0.8912     H
H       0.9278   0.5687   0.8675     H
C      0.92913  0.76641  0.54199     C
H       0.9292   0.8712   0.8713     H
H       0.9334   0.5845   0.9519     H
H       0.9343   0.9621   0.3966     H
C      0.93434  0.82933  0.08955     C
H       0.9362   0.6536   0.6089     H
O      0.93624   0.9708  0.96722     O
H       0.9373   0.7372   0.5574     H
C       0.9375   0.4556   0.8626     C
H       0.9382   0.5369   0.0837     H
C      0.93833  0.66212  0.40359     C
H       0.9388   0.6193   0.8014     H
H         0.94   0.8151    0.238     H
O      0.94006  0.53845  0.52912     O
C      0.94027  0.72594  0.01906     C
C       0.9408   0.0799   0.5909     C
C      0.94149  0.39924  0.55358     C
H       0.9418   0.6732   0.2538     H
C      0.94209  0.89443  0.18237     C
C      0.94215  0.72553  0.17608     C
C       0.9427  0.59335  0.31085     C
C      0.94319  0.76325  0.31575     C
C      0.94415  0.65235  0.00066     C
C       0.9453   0.0891   0.0914     C
C      0.94593  0.84608   0.5258     C
H       0.9464   0.0566    0.102     H
C        0.947   0.4044   0.4155     C
H       0.9475   0.0485   0.6039     H
C       0.9476  0.10679  0.95428     C
H       0.9482   0.6414   0.2205     H
H       0.9485   0.0856   0.5604     H
C      0.94887  0.92543  0.14253     C
C       0.9489  0.56627  0.35196     C
H       0.9492   0.8455   0.2721     H
H       0.9494   0.9169    0.918     H
H       0.9507   0.8848    0.044     H
H       0.9516   0.4777   0.8772     H
H       0.9532   0.3824   0.3982     H
H       0.9533   0.1038   0.1147     H
H       0.9538    0.136   0.4775     H
H       0.9545   0.5997   0.5695     H
C      0.95511  0.79299   0.1218     C
H       0.9564     0.75   0.0277     H
N      0.95646    0.074  0.46715     N
H       0.9566   0.6088   0.4514     H
O      0.95679  0.43152  0.52171     O
C      0.95738  0.80329  0.54904     C
O      0.95764  0.51105  0.43641     O
C      0.95764  0.69604  0.37024     C
H       0.9581   0.9066   0.3608     H
H       0.9586   0.5858   0.1281     H
C      0.95877  0.33365  0.61365     C
C      0.95889  0.92582  0.53721     C
O      0.95982   0.9861  0.06338     O
H       0.9608   0.4305   0.8648     H
H       0.9608   0.7376   0.1976     H
H       0.9615    0.099   0.6045     H
H       0.9616   0.7511   0.2941     H
H       0.9618   0.4332   0.4015     H
H       0.9619   0.3941   0.4437     H
C      0.96224  0.58409  0.96899     C
C       0.9624  0.17443  0.89647     C
H       0.9636   0.3844   0.9679     H
N      0.96388  0.43556  0.99832     N
O       0.9641  0.07344  0.98363     O
C       0.9649  0.86152  0.06501     C
H       0.9654   0.7078   0.1625     H
H       0.9665   0.7813   0.3289     H
C      0.96842  0.68808  0.01341     C
H       0.9694   0.8777   0.1963     H
H       0.9695   0.0979   0.0684     H
C      0.96988  0.63098  0.42875     C
H       0.9708   0.6047   0.2941     H
N      0.97362  0.61441  0.99456     N
C      0.97416  0.11257  0.47201     C
N      0.97548  0.88434  0.53164     N
C       0.9769  0.36748   0.5797     C
H       0.9776   0.2797   0.6608     H
H       0.9794   0.2311   0.8506     H
C      0.98063  0.39918  0.98667     C
H       0.9811   0.9303   0.1303     H
H       0.9813   0.5591    0.363     H
C      0.98308  0.14007  0.92894     C
H       0.9836   0.7988   0.5693     H
C      0.99063  0.30218  0.63834     C
C       0.9937    0.208   0.8717     C
H       0.9967    0.313   0.9818     H
H       0.9989   0.0204   0.4563     H
C       0.9992  0.44666  0.02679     C
C      0.99921  0.04985  0.46104     C
