data_I
_chemical_name_common  'IRMOF-1-38/IRMOF-1-38_index_func/cif/functionalized_IRMOF-1-38_OCF3_index_[340, 52, 264, 144, 257, 137, 349, 61]'
_cell_length_a 25.86584
_cell_length_b 25.86584
_cell_length_c 25.86584
_cell_angle_alpha 90.00000
_cell_angle_beta  90.00000
_cell_angle_gamma 90.00000
_space_group_name_H-M_alt      'P 1'


loop_
_space_group_symop_operation_xyz
  'x, y, z' 

loop_
_atom_site_label
_atom_site_fract_x
_atom_site_fract_y
_atom_site_fract_z
_atom_site_type_symbol
C     0.026821000000000053 0.216833 0.216833     C
C     0.026821000000000123 0.21683300000000008 0.783167     C
C     0.02682100000000007 0.2831670000000001 0.283167     C
C     0.026821000000000123 0.2831670000000001 0.716833     C
C     0.026821000000000123 0.716833 0.283167     C
C     0.02682100000000017 0.716833 0.716833     C
C     0.026821000000000123 0.783167 0.216833     C
C     0.02682100000000019 0.783167 0.783167     C
H     0.04881000000000004  0.19131  0.19131     H
H     0.048810000000000124 0.19131000000000006  0.80869     H
H     0.048810000000000076  0.30869  0.30869     H
H     0.048810000000000124  0.30869  0.69131     H
H     0.048810000000000124  0.69131  0.30869     H
H     0.04881000000000017  0.69131  0.69131     H
H     0.048810000000000124  0.80869  0.19131     H
H     0.04881000000000021  0.80869  0.80869     H
C     0.05380800000000007     0.25     0.25     C
C     0.05380800000000013 0.2500000000000001 0.7500000000000001     C
C     0.05380800000000013 0.7500000000000001     0.25     C
C     0.053808000000000175 0.7500000000000001 0.7500000000000001     C
C     0.11138300000000007     0.25     0.25     C
C     0.11138300000000013 0.2500000000000001 0.7500000000000001     C
C     0.11138300000000013 0.7500000000000001     0.25     C
C     0.1113830000000002 0.7500000000000001 0.7500000000000001     C
O     0.13365200000000005 0.21895800000000004 0.21895800000000004     O
O     0.13365200000000016 0.2189580000000001 0.781042     O
O     0.13365200000000005 0.2810420000000001 0.281042     O
O     0.13365200000000016 0.2810420000000001 0.718958     O
O     0.13365200000000016 0.718958 0.281042     O
O     0.13365200000000022 0.718958 0.718958     O
O     0.13365200000000016 0.781042 0.21895800000000004     O
O     0.13365200000000022 0.781042 0.781042     O
H     0.19131000000000006 0.04881000000000011  0.80869     H
H     0.19131000000000015 0.19131000000000015  0.95119     H
H     0.19131000000000015  0.30869  0.45119     H
H     0.19131000000000015  0.45119  0.30869     H
H     0.19131000000000015 0.45119000000000015  0.69131     H
H     0.19131000000000015  0.54881  0.30869     H
H     0.19131000000000015  0.69131  0.45119     H
H     0.1913100000000002  0.80869  0.95119     H
H     0.19131000000000015  0.95119  0.19131     H
H     0.1913100000000002  0.95119  0.80869     H
Zn    0.206633 0.206633 0.206633    Zn
Zn    0.2066330000000001 0.2066330000000001 0.793367    Zn
Zn    0.20663300000000015 0.2933670000000001 0.293367    Zn
Zn    0.20663300000000015 0.2933670000000001 0.7066330000000001    Zn
Zn    0.20663300000000015 0.7066330000000001 0.293367    Zn
Zn    0.20663300000000015 0.7066330000000001 0.7066330000000001    Zn
Zn    0.2066330000000001 0.793367 0.206633    Zn
Zn    0.20663300000000015 0.793367 0.793367    Zn
C     0.216833 0.026821000000000025 0.216833     C
C     0.21683300000000008 0.026821000000000098 0.783167     C
C     0.216833 0.216833 0.026821     C
C     0.21683300000000014 0.21683300000000014 0.973179     C
C     0.21683300000000014 0.2831670000000001 0.47317900000000007     C
C     0.21683300000000014 0.2831670000000001 0.526821     C
C     0.21683300000000014 0.47317900000000007 0.283167     C
C     0.21683300000000014 0.4731790000000002 0.716833     C
C     0.21683300000000014 0.526821 0.283167     C
C     0.21683300000000014 0.5268210000000002 0.716833     C
C     0.21683300000000014 0.716833 0.47317900000000007     C
C     0.21683300000000014 0.716833 0.526821     C
C     0.21683300000000008 0.783167 0.026821     C
C     0.21683300000000022 0.783167 0.973179     C
C     0.21683300000000014 0.973179 0.216833     C
C     0.21683300000000022 0.973179 0.783167     C
O     0.21895800000000004 0.13365200000000002 0.21895800000000004     O
O     0.2189580000000001 0.1336520000000001 0.781042     O
O     0.21895800000000004 0.21895800000000004 0.133652     O
O     0.21895800000000018 0.21895800000000018 0.866348     O
O     0.21895800000000018 0.2810420000000001 0.366348     O
O     0.21895800000000018 0.2810420000000001 0.633652     O
O     0.21895800000000018 0.366348 0.281042     O
O     0.21895800000000018 0.3663480000000001 0.718958     O
O     0.21895800000000018 0.633652 0.281042     O
O     0.21895800000000018 0.633652 0.718958     O
O     0.21895800000000018 0.718958 0.366348     O
O     0.21895800000000018 0.718958 0.633652     O
O     0.2189580000000001 0.781042 0.133652     O
O     0.21895800000000024 0.781042 0.866348     O
O     0.21895800000000018 0.866348 0.21895800000000004     O
O     0.21895800000000024 0.866348 0.781042     O
C         0.25 0.053808000000000036     0.25     C
C     0.2500000000000001 0.0538080000000001 0.7500000000000001     C
C         0.25 0.11138300000000004     0.25     C
C     0.2500000000000001 0.1113830000000001 0.7500000000000001     C
C         0.25     0.25 0.053808     C
C         0.25     0.25 0.111383     C
O         0.25     0.25     0.25     O
C     0.2500000000000001 0.2500000000000001 0.388617     C
C     0.2500000000000001 0.2500000000000001 0.446192     C
C     0.2500000000000001 0.2500000000000001 0.553808     C
C     0.2500000000000001 0.2500000000000001 0.611383     C
O     0.2500000000000001 0.2500000000000001 0.7500000000000001     O
C     0.25000000000000017 0.25000000000000017 0.888617     C
C     0.25000000000000017 0.25000000000000017 0.946192     C
C     0.2500000000000001 0.388617     0.25     C
C     0.25000000000000017 0.38861700000000016 0.7500000000000001     C
C     0.2500000000000001 0.446192     0.25     C
C     0.25000000000000017 0.44619200000000014 0.7500000000000001     C
C     0.2500000000000001 0.553808     0.25     C
C     0.25000000000000017 0.5538080000000002 0.7500000000000001     C
C     0.2500000000000001 0.611383     0.25     C
C     0.25000000000000017 0.6113830000000002 0.7500000000000001     C
C     0.2500000000000001 0.7500000000000001 0.053808     C
C     0.2500000000000001 0.7500000000000001 0.111383     C
O     0.2500000000000001 0.7500000000000001     0.25     O
C     0.25000000000000017 0.7500000000000001 0.388617     C
C     0.25000000000000017 0.7500000000000001 0.446192     C
C     0.25000000000000017 0.7500000000000001 0.553808     C
C     0.25000000000000017 0.7500000000000001 0.611383     C
O     0.25000000000000017 0.7500000000000001 0.7500000000000001     O
C     0.2500000000000002 0.7500000000000001 0.888617     C
C     0.2500000000000002 0.7500000000000001 0.946192     C
C     0.25000000000000017 0.888617     0.25     C
C     0.2500000000000002 0.888617 0.7500000000000001     C
C     0.25000000000000017 0.946192     0.25     C
C     0.2500000000000002 0.946192 0.7500000000000001     C
O     0.2810420000000001 0.13365200000000002 0.281042     O
O     0.2810420000000001 0.1336520000000001 0.718958     O
O     0.2810420000000001 0.2189580000000001 0.366348     O
O     0.2810420000000001 0.2189580000000001 0.633652     O
O     0.2810420000000001 0.281042 0.133652     O
O     0.28104200000000024 0.2810420000000001 0.866348     O
O     0.2810420000000001 0.366348 0.21895800000000004     O
O     0.2810420000000001 0.3663480000000001 0.781042     O
O     0.2810420000000001 0.633652 0.21895800000000004     O
O     0.2810420000000001 0.633652 0.781042     O
O     0.2810420000000001 0.718958 0.133652     O
O     0.28104200000000024 0.718958 0.866348     O
O     0.2810420000000001 0.781042 0.366348     O
O     0.2810420000000001 0.781042 0.633652     O
O     0.28104200000000024 0.866348 0.281042     O
O     0.28104200000000024 0.866348 0.718958     O
C     0.2831670000000001 0.026821000000000036 0.283167     C
C     0.2831670000000001 0.026821000000000088 0.716833     C
C     0.2831670000000001 0.21683300000000008 0.47317900000000007     C
C     0.2831670000000001 0.21683300000000008 0.526821     C
C     0.2831670000000001 0.283167 0.026821     C
C     0.2831670000000002 0.28316700000000017 0.973179     C
C     0.2831670000000001 0.47317900000000007 0.216833     C
C     0.28316700000000017 0.4731790000000002 0.783167     C
C     0.2831670000000001 0.526821 0.216833     C
C     0.28316700000000017 0.5268210000000002 0.783167     C
C     0.2831670000000001 0.716833 0.026821     C
C     0.2831670000000002 0.716833 0.973179     C
C     0.28316700000000017 0.783167 0.47317900000000007     C
C     0.28316700000000017 0.783167 0.526821     C
C     0.2831670000000002 0.973179 0.283167     C
C     0.2831670000000002 0.973179 0.716833     C
Zn    0.2933670000000001 0.2066330000000001 0.293367    Zn
Zn    0.2933670000000001 0.2066330000000001 0.7066330000000001    Zn
Zn    0.2933670000000001 0.293367 0.206633    Zn
Zn    0.29336700000000016 0.2933670000000001 0.793367    Zn
Zn    0.2933670000000001 0.7066330000000001 0.206633    Zn
Zn    0.29336700000000016 0.7066330000000001 0.793367    Zn
Zn    0.29336700000000016 0.793367 0.293367    Zn
Zn    0.29336700000000016 0.793367 0.7066330000000001    Zn
H      0.30869 0.04881000000000004  0.30869     H
H      0.30869 0.19131000000000006  0.45119     H
H      0.30869 0.19131000000000006  0.54881     H
H      0.30869  0.30869 0.048810000000000006     H
H     0.30869000000000024 0.30869000000000013  0.95119     H
H      0.30869  0.45119  0.19131     H
H     0.30869000000000013 0.45119000000000015  0.80869     H
H     0.30869000000000013 0.5488100000000002  0.80869     H
H      0.30869  0.69131 0.048810000000000006     H
H     0.30869000000000024  0.69131  0.95119     H
H     0.30869000000000013  0.80869  0.45119     H
H     0.30869000000000013  0.80869  0.54881     H
H     0.30869000000000024  0.95119  0.30869     H
H     0.30869000000000024  0.95119  0.69131     H
O     0.366348 0.2189580000000001 0.281042     O
O     0.3663480000000001 0.2189580000000001 0.718958     O
O     0.366348 0.281042 0.21895800000000004     O
O     0.3663480000000001 0.2810420000000001 0.781042     O
O     0.3663480000000001 0.718958 0.21895800000000004     O
O     0.3663480000000003 0.718958 0.781042     O
O     0.3663480000000001 0.781042 0.281042     O
O     0.3663480000000003 0.781042 0.718958     O
C     0.388617     0.25     0.25     C
C     0.38861700000000016 0.2500000000000001 0.7500000000000001     C
C     0.38861700000000016 0.7500000000000001     0.25     C
C     0.3886170000000003 0.7500000000000001 0.7500000000000001     C
C     0.446192     0.25     0.25     C
C     0.44619200000000014 0.2500000000000001 0.7500000000000001     C
C     0.44619200000000014 0.7500000000000001     0.25     C
C     0.44619200000000026 0.7500000000000001 0.7500000000000001     C
H     0.45119000000000015 0.19131000000000006  0.69131     H
H      0.45119  0.30869  0.19131     H
H     0.45119000000000015  0.69131  0.19131     H
H     0.45119000000000026  0.80869  0.69131     H
C     0.47317900000000007 0.21683300000000008 0.283167     C
C     0.4731790000000002 0.21683300000000008 0.716833     C
C     0.47317900000000007 0.283167 0.216833     C
C     0.4731790000000002 0.2831670000000001 0.783167     C
C     0.4731790000000002 0.716833 0.216833     C
C     0.47317900000000035 0.716833 0.783167     C
C     0.4731790000000002 0.783167 0.283167     C
C     0.47317900000000035 0.783167 0.716833     C
C     0.526821 0.21683300000000008 0.283167     C
C     0.5268210000000002 0.21683300000000008 0.716833     C
C     0.526821 0.283167 0.216833     C
C     0.5268210000000002 0.2831670000000001 0.783167     C
C     0.5268210000000002 0.716833 0.216833     C
C     0.5268210000000002 0.716833 0.783167     C
C     0.5268210000000002 0.783167 0.283167     C
C     0.5268210000000002 0.783167 0.716833     C
H      0.54881 0.19131000000000006  0.30869     H
H     0.5488100000000002 0.19131000000000006  0.69131     H
H      0.54881  0.30869  0.19131     H
H     0.5488100000000002  0.30869  0.80869     H
H     0.5488100000000002  0.69131  0.19131     H
H     0.5488100000000004  0.69131  0.80869     H
H     0.5488100000000002  0.80869  0.30869     H
H     0.5488100000000004  0.80869  0.69131     H
C     0.553808     0.25     0.25     C
C     0.5538080000000002 0.2500000000000001 0.7500000000000001     C
C     0.5538080000000002 0.7500000000000001     0.25     C
C     0.5538080000000002 0.7500000000000001 0.7500000000000001     C
C     0.611383     0.25     0.25     C
C     0.6113830000000002 0.2500000000000001 0.7500000000000001     C
C     0.6113830000000002 0.7500000000000001     0.25     C
C     0.6113830000000003 0.7500000000000001 0.7500000000000001     C
O     0.633652 0.2189580000000001 0.281042     O
O     0.633652 0.2189580000000001 0.718958     O
O     0.633652 0.281042 0.21895800000000004     O
O     0.633652 0.2810420000000001 0.781042     O
O     0.633652 0.718958 0.21895800000000004     O
O     0.633652 0.718958 0.781042     O
O     0.633652 0.781042 0.281042     O
O     0.633652 0.781042 0.718958     O
H      0.69131 0.04881000000000004  0.30869     H
H      0.69131 0.19131000000000006  0.45119     H
H      0.69131 0.30869000000000013  0.95119     H
H      0.69131  0.45119  0.19131     H
H      0.69131 0.45119000000000015  0.80869     H
H      0.69131 0.5488100000000002  0.80869     H
H      0.69131  0.69131  0.95119     H
H      0.69131  0.80869  0.45119     H
H      0.69131  0.95119  0.30869     H
H      0.69131  0.95119  0.69131     H
Zn    0.7066330000000001 0.2066330000000001 0.293367    Zn
Zn    0.7066330000000001 0.2066330000000001 0.7066330000000001    Zn
Zn    0.7066330000000001 0.293367 0.206633    Zn
Zn    0.7066330000000001 0.2933670000000001 0.793367    Zn
Zn    0.7066330000000001 0.7066330000000001 0.206633    Zn
Zn    0.7066330000000001 0.7066330000000001 0.793367    Zn
Zn    0.7066330000000001 0.793367 0.293367    Zn
Zn    0.7066330000000001 0.793367 0.7066330000000001    Zn
C     0.716833 0.026821000000000036 0.283167     C
C     0.716833 0.026821000000000088 0.716833     C
C     0.716833 0.21683300000000008 0.47317900000000007     C
C     0.716833 0.21683300000000008 0.526821     C
C     0.716833 0.283167 0.026821     C
C     0.716833 0.28316700000000017 0.973179     C
C     0.716833 0.47317900000000007 0.216833     C
C     0.716833 0.4731790000000002 0.783167     C
C     0.716833 0.526821 0.216833     C
C     0.716833 0.5268210000000002 0.783167     C
C     0.716833 0.716833 0.026821     C
C     0.716833 0.716833 0.973179     C
C     0.716833 0.783167 0.47317900000000007     C
C     0.716833 0.783167 0.526821     C
C     0.716833 0.973179 0.283167     C
C     0.716833 0.973179 0.716833     C
O     0.718958 0.13365200000000002 0.281042     O
O     0.718958 0.1336520000000001 0.718958     O
O     0.718958 0.2189580000000001 0.366348     O
O     0.718958 0.2189580000000001 0.633652     O
O     0.718958 0.281042 0.133652     O
O     0.718958 0.2810420000000001 0.866348     O
O     0.718958 0.366348 0.21895800000000004     O
O     0.718958 0.3663480000000001 0.781042     O
O     0.718958 0.633652 0.21895800000000004     O
O     0.718958 0.633652 0.781042     O
O     0.718958 0.718958 0.133652     O
O     0.718958 0.718958 0.866348     O
O     0.718958 0.781042 0.366348     O
O     0.718958 0.781042 0.633652     O
O     0.718958 0.866348 0.281042     O
O     0.718958 0.866348 0.718958     O
C     0.7500000000000001 0.053808000000000036     0.25     C
C     0.7500000000000001 0.0538080000000001 0.7500000000000001     C
C     0.7500000000000001 0.11138300000000004     0.25     C
C     0.7500000000000001 0.1113830000000001 0.7500000000000001     C
C     0.7500000000000001     0.25 0.053808     C
C     0.7500000000000001     0.25 0.111383     C
O     0.7500000000000001     0.25     0.25     O
C     0.7500000000000001 0.2500000000000001 0.388617     C
C     0.7500000000000001 0.2500000000000001 0.446192     C
C     0.7500000000000001 0.2500000000000001 0.553808     C
C     0.7500000000000001 0.2500000000000001 0.611383     C
O     0.7500000000000001 0.2500000000000001 0.7500000000000001     O
C     0.7500000000000001 0.25000000000000017 0.888617     C
C     0.7500000000000001 0.25000000000000017 0.946192     C
C     0.7500000000000001 0.388617     0.25     C
C     0.7500000000000001 0.38861700000000016 0.7500000000000001     C
C     0.7500000000000001 0.446192     0.25     C
C     0.7500000000000001 0.44619200000000014 0.7500000000000001     C
C     0.7500000000000001 0.553808     0.25     C
C     0.7500000000000001 0.5538080000000002 0.7500000000000001     C
C     0.7500000000000001 0.611383     0.25     C
C     0.7500000000000001 0.6113830000000002 0.7500000000000001     C
C     0.7500000000000001 0.7500000000000001 0.053808     C
C     0.7500000000000001 0.7500000000000001 0.111383     C
O     0.7500000000000001 0.7500000000000001     0.25     O
C     0.7500000000000001 0.7500000000000001 0.388617     C
C     0.7500000000000001 0.7500000000000001 0.446192     C
C     0.7500000000000001 0.7500000000000001 0.553808     C
C     0.7500000000000001 0.7500000000000001 0.611383     C
O     0.7500000000000001 0.7500000000000001 0.7500000000000001     O
C     0.7500000000000001 0.7500000000000001 0.888617     C
C     0.7500000000000001 0.7500000000000001 0.946192     C
C     0.7500000000000001 0.888617     0.25     C
C     0.7500000000000001 0.888617 0.7500000000000001     C
C     0.7500000000000001 0.946192     0.25     C
C     0.7500000000000001 0.946192 0.7500000000000001     C
O     0.781042 0.13365200000000002 0.21895800000000004     O
O     0.781042 0.1336520000000001 0.781042     O
O     0.781042 0.21895800000000004 0.133652     O
O     0.781042 0.21895800000000018 0.866348     O
O     0.781042 0.2810420000000001 0.366348     O
O     0.781042 0.2810420000000001 0.633652     O
O     0.781042 0.366348 0.281042     O
O     0.781042 0.3663480000000001 0.718958     O
O     0.781042 0.633652 0.281042     O
O     0.781042 0.633652 0.718958     O
O     0.781042 0.718958 0.366348     O
O     0.781042 0.718958 0.633652     O
O     0.781042 0.781042 0.133652     O
O     0.781042 0.781042 0.866348     O
O     0.781042 0.866348 0.21895800000000004     O
O     0.781042 0.866348 0.781042     O
C     0.783167 0.026821000000000025 0.216833     C
C     0.783167 0.026821000000000098 0.783167     C
C     0.783167 0.216833 0.026821     C
C     0.783167 0.21683300000000014 0.973179     C
C     0.783167 0.2831670000000001 0.47317900000000007     C
C     0.783167 0.2831670000000001 0.526821     C
C     0.783167 0.47317900000000007 0.283167     C
C     0.783167 0.4731790000000002 0.716833     C
C     0.783167 0.526821 0.283167     C
C     0.783167 0.5268210000000002 0.716833     C
C     0.783167 0.716833 0.47317900000000007     C
C     0.783167 0.716833 0.526821     C
C     0.783167 0.783167 0.026821     C
C     0.783167 0.783167 0.973179     C
C     0.783167 0.973179 0.216833     C
C     0.783167 0.973179 0.783167     C
Zn    0.793367 0.206633 0.206633    Zn
Zn    0.793367 0.2066330000000001 0.793367    Zn
Zn    0.793367 0.2933670000000001 0.293367    Zn
Zn    0.793367 0.2933670000000001 0.7066330000000001    Zn
Zn    0.793367 0.7066330000000001 0.293367    Zn
Zn    0.793367 0.7066330000000001 0.7066330000000001    Zn
Zn    0.793367 0.793367 0.206633    Zn
Zn    0.793367 0.793367 0.793367    Zn
H      0.80869 0.04881000000000011  0.80869     H
H      0.80869  0.19131 0.048810000000000006     H
H      0.80869 0.19131000000000015  0.95119     H
H      0.80869  0.30869  0.45119     H
H      0.80869  0.30869  0.54881     H
H      0.80869  0.45119  0.30869     H
H      0.80869 0.45119000000000015  0.69131     H
H      0.80869  0.54881  0.30869     H
H      0.80869  0.69131  0.45119     H
H      0.80869  0.69131  0.54881     H
H      0.80869  0.80869 0.048810000000000006     H
H      0.80869  0.80869  0.95119     H
H      0.80869  0.95119  0.19131     H
H      0.80869  0.95119  0.80869     H
O     0.866348 0.21895800000000004 0.21895800000000004     O
O     0.866348 0.2189580000000001 0.781042     O
O     0.866348 0.2810420000000001 0.281042     O
O     0.866348 0.2810420000000001 0.718958     O
O     0.866348 0.718958 0.281042     O
O     0.866348 0.718958 0.718958     O
O     0.866348 0.781042 0.21895800000000004     O
O     0.866348 0.781042 0.781042     O
C     0.888617     0.25     0.25     C
C     0.888617 0.2500000000000001 0.7500000000000001     C
C     0.888617 0.7500000000000001     0.25     C
C     0.888617 0.7500000000000001 0.7500000000000001     C
C     0.946192     0.25     0.25     C
C     0.946192 0.2500000000000001 0.7500000000000001     C
C     0.946192 0.7500000000000001     0.25     C
C     0.946192 0.7500000000000001 0.7500000000000001     C
H      0.95119  0.19131  0.19131     H
H      0.95119  0.30869  0.69131     H
H      0.95119  0.69131  0.69131     H
H      0.95119  0.80869  0.19131     H
C     0.973179 0.216833 0.216833     C
C     0.973179 0.21683300000000008 0.783167     C
C     0.973179 0.2831670000000001 0.283167     C
C     0.973179 0.2831670000000001 0.716833     C
C     0.973179 0.716833 0.283167     C
C     0.973179 0.716833 0.716833     C
C     0.973179 0.783167 0.216833     C
C     0.973179 0.783167 0.783167     C
O     0.18093268912547555 0.8130539388439837 0.053367049850360004     O
C     0.1991283873749677 0.8547005904691218 0.08017509882533945     C
F     0.15891893070216787 0.8838473963335326 0.09293683255262285     F
F     0.23337751412213176 0.8823278293437127 0.053021031270063086     F
F     0.22320770927097688 0.8398234287001277 0.12442461630237274     F
O     0.18694606623910084 0.18093274648559818 0.053367133145575646     O
C     0.1452994588537676 0.19912851089533173 0.08017520594192683     C
F     0.11615263894964153 0.1589190924122017 0.09293702793059472     F
F     0.11767221300327324 0.23337762076732932 0.05302112419966027     F
F     0.1601766893685276 0.2232078819397789 0.12442467356061411     F
O     0.6869460662391008 0.6809327464855983 0.05336713314557566     O
C     0.6452994588537676 0.6991285108953321 0.08017520594192677     C
F     0.6161526389496417 0.6589190924122017 0.09293702793059462     F
F     0.6176722130032732 0.7333776207673295 0.05302112419966018     F
F     0.6601766893685276 0.7232078819397793 0.12442467356061407     F
O     0.6809326891254756 0.3130539388439838 0.05336704985035997     O
C     0.6991283873749675 0.35470059046912183 0.08017509882533942     C
F     0.6589189307021678 0.38384739633353254 0.09293683255262276     F
F     0.7333775141221316 0.3823278293437127 0.05302103127006305     F
F     0.7232077092709768 0.3398234287001277 0.12442461630237274     F
O     0.18694606623910098 0.6809327464855982 0.5533671331455756     O
C     0.1452994588537678 0.6991285108953318 0.5801752059419268     C
F     0.11615263894964171 0.6589190924122017 0.5929370279305948     F
F     0.1176722130032734 0.7333776207673293 0.5530211241996602     F
F     0.16017668936852775 0.7232078819397789 0.6244246735606143     F
O     0.18093268912547558 0.3130539388439836 0.55336704985036     O
C     0.1991283873749676 0.3547005904691217 0.5801750988253395     C
F     0.1589189307021678 0.3838473963335325 0.5929368325526229     F
F     0.23337751412213154 0.38232782934371246 0.5530210312700631     F
F     0.22320770927097672 0.33982342870012777 0.6244246163023728     F
O     0.6809326891254757 0.8130539388439837 0.55336704985036     O
C     0.699128387374968 0.8547005904691217 0.5801750988253395     C
F     0.6589189307021679 0.8838473963335326 0.5929368325526229     F
F     0.7333775141221318 0.8823278293437127 0.5530210312700631     F
F     0.7232077092709771 0.8398234287001277 0.6244246163023728     F
O     0.6869460662391008 0.1809327464855982 0.5533671331455756     O
C     0.6452994588537676 0.19912851089533182 0.5801752059419268     C
F     0.6161526389496419 0.15891909241220176 0.5929370279305947     F
F     0.6176722130032732 0.23337762076732932 0.5530211241996602     F
F     0.6601766893685276 0.22320788193977897 0.624424673560614     F
O     0.9466328676122525 0.8190673048253939 0.8130538727990284     O
C     0.9198247734222247 0.8008716085651874 0.8547004961882299     C
F     0.9070629538831821 0.8410810727689869 0.8838472540909839     F
F     0.9469788336742208 0.7666225291141475 0.8823278008732849     F
F     0.8755753033831819 0.7767922308884775 0.8398232836069386     F
O     0.9466328941079905 0.1869460562120364 0.8190672653192794     O
C     0.9198248264218003 0.14529944049367038 0.8008715124533918     C
F     0.9070630335161063 0.11615261501338725 0.8410809361249587     F
F     0.9469789008691458 0.11767220481843653 0.7666223885897565     F
F     0.8755753422455483 0.1601766570578252 0.7767921632167207     F
O     0.4455636532871059 0.6813758495374332 0.8126107990757113     O
C     0.4441953181367062 0.6890285233644657 0.8648004796498467     C
F     0.40764253208988716 0.6586788547329059 0.8840875217225821     F
F     0.43501207823764615 0.7383370102147327 0.8773683603409929     F
F     0.48985123749159576 0.6758481296399484 0.8871830114849465     F
O     0.4455636703607354 0.31261078159256794 0.818624178278217     O
C     0.44419531838805865 0.36480046429555385 0.8109715219774544     C
F     0.4076425482828985 0.3840874885053485 0.8413212211607348     F
F     0.4350120427371274 0.377368358621275 0.7616630452608691     F
F     0.48985124152311976 0.38718300218035745 0.8241518923342936     F
O     0.9466328941079907 0.6869460562120365 0.3190672653192795     O
C     0.9198248264218005 0.6452994404936702 0.3008715124533917     C
F     0.9070630335161065 0.6161526150133873 0.34108093612495893     F
F     0.9469789008691458 0.6176722048184363 0.26662238858975645     F
F     0.8755753422455483 0.660176657057825 0.27679216321672057     F
O     0.9466328676122528 0.319067304825394 0.31305387279902863     O
C     0.9198247734222247 0.30087160856518735 0.35470049618822996     C
F     0.9070629538831823 0.34108107276898697 0.3838472540909838     F
F     0.9469788336742206 0.26662252911414763 0.3823278008732849     F
F     0.875575303383182 0.2767922308884775 0.33982328360693853     F
O     0.4455636703607354 0.8126107815925678 0.3186241782782168     O
C     0.4441953183880584 0.8648004642955538 0.3109715219774543     C
F     0.40764254828289836 0.8840874885053486 0.34132122116073454     F
F     0.4350120427371274 0.8773683586212749 0.26166304526086903     F
F     0.48985124152311954 0.8871830021803575 0.32415189233429337     F
O     0.44556365328710573 0.1813758495374331 0.3126107990757113     O
C     0.4441953181367061 0.18902852336446577 0.3648004796498469     C
F     0.4076425320898869 0.1586788547329058 0.3840875217225821     F
F     0.43501207823764587 0.23833701021473264 0.3773683603409929     F
F     0.48985123749159565 0.1758481296399482 0.3871830114849466     F
O     0.8186241506637608 0.05443635459070209 0.1873892085551725     O
C     0.8109714814711139 0.05580469736618354 0.1351995275014069     C
F     0.8413211485744871 0.09235748921378387 0.11591249401758913     F
F     0.7616629949408571 0.06498793483400346 0.12263164377825628     F
F     0.8241518813406801 0.010148782761523941 0.11281698959541675     F
O     0.16836423832042233 0.049798972269649855 0.21374331900791724     O
C     0.1579015854865289 0.07867107296152619 0.17083489077368033     C
F     0.10739921301735357 0.08749045484502264 0.16987186225736978     F
F     0.17285535742688274 0.055393650567768196 0.12715243769430332     F
F     0.1825396064049174 0.12502844623558224 0.17260275688218635     F
O     0.6683642383204224 0.54979897226965 0.21374331900791724     O
C     0.6579015854865289 0.5786710729615262 0.17083489077368033     C
F     0.6073992130173536 0.5874904548450227 0.16987186225736978     F
F     0.6728553574268827 0.5553936505677683 0.12715243769430334     F
F     0.6825396064049173 0.6250284462355823 0.1726027568821864     F
O     0.31862415066376076 0.5544363545907021 0.18738920855517255     O
C     0.31097148147111386 0.5558046973661837 0.1351995275014069     C
F     0.34132114857448725 0.592357489213784 0.11591249401758912     F
F     0.26166299494085726 0.5649879348340036 0.1226316437782562     F
F     0.32415188134068 0.510148782761524 0.11281698959541674     F
O     0.6683642383204225 0.049798972269649994 0.7137433190079174     O
C     0.6579015854865289 0.07867107296152627 0.6708348907736803     C
F     0.6073992130173536 0.08749045484502263 0.6698718622573698     F
F     0.6728553574268828 0.055393650567768266 0.6271524376943034     F
F     0.6825396064049173 0.12502844623558232 0.6726027568821865     F
O     0.3186241506637606 0.05443635459070217 0.6873892085551725     O
C     0.31097148147111364 0.055804697366183605 0.635199527501407     C
F     0.34132114857448703 0.09235748921378402 0.615912494017589     F
F     0.2616629949408572 0.06498793483400345 0.6226316437782562     F
F     0.32415188134067996 0.010148782761523924 0.6128169895954168     F
O     0.8186241506637608 0.5544363545907023 0.6873892085551725     O
C     0.8109714814711141 0.5558046973661838 0.6351995275014071     C
F     0.8413211485744874 0.5923574892137842 0.6159124940175892     F
F     0.7616629949408574 0.5649879348340037 0.6226316437782564     F
F     0.8241518813406801 0.5101487827615241 0.6128169895954168     F
O     0.1683642383204224 0.5497989722696499 0.7137433190079171     O
C     0.15790158548652874 0.5786710729615262 0.6708348907736802     C
F     0.10739921301735364 0.5874904548450226 0.6698718622573696     F
F     0.17285535742688268 0.5553936505677682 0.6271524376943033     F
F     0.18253960640491726 0.6250284462355822 0.6726027568821863     F
