data_I
_chemical_name_common  'IRMOF-1-40//IRMOF-1-40_index_func/cif/functionalized_IRMOF-1-40_NH2_index_[56, 57, 268, 269, 64, 65, 276, 277, 58, 354, 150, 278, 143, 271, 67, 363, 0, 6, 3, 5, 214, 216, 213, 219]'
_cell_length_a 25.86584
_cell_length_b 25.86584
_cell_length_c 25.86584
_cell_angle_alpha 90.00000
_cell_angle_beta  90.00000
_cell_angle_gamma 90.00000
_space_group_name_H-M_alt      'P 1'


loop_
_space_group_symop_operation_xyz
  'x, y, z' 

loop_
_atom_site_label
_atom_site_fract_x
_atom_site_fract_y
_atom_site_fract_z
_atom_site_type_symbol
C     0.026821 0.216833 0.216833     C
C     0.026821 0.216833 0.783167     C
C     0.026821 0.283167 0.283167     C
C     0.026821 0.283167 0.716833     C
C     0.026821 0.716833 0.283167     C
C     0.026821 0.716833 0.716833     C
C     0.026821 0.783167 0.216833     C
C     0.026821 0.783167 0.783167     C
H     0.048810000000000006  0.19131  0.80869     H
H     0.048810000000000006  0.30869  0.30869     H
H     0.048810000000000006  0.69131  0.30869     H
H     0.048810000000000006  0.80869  0.80869     H
C     0.053808     0.25     0.25     C
C     0.053808     0.25 0.7500000000000001     C
C     0.053808 0.7500000000000001     0.25     C
C     0.053808 0.7500000000000001 0.7500000000000001     C
C     0.111383     0.25     0.25     C
C     0.111383     0.25 0.7500000000000001     C
C     0.111383 0.7500000000000001     0.25     C
C     0.111383 0.7500000000000001 0.7500000000000001     C
O     0.133652 0.21895800000000004 0.21895800000000004     O
O     0.133652 0.21895800000000004 0.781042     O
O     0.133652 0.281042 0.281042     O
O     0.133652 0.281042 0.718958     O
O     0.133652 0.718958 0.281042     O
O     0.133652 0.718958 0.718958     O
O     0.133652 0.781042 0.21895800000000004     O
O     0.133652 0.781042 0.781042     O
H      0.19131  0.19131  0.95119     H
H      0.19131  0.30869  0.45119     H
H      0.19131  0.30869  0.54881     H
H      0.19131  0.45119  0.30869     H
H      0.19131  0.45119  0.69131     H
H      0.19131  0.69131  0.45119     H
H      0.19131  0.80869 0.048810000000000006     H
H      0.19131  0.80869  0.95119     H
H      0.19131  0.95119  0.19131     H
H      0.19131  0.95119  0.80869     H
Zn    0.206633 0.206633 0.206633    Zn
Zn    0.206633 0.206633 0.793367    Zn
Zn    0.206633 0.293367 0.293367    Zn
Zn    0.206633 0.293367 0.7066330000000001    Zn
Zn    0.206633 0.7066330000000001 0.293367    Zn
Zn    0.206633 0.7066330000000001 0.7066330000000001    Zn
Zn    0.206633 0.793367 0.206633    Zn
Zn    0.206633 0.793367 0.793367    Zn
C     0.216833 0.026821 0.216833     C
C     0.216833 0.026821 0.783167     C
C     0.216833 0.216833 0.026821     C
C     0.216833 0.216833 0.973179     C
C     0.216833 0.283167 0.47317900000000007     C
C     0.216833 0.283167 0.526821     C
C     0.216833 0.47317900000000007 0.283167     C
C     0.216833 0.47317900000000007 0.716833     C
C     0.216833 0.526821 0.283167     C
C     0.216833 0.526821 0.716833     C
C     0.216833 0.716833 0.47317900000000007     C
C     0.216833 0.716833 0.526821     C
C     0.216833 0.783167 0.026821     C
C     0.216833 0.783167 0.973179     C
C     0.216833 0.973179 0.216833     C
C     0.216833 0.973179 0.783167     C
O     0.21895800000000004 0.133652 0.21895800000000004     O
O     0.21895800000000004 0.133652 0.781042     O
O     0.21895800000000004 0.21895800000000004 0.133652     O
O     0.21895800000000004 0.21895800000000004 0.866348     O
O     0.21895800000000004 0.281042 0.366348     O
O     0.21895800000000004 0.281042 0.633652     O
O     0.21895800000000004 0.366348 0.281042     O
O     0.21895800000000004 0.366348 0.718958     O
O     0.21895800000000004 0.633652 0.281042     O
O     0.21895800000000004 0.633652 0.718958     O
O     0.21895800000000004 0.718958 0.366348     O
O     0.21895800000000004 0.718958 0.633652     O
O     0.21895800000000004 0.781042 0.133652     O
O     0.21895800000000004 0.781042 0.866348     O
O     0.21895800000000004 0.866348 0.21895800000000004     O
O     0.21895800000000004 0.866348 0.781042     O
C         0.25 0.053808     0.25     C
C         0.25 0.053808 0.7500000000000001     C
C         0.25 0.111383     0.25     C
C         0.25 0.111383 0.7500000000000001     C
C         0.25     0.25 0.053808     C
C         0.25     0.25 0.111383     C
O         0.25     0.25     0.25     O
C         0.25     0.25 0.388617     C
C         0.25     0.25 0.446192     C
C         0.25     0.25 0.553808     C
C         0.25     0.25 0.611383     C
O         0.25     0.25 0.7500000000000001     O
C         0.25     0.25 0.888617     C
C         0.25     0.25 0.946192     C
C         0.25 0.388617     0.25     C
C         0.25 0.388617 0.7500000000000001     C
C         0.25 0.446192     0.25     C
C         0.25 0.446192 0.7500000000000001     C
C         0.25 0.553808     0.25     C
C         0.25 0.553808 0.7500000000000001     C
C         0.25 0.611383     0.25     C
C         0.25 0.611383 0.7500000000000001     C
C         0.25 0.7500000000000001 0.053808     C
C         0.25 0.7500000000000001 0.111383     C
O         0.25 0.7500000000000001     0.25     O
C         0.25 0.7500000000000001 0.388617     C
C         0.25 0.7500000000000001 0.446192     C
C         0.25 0.7500000000000001 0.553808     C
C         0.25 0.7500000000000001 0.611383     C
O         0.25 0.7500000000000001 0.7500000000000001     O
C         0.25 0.7500000000000001 0.888617     C
C         0.25 0.7500000000000001 0.946192     C
C         0.25 0.888617     0.25     C
C         0.25 0.888617 0.7500000000000001     C
C         0.25 0.946192     0.25     C
C         0.25 0.946192 0.7500000000000001     C
O     0.281042 0.133652 0.281042     O
O     0.281042 0.133652 0.718958     O
O     0.281042 0.21895800000000004 0.366348     O
O     0.281042 0.21895800000000004 0.633652     O
O     0.281042 0.281042 0.133652     O
O     0.281042 0.281042 0.866348     O
O     0.281042 0.366348 0.21895800000000004     O
O     0.281042 0.366348 0.781042     O
O     0.281042 0.633652 0.21895800000000004     O
O     0.281042 0.633652 0.781042     O
O     0.281042 0.718958 0.133652     O
O     0.281042 0.718958 0.866348     O
O     0.281042 0.781042 0.366348     O
O     0.281042 0.781042 0.633652     O
O     0.281042 0.866348 0.281042     O
O     0.281042 0.866348 0.718958     O
C     0.283167 0.026821 0.283167     C
C     0.283167 0.026821 0.716833     C
C     0.283167 0.216833 0.47317900000000007     C
C     0.283167 0.216833 0.526821     C
C     0.283167 0.283167 0.026821     C
C     0.283167 0.283167 0.973179     C
C     0.283167 0.47317900000000007 0.216833     C
C     0.283167 0.47317900000000007 0.783167     C
C     0.283167 0.526821 0.216833     C
C     0.283167 0.526821 0.783167     C
C     0.283167 0.716833 0.026821     C
C     0.283167 0.716833 0.973179     C
C     0.283167 0.783167 0.47317900000000007     C
C     0.283167 0.783167 0.526821     C
C     0.283167 0.973179 0.283167     C
C     0.283167 0.973179 0.716833     C
Zn    0.293367 0.206633 0.293367    Zn
Zn    0.293367 0.206633 0.7066330000000001    Zn
Zn    0.293367 0.293367 0.206633    Zn
Zn    0.293367 0.293367 0.793367    Zn
Zn    0.293367 0.7066330000000001 0.206633    Zn
Zn    0.293367 0.7066330000000001 0.793367    Zn
Zn    0.293367 0.793367 0.293367    Zn
Zn    0.293367 0.793367 0.7066330000000001    Zn
H      0.30869 0.048810000000000006  0.30869     H
H      0.30869 0.048810000000000006  0.69131     H
H      0.30869  0.19131  0.45119     H
H      0.30869  0.30869 0.048810000000000006     H
H      0.30869  0.30869  0.95119     H
H      0.30869  0.45119  0.19131     H
H      0.30869  0.45119  0.80869     H
H      0.30869  0.54881  0.19131     H
H      0.30869  0.54881  0.80869     H
H      0.30869  0.69131  0.95119     H
H      0.30869  0.80869  0.45119     H
H      0.30869  0.80869  0.54881     H
H      0.30869  0.95119  0.30869     H
H      0.30869  0.95119  0.69131     H
O     0.366348 0.21895800000000004 0.281042     O
O     0.366348 0.21895800000000004 0.718958     O
O     0.366348 0.281042 0.21895800000000004     O
O     0.366348 0.281042 0.781042     O
O     0.366348 0.718958 0.21895800000000004     O
O     0.366348 0.718958 0.781042     O
O     0.366348 0.781042 0.281042     O
O     0.366348 0.781042 0.718958     O
C     0.388617     0.25     0.25     C
C     0.388617     0.25 0.7500000000000001     C
C     0.388617 0.7500000000000001     0.25     C
C     0.388617 0.7500000000000001 0.7500000000000001     C
C     0.446192     0.25     0.25     C
C     0.446192     0.25 0.7500000000000001     C
C     0.446192 0.7500000000000001     0.25     C
C     0.446192 0.7500000000000001 0.7500000000000001     C
H      0.45119  0.19131  0.30869     H
H      0.45119  0.19131  0.69131     H
H      0.45119  0.30869  0.19131     H
H      0.45119  0.30869  0.80869     H
H      0.45119  0.69131  0.19131     H
H      0.45119  0.69131  0.80869     H
H      0.45119  0.80869  0.30869     H
H      0.45119  0.80869  0.69131     H
C     0.47317900000000007 0.216833 0.283167     C
C     0.47317900000000007 0.216833 0.716833     C
C     0.47317900000000007 0.283167 0.216833     C
C     0.47317900000000007 0.283167 0.783167     C
C     0.47317900000000007 0.716833 0.216833     C
C     0.47317900000000007 0.716833 0.783167     C
C     0.47317900000000007 0.783167 0.283167     C
C     0.47317900000000007 0.783167 0.716833     C
C     0.526821 0.216833 0.283167     C
C     0.526821 0.216833 0.716833     C
C     0.526821 0.283167 0.216833     C
C     0.526821 0.283167 0.783167     C
C     0.526821 0.716833 0.216833     C
C     0.526821 0.716833 0.783167     C
C     0.526821 0.783167 0.283167     C
C     0.526821 0.783167 0.716833     C
H      0.54881  0.19131  0.30869     H
H      0.54881  0.30869  0.80869     H
H      0.54881  0.69131  0.80869     H
H      0.54881  0.80869  0.30869     H
C     0.553808     0.25     0.25     C
C     0.553808     0.25 0.7500000000000001     C
C     0.553808 0.7500000000000001     0.25     C
C     0.553808 0.7500000000000001 0.7500000000000001     C
C     0.611383     0.25     0.25     C
C     0.611383     0.25 0.7500000000000001     C
C     0.611383 0.7500000000000001     0.25     C
C     0.611383 0.7500000000000001 0.7500000000000001     C
O     0.633652 0.21895800000000004 0.281042     O
O     0.633652 0.21895800000000004 0.718958     O
O     0.633652 0.281042 0.21895800000000004     O
O     0.633652 0.281042 0.781042     O
O     0.633652 0.718958 0.21895800000000004     O
O     0.633652 0.718958 0.781042     O
O     0.633652 0.781042 0.281042     O
O     0.633652 0.781042 0.718958     O
H      0.69131  0.19131  0.45119     H
H      0.69131  0.30869 0.048810000000000006     H
H      0.69131  0.30869  0.95119     H
H      0.69131  0.45119  0.19131     H
H      0.69131  0.45119  0.80869     H
H      0.69131  0.69131  0.95119     H
H      0.69131  0.80869  0.45119     H
H      0.69131  0.80869  0.54881     H
H      0.69131  0.95119  0.30869     H
H      0.69131  0.95119  0.69131     H
Zn    0.7066330000000001 0.206633 0.293367    Zn
Zn    0.7066330000000001 0.206633 0.7066330000000001    Zn
Zn    0.7066330000000001 0.293367 0.206633    Zn
Zn    0.7066330000000001 0.293367 0.793367    Zn
Zn    0.7066330000000001 0.7066330000000001 0.206633    Zn
Zn    0.7066330000000001 0.7066330000000001 0.793367    Zn
Zn    0.7066330000000001 0.793367 0.293367    Zn
Zn    0.7066330000000001 0.793367 0.7066330000000001    Zn
C     0.716833 0.026821 0.283167     C
C     0.716833 0.026821 0.716833     C
C     0.716833 0.216833 0.47317900000000007     C
C     0.716833 0.216833 0.526821     C
C     0.716833 0.283167 0.026821     C
C     0.716833 0.283167 0.973179     C
C     0.716833 0.47317900000000007 0.216833     C
C     0.716833 0.47317900000000007 0.783167     C
C     0.716833 0.526821 0.216833     C
C     0.716833 0.526821 0.783167     C
C     0.716833 0.716833 0.026821     C
C     0.716833 0.716833 0.973179     C
C     0.716833 0.783167 0.47317900000000007     C
C     0.716833 0.783167 0.526821     C
C     0.716833 0.973179 0.283167     C
C     0.716833 0.973179 0.716833     C
O     0.718958 0.133652 0.281042     O
O     0.718958 0.133652 0.718958     O
O     0.718958 0.21895800000000004 0.366348     O
O     0.718958 0.21895800000000004 0.633652     O
O     0.718958 0.281042 0.133652     O
O     0.718958 0.281042 0.866348     O
O     0.718958 0.366348 0.21895800000000004     O
O     0.718958 0.366348 0.781042     O
O     0.718958 0.633652 0.21895800000000004     O
O     0.718958 0.633652 0.781042     O
O     0.718958 0.718958 0.133652     O
O     0.718958 0.718958 0.866348     O
O     0.718958 0.781042 0.366348     O
O     0.718958 0.781042 0.633652     O
O     0.718958 0.866348 0.281042     O
O     0.718958 0.866348 0.718958     O
C     0.7500000000000001 0.053808     0.25     C
C     0.7500000000000001 0.053808 0.7500000000000001     C
C     0.7500000000000001 0.111383     0.25     C
C     0.7500000000000001 0.111383 0.7500000000000001     C
C     0.7500000000000001     0.25 0.053808     C
C     0.7500000000000001     0.25 0.111383     C
O     0.7500000000000001     0.25     0.25     O
C     0.7500000000000001     0.25 0.388617     C
C     0.7500000000000001     0.25 0.446192     C
C     0.7500000000000001     0.25 0.553808     C
C     0.7500000000000001     0.25 0.611383     C
O     0.7500000000000001     0.25 0.7500000000000001     O
C     0.7500000000000001     0.25 0.888617     C
C     0.7500000000000001     0.25 0.946192     C
C     0.7500000000000001 0.388617     0.25     C
C     0.7500000000000001 0.388617 0.7500000000000001     C
C     0.7500000000000001 0.446192     0.25     C
C     0.7500000000000001 0.446192 0.7500000000000001     C
C     0.7500000000000001 0.553808     0.25     C
C     0.7500000000000001 0.553808 0.7500000000000001     C
C     0.7500000000000001 0.611383     0.25     C
C     0.7500000000000001 0.611383 0.7500000000000001     C
C     0.7500000000000001 0.7500000000000001 0.053808     C
C     0.7500000000000001 0.7500000000000001 0.111383     C
O     0.7500000000000001 0.7500000000000001     0.25     O
C     0.7500000000000001 0.7500000000000001 0.388617     C
C     0.7500000000000001 0.7500000000000001 0.446192     C
C     0.7500000000000001 0.7500000000000001 0.553808     C
C     0.7500000000000001 0.7500000000000001 0.611383     C
O     0.7500000000000001 0.7500000000000001 0.7500000000000001     O
C     0.7500000000000001 0.7500000000000001 0.888617     C
C     0.7500000000000001 0.7500000000000001 0.946192     C
C     0.7500000000000001 0.888617     0.25     C
C     0.7500000000000001 0.888617 0.7500000000000001     C
C     0.7500000000000001 0.946192     0.25     C
C     0.7500000000000001 0.946192 0.7500000000000001     C
O     0.781042 0.133652 0.21895800000000004     O
O     0.781042 0.133652 0.781042     O
O     0.781042 0.21895800000000004 0.133652     O
O     0.781042 0.21895800000000004 0.866348     O
O     0.781042 0.281042 0.366348     O
O     0.781042 0.281042 0.633652     O
O     0.781042 0.366348 0.281042     O
O     0.781042 0.366348 0.718958     O
O     0.781042 0.633652 0.281042     O
O     0.781042 0.633652 0.718958     O
O     0.781042 0.718958 0.366348     O
O     0.781042 0.718958 0.633652     O
O     0.781042 0.781042 0.133652     O
O     0.781042 0.781042 0.866348     O
O     0.781042 0.866348 0.21895800000000004     O
O     0.781042 0.866348 0.781042     O
C     0.783167 0.026821 0.216833     C
C     0.783167 0.026821 0.783167     C
C     0.783167 0.216833 0.026821     C
C     0.783167 0.216833 0.973179     C
C     0.783167 0.283167 0.47317900000000007     C
C     0.783167 0.283167 0.526821     C
C     0.783167 0.47317900000000007 0.283167     C
C     0.783167 0.47317900000000007 0.716833     C
C     0.783167 0.526821 0.283167     C
C     0.783167 0.526821 0.716833     C
C     0.783167 0.716833 0.47317900000000007     C
C     0.783167 0.716833 0.526821     C
C     0.783167 0.783167 0.026821     C
C     0.783167 0.783167 0.973179     C
C     0.783167 0.973179 0.216833     C
C     0.783167 0.973179 0.783167     C
Zn    0.793367 0.206633 0.206633    Zn
Zn    0.793367 0.206633 0.793367    Zn
Zn    0.793367 0.293367 0.293367    Zn
Zn    0.793367 0.293367 0.7066330000000001    Zn
Zn    0.793367 0.7066330000000001 0.293367    Zn
Zn    0.793367 0.7066330000000001 0.7066330000000001    Zn
Zn    0.793367 0.793367 0.206633    Zn
Zn    0.793367 0.793367 0.793367    Zn
H      0.80869 0.048810000000000006  0.19131     H
H      0.80869 0.048810000000000006  0.80869     H
H      0.80869  0.19131  0.95119     H
H      0.80869  0.30869  0.45119     H
H      0.80869  0.30869  0.54881     H
H      0.80869  0.45119  0.30869     H
H      0.80869  0.45119  0.69131     H
H      0.80869  0.54881  0.30869     H
H      0.80869  0.54881  0.69131     H
H      0.80869  0.69131  0.45119     H
H      0.80869  0.80869 0.048810000000000006     H
H      0.80869  0.80869  0.95119     H
H      0.80869  0.95119  0.19131     H
H      0.80869  0.95119  0.80869     H
O     0.866348 0.21895800000000004 0.21895800000000004     O
O     0.866348 0.21895800000000004 0.781042     O
O     0.866348 0.281042 0.281042     O
O     0.866348 0.281042 0.718958     O
O     0.866348 0.718958 0.281042     O
O     0.866348 0.718958 0.718958     O
O     0.866348 0.781042 0.21895800000000004     O
O     0.866348 0.781042 0.781042     O
C     0.888617     0.25     0.25     C
C     0.888617     0.25 0.7500000000000001     C
C     0.888617 0.7500000000000001     0.25     C
C     0.888617 0.7500000000000001 0.7500000000000001     C
C     0.946192     0.25     0.25     C
C     0.946192     0.25 0.7500000000000001     C
C     0.946192 0.7500000000000001     0.25     C
C     0.946192 0.7500000000000001 0.7500000000000001     C
H      0.95119  0.19131  0.19131     H
H      0.95119  0.19131  0.80869     H
H      0.95119  0.30869  0.30869     H
H      0.95119  0.30869  0.69131     H
H      0.95119  0.69131  0.30869     H
H      0.95119  0.69131  0.69131     H
H      0.95119  0.80869  0.19131     H
H      0.95119  0.80869  0.80869     H
C     0.973179 0.216833 0.216833     C
C     0.973179 0.216833 0.783167     C
C     0.973179 0.283167 0.283167     C
C     0.973179 0.283167 0.716833     C
C     0.973179 0.716833 0.283167     C
C     0.973179 0.716833 0.716833     C
C     0.973179 0.783167 0.216833     C
C     0.973179 0.783167 0.783167     C
N     0.18403342146215465 0.05318071797046063 0.18403342146215465     N
H     0.14776339039128428 0.06292235287258739 0.1960602857876611     H
H     0.1960602857876612 0.06292235287258731 0.14776339039128433     H
N     0.1840334214621546 0.053180717970460666 0.8159665785378453     N
H     0.19606028578766105 0.06292235287258731 0.8522366096087157     H
H     0.14776339039128442 0.06292235287258754 0.8039397142123387     H
N     0.6840334214621546 0.053180717970460624 0.3159665785378453     N
H     0.6960602857876609 0.06292235287258738 0.3522366096087157     H
H     0.6477633903912842 0.06292235287258752 0.3039397142123388     H
N     0.6840334214621546 0.05318071797046062 0.6840334214621546     N
H     0.6477633903912843 0.06292235287258738 0.6960602857876609     H
H     0.6960602857876609 0.06292235287258745 0.6477633903912843     H
N     0.1840334214621546 0.5531807179704605 0.31596657853784543     N
H     0.19606028578766105 0.5629223528725873 0.3522366096087159     H
H     0.14776339039128414 0.5629223528725875 0.303939714212339     H
N     0.18403342146215465 0.5531807179704605 0.6840334214621546     N
H     0.14776339039128414 0.5629223528725871 0.6960602857876611     H
H     0.19606028578766133 0.5629223528725873 0.647763390391284     H
N     0.6840334214621546 0.5531807179704605 0.18403342146215465     N
H     0.647763390391284 0.5629223528725871 0.1960602857876612     H
H     0.6960602857876612 0.5629223528725872 0.1477633903912842     H
N     0.6840334214621546 0.5531807179704606 0.8159665785378453     N
H     0.6960602857876608 0.5629223528725873 0.8522366096087158     H
H     0.6477633903912843 0.5629223528725879 0.803939714212339     H
N     0.18403342146215465 0.18403342146215465 0.05318071797046063     N
H     0.1960602857876611 0.14776339039128425 0.06292235287258739     H
H     0.1477633903912843 0.1960602857876612 0.06292235287258734     H
N     0.8159665785378453 0.1840334214621546 0.053180717970460666     N
H     0.8522366096087157 0.19606028578766105 0.06292235287258731     H
H     0.8039397142123387 0.14776339039128442 0.06292235287258754     H
N     0.3159665785378453 0.6840334214621546 0.053180717970460624     N
H     0.3522366096087157 0.6960602857876609 0.06292235287258738     H
H     0.3039397142123388 0.6477633903912843 0.06292235287258752     H
N     0.6840334214621546 0.6840334214621546 0.05318071797046062     N
H     0.6960602857876609 0.6477633903912842 0.06292235287258738     H
H     0.6477633903912843 0.6960602857876609 0.06292235287258759     H
N     0.31596657853784543 0.1840334214621546 0.5531807179704605     N
H     0.3522366096087159 0.19606028578766105 0.5629223528725873     H
H     0.303939714212339 0.14776339039128428 0.5629223528725875     H
N     0.6840334214621546 0.18403342146215465 0.5531807179704605     N
H     0.6960602857876609 0.14776339039128414 0.5629223528725871     H
H     0.647763390391284 0.19606028578766124 0.5629223528725873     H
N     0.18403342146215465 0.6840334214621546 0.5531807179704605     N
H     0.1960602857876612 0.647763390391284 0.5629223528725871     H
H     0.1477633903912842 0.6960602857876612 0.5629223528725872     H
N     0.8159665785378453 0.6840334214621546 0.5531807179704606     N
H     0.8522366096087157 0.6960602857876608 0.5629223528725874     H
H     0.803939714212339 0.6477633903912843 0.5629223528725877     H
N     0.05318071797046063 0.18403342146215465 0.18403342146215465     N
H     0.06292235287258739 0.1960602857876611 0.14776339039128428     H
H     0.06292235287258731 0.14776339039128433 0.1960602857876612     H
N     1.0531807179704606 0.8159665785378453 0.18403342146215454     N
H     1.0629223528725873 0.8522366096087158 0.19606028578766077     H
H     1.062922352872588 0.803939714212339 0.14776339039128414     H
N     0.053180717970460624 0.3159665785378453 0.6840334214621546     N
H     0.06292235287258738 0.3522366096087157 0.6960602857876609     H
H     0.06292235287258752 0.30393971421233884 0.6477633903912842     H
N     1.0531807179704604 0.6840334214621546 0.6840334214621546     N
H     1.0629223528725873 0.6960602857876612 0.6477633903912842     H
H     1.0629223528725873 0.6477633903912843 0.6960602857876614     H
N     0.5531807179704605 0.31596657853784543 0.1840334214621546     N
H     0.5629223528725873 0.3522366096087159 0.19606028578766105     H
H     0.5629223528725875 0.303939714212339 0.14776339039128414     H
N     0.5531807179704605 0.6840334214621546 0.18403342146215465     N
H     0.5629223528725871 0.6960602857876609 0.14776339039128414     H
H     0.5629223528725873 0.647763390391284 0.19606028578766124     H
N     0.5531807179704605 0.18403342146215465 0.6840334214621546     N
H     0.5629223528725871 0.1960602857876612 0.647763390391284     H
H     0.5629223528725873 0.1477633903912842 0.6960602857876612     H
N     0.5531807179704606 0.8159665785378453 0.6840334214621546     N
H     0.5629223528725874 0.8522366096087157 0.6960602857876608     H
H     0.5629223528725877 0.8039397142123391 0.6477633903912843     H
