data_I
_chemical_name_common  '/Users/gianmarcoterrones/Research/MOFs/MOF_structures/water_stability_work_extra_structs/cleaned_from_CCDC/LOQSIU'
_cell_length_a 24.25769
_cell_length_b 24.25769
_cell_length_c 24.25769
_cell_angle_alpha 109.43586
_cell_angle_beta  109.43586
_cell_angle_gamma 109.43586
_space_group_name_H-M_alt      'P 1'


loop_
_space_group_symop_operation_xyz
  'x, y, z' 

loop_
_atom_site_label
_atom_site_fract_x
_atom_site_fract_y
_atom_site_fract_z
_atom_site_type_symbol
C       0.0008   0.4901     0.14     C
C       0.0013   0.9768   0.1343     C
N       0.0014   0.3586    0.458     N
C       0.0017   0.3666   0.2151     C
C        0.006   0.2274    0.377     C
C       0.0061   0.1606   0.6685     C
C       0.0072   0.7167    0.054     C
H       0.0072   0.8264   0.1288     H
N       0.0077   0.3778   0.9718     N
C       0.0078   0.1998   0.0194     C
C       0.0085   0.5939   0.1722     C
O       0.0095   0.9802   0.7453     O
C       0.0105   0.9167   0.8798     C
C       0.0115   0.4469   0.5582     C
C       0.0119   0.8008   0.1515     C
C       0.0123    0.692   0.9344     C
H       0.0143   0.4616   0.1508     H
C        0.016   0.7125   0.6847     C
O       0.0162   0.4836   0.8116     O
C       0.0177   0.6833   0.8792     C
H       0.0184   0.1477   0.3483     H
C       0.0194   0.0078   0.1998     C
O       0.0215   0.4115   0.9441     O
C       0.0218   0.5501   0.1889     C
C       0.0221   0.2882   0.3808     C
H       0.0237   0.0637   0.5576     H
H       0.0237   0.6477   0.3487     H
H        0.026   0.6718   0.9586     H
H       0.0266    0.638   0.2054     H
H        0.027   0.9912   0.6691     H
H       0.0275   0.9808   0.8464     H
H       0.0277   0.3359   0.1451     H
H        0.029   0.9975   0.1201     H
O       0.0309    0.051   0.3966     O
C       0.0318   0.7726    0.688     C
H       0.0323   0.3586   0.4886     H
C       0.0328   0.6859   0.3443     C
C       0.0357   0.0958   0.5999     C
C       0.0363   0.1927   0.3598     C
H       0.0363   0.7059   0.1659     H
H       0.0383   0.8775   0.6545     H
H       0.0383   0.8918   0.7227     H
H       0.0394   0.4097   0.2426     H
H       0.0427   0.9422   0.4246     H
H       0.0434   0.6643   0.8701     H
H       0.0453    0.562   0.2339     H
C       0.0501   0.5218   0.6889     C
H       0.0504   0.2298   0.0572     H
O        0.051   0.3966   0.0309     O
H        0.053   0.6608    0.712     H
C        0.054   0.0072   0.7167     C
H       0.0561   0.7409   0.0793     H
H       0.0572   0.0504   0.2298     H
H       0.0576   0.5637   0.5237     H
C       0.0582   0.9469   0.5115     C
C       0.0598   0.7996   0.3329     C
H        0.062   0.5453   0.7339     H
H       0.0637   0.5576   0.0237     H
C       0.0641   0.7009   0.7112     C
H       0.0646   0.9184   0.2443     H
C       0.0666    0.902   0.7031     C
C       0.0707   0.1952    0.719     C
H       0.0708     0.84   0.3325     H
C       0.0734   0.4695   0.6078     C
C       0.0743   0.3161   0.3697     C
C       0.0755   0.9605   0.4689     C
H       0.0759   0.5792   0.9419     H
H       0.0792   0.5759   0.4419     H
H       0.0793   0.0561   0.7409     H
H       0.0807   0.8635   0.8463     H
H        0.083   0.2296   0.7602     H
H       0.0835   0.3548   0.3662     H
O       0.0848    0.955   0.6169     O
C       0.0879   0.9439   0.9159     C
O       0.0881   0.8214   0.1921     O
C       0.0938   0.2252   0.3595     C
C       0.0939   0.5085   0.6722     C
C       0.0939   0.7253   0.3554     C
C       0.0958   0.5999   0.0357     C
C       0.0966   0.8183   0.7158     C
C       0.0999   0.5958   0.5357     C
C       0.1004   0.1316   0.6494     C
C       0.1024   0.9769   0.7286     C
C       0.1052   0.7782   0.3443     C
C       0.1059   0.6109   0.9873     C
C       0.1078   0.9695   0.5734     C
C       0.1094   0.9301   0.2688     C
C       0.1108   0.9038   0.8869     C
C       0.1109   0.6059   0.4873     C
C       0.1117    0.286   0.3639     C
O       0.1166    0.882    0.722     O
O       0.1169    0.455   0.5848     O
C       0.1187    0.181    0.711     C
H       0.1201    0.029   0.9975     H
H       0.1206   0.2057   0.3564     H
H        0.123   0.6419   0.1327     H
C       0.1284   0.7448   0.7371     C
H       0.1287   0.7163   0.3707     H
H       0.1288   0.0072   0.8264     H
C       0.1305    0.886   0.2492     C
C       0.1316   0.6494   0.1004     C
H       0.1327    0.123   0.6419     H
C       0.1343   0.0013   0.9768     C
H        0.138   0.5266   0.7054     H
C       0.1386   0.9884   0.6884     C
C         0.14   0.0008   0.4901     C
H       0.1419    0.623   0.6327     H
H       0.1448   0.8001   0.3443     H
H       0.1451   0.0277   0.3359     H
C       0.1471   0.8052   0.7408     C
H       0.1477   0.3483   0.0184     H
H       0.1477   0.5237   0.8487     H
C       0.1494   0.6316   0.6004     C
O         0.15   0.2971    0.166     O
H       0.1508   0.0143   0.4616     H
H       0.1508   0.3079   0.3632     H
C       0.1515   0.0119   0.8008     C
H       0.1545   0.3775   0.5383     H
C       0.1551   0.9931    0.326     C
C       0.1606   0.6685   0.0061     C
H       0.1608    0.553    0.212     H
H       0.1611   0.7334    0.753     H
H       0.1636   0.1796    0.471     H
H       0.1643   0.5434   0.3701     H
H       0.1659   0.0363   0.7059     H
O        0.166     0.15   0.2971     O
H       0.1676   0.9688   0.6919     H
C       0.1685   0.6606   0.5061     C
H       0.1691   0.4912    0.527     H
H       0.1711   0.2825    0.498     H
H       0.1718    0.526   0.4586     H
C       0.1722   0.0085   0.5939     C
H       0.1729   0.6737   0.4751     H
H       0.1733   0.1748   0.8144     H
H       0.1737   0.6729   0.9751     H
H       0.1748   0.8144   0.1733     H
H       0.1756   0.4418   0.8172     H
C       0.1759   0.9229   0.9173     C
H       0.1796    0.471   0.1636     H
C        0.181    0.711   0.1187     C
H       0.1816   0.9937   0.8087     H
C       0.1833   0.5177   0.3792     C
H       0.1843   0.4811   0.2936     H
C       0.1847   0.2125    0.516     C
O       0.1855   0.2707   0.2421     O
C       0.1859   0.5328   0.8443     C
C        0.188   0.2726   0.5318     C
C       0.1884   0.4884   0.6386     C
C       0.1889   0.0218   0.5501     C
H       0.1904   0.8951   0.8976     H
H       0.1919   0.4688   0.6676     H
C        0.192   0.5123   0.4344     C
O       0.1921   0.0881   0.8214     O
C       0.1927   0.3598   0.0363     C
C       0.1928   0.2136   0.7549     C
O       0.1929    0.717    0.896     O
C       0.1934   0.8974    0.288     C
C       0.1952    0.719   0.0707     C
H       0.1964   0.7292   0.2123     H
N       0.1966   0.3099   0.2191     N
N       0.1986   0.8101   0.2051     N
C       0.1998   0.0194   0.0078     C
C       0.2009   0.5641   0.2112     C
C       0.2011   0.4877   0.3371     C
C       0.2031    0.402   0.5666     C
C       0.2035   0.4849   0.8266     C
N       0.2051   0.1986   0.8101     N
H       0.2054   0.0266    0.638     H
H       0.2057   0.3564   0.1206     H
H       0.2059   0.5363   0.6659     H
H       0.2088   0.3884   0.7153     H
H       0.2089   0.3866   0.9726     H
C        0.211    0.681   0.6187     C
C       0.2112   0.2009   0.5641     C
H        0.212   0.1608    0.553     H
H       0.2123   0.1964   0.7292     H
C       0.2125    0.516   0.1847     C
H       0.2136    0.262    0.773     H
C       0.2136   0.7549   0.1928     C
C       0.2151   0.0017   0.3666     C
H       0.2153   0.8884   0.7088     H
C       0.2158   0.3183   0.5966     C
H       0.2163   0.6287   0.8707     H
C       0.2167   0.5072    0.554     C
O        0.217   0.6929    0.396     O
C        0.219   0.6952   0.5707     C
N       0.2191   0.1966   0.3099     N
C       0.2217   0.9813   0.9757     C
O        0.222    0.382   0.6166     O
H       0.2227   0.3918   0.5383     H
C       0.2252   0.3595   0.0938     C
C       0.2253   0.5939   0.8554     C
C       0.2253   0.8535   0.2709     C
C       0.2265   0.8528   0.7707     C
C       0.2274    0.377    0.006     C
C       0.2286   0.4769   0.6024     C
H       0.2292   0.6964   0.7123     H
H       0.2296   0.7602    0.083     H
H       0.2298   0.0572   0.0504     H
C       0.2304   0.4865    0.453     C
H       0.2334   0.6611    0.253     H
H       0.2339   0.0453    0.562     H
N        0.236   0.7601   0.8917     N
C        0.236   0.9584   0.3473     C
C       0.2371   0.2448   0.6284     C
O       0.2385   0.2562   0.3503     O
O       0.2394   0.7546   0.3515     O
C       0.2408   0.3052   0.6471     C
H       0.2409   0.5561   0.5793     H
O       0.2421   0.1855   0.2707     O
H       0.2426   0.0394   0.4097     H
C       0.2436   0.4673     0.36     C
N        0.244    0.893   0.7448     N
H       0.2443   0.0646   0.9184     H
N       0.2448    0.393    0.744     N
C       0.2448   0.6284   0.2371     C
O       0.2453   0.4802   0.5095     O
C       0.2492   0.1305    0.886     C
H        0.253   0.2334   0.6611     H
O       0.2546   0.7394   0.8515     O
C       0.2549   0.7136   0.6928     C
O       0.2562   0.3503   0.2385     O
C       0.2569   0.4623   0.4159     C
N       0.2601    0.736   0.3917     N
C       0.2602   0.4971   0.8219     C
H       0.2602   0.7296    0.583     H
H        0.262    0.773   0.2136     H
O       0.2643    0.821   0.9336     O
H       0.2651   0.4562   0.3364     H
H       0.2674   0.9955   0.9938     H
C       0.2688   0.1094   0.9301     C
O       0.2698   0.8492   0.8132     O
O       0.2707   0.2421   0.1855     O
C       0.2707   0.3528   0.7265     C
C       0.2709   0.2253   0.8535     C
C       0.2726   0.5318    0.188     C
O       0.2727   0.8542   0.3149     O
H        0.273    0.762   0.7136     H
H       0.2733    0.425   0.8425     H
C       0.2782   0.6052   0.8443     C
H       0.2799   0.9695   0.3742     H
C       0.2825    0.445   0.8157     C
H       0.2825    0.498   0.1711     H
H       0.2852   0.3725   0.9341     H
C        0.286   0.3639   0.1117     C
C        0.288   0.1934   0.8974     C
C       0.2882   0.3808   0.0221     C
H       0.2936   0.1843   0.4811     H
O       0.2938   0.8826   0.4637     O
O       0.2971    0.166     0.15     O
C       0.2996   0.5598   0.8329     C
H       0.3001   0.6448   0.8443     H
C       0.3008   0.5119   0.6515     C
Eu    0.30361667 0.30361667 0.30361667    Eu
C       0.3052   0.6471   0.2408     C
H       0.3079   0.3632   0.1508     H
H       0.3087   0.4937   0.6816     H
N       0.3099   0.2191   0.1966     N
N       0.3101   0.6986   0.7051     N
O       0.3102   0.3922   0.3895     O
O       0.3116   0.9836   0.5162     O
C       0.3126   0.4327   0.4351     C
O       0.3132   0.3492   0.7698     O
H       0.3144   0.6748   0.6733     H
O       0.3149   0.2727   0.8542     O
C       0.3157    0.945   0.7825     C
C       0.3161   0.3697   0.0743     C
H       0.3172   0.9418   0.6756     H
C       0.3183   0.5966   0.2158     C
C       0.3206   0.3938   0.9803     C
O        0.321   0.7643   0.4336     O
O       0.3214   0.5881   0.6921     O
C       0.3219   0.9971   0.7602     C
C        0.326   0.1551   0.9931     C
H       0.3264   0.5072   0.6288     H
C       0.3266   0.9849   0.7035     C
N       0.3274   0.9446   0.4857     N
H       0.3306    0.466   0.8318     H
H       0.3318    0.966   0.8306     H
H       0.3325   0.0708     0.84     H
C       0.3329   0.0598   0.7996     C
H       0.3359   0.1451   0.0277     H
H       0.3364   0.2651   0.4562     H
C       0.3371   0.2011   0.4877     C
O       0.3374   0.9504   0.9477     O
H         0.34   0.5708   0.8325     H
H       0.3425    0.925   0.7733     H
C       0.3443   0.0328   0.6859     C
C       0.3443   0.1052   0.7782     C
H       0.3443   0.1448   0.8001     H
N       0.3454   0.4498   0.4962     N
H       0.3463   0.3635   0.5807     H
H       0.3464   0.4808   0.5275     H
C       0.3473    0.236   0.9584     C
H        0.348   0.3723   0.9804     H
H       0.3483   0.0184   0.1477     H
H       0.3485   0.3687   0.4866     H
H       0.3487   0.0237   0.6477     H
O       0.3492   0.7698   0.3132     O
O       0.3503   0.2385   0.2562     O
O       0.3515   0.2394   0.7546     O
Eu     0.35185  0.85186  0.90048    Eu
Eu     0.35186  0.85185  0.40048    Eu
C       0.3528   0.7265   0.2707     C
C       0.3535   0.7253   0.7709     C
O       0.3542   0.7727   0.8149     O
H       0.3548   0.3662   0.0835     H
C       0.3554   0.0939   0.7253     C
H       0.3564   0.1206   0.2057     H
N       0.3586    0.458   0.0014     N
H       0.3586   0.4886   0.0323     H
C       0.3595   0.0938   0.2252     C
C       0.3598   0.0363   0.1927     C
C         0.36   0.2436   0.4673     C
H       0.3632   0.1508   0.3079     H
H       0.3635   0.5807   0.3463     H
C       0.3639   0.1117    0.286     C
O       0.3649   0.9647    0.462     O
H       0.3662   0.0835   0.3548     H
C       0.3666   0.2151   0.0017     C
H       0.3687   0.4866   0.3485     H
C       0.3697   0.0743   0.3161     C
H       0.3701   0.1643   0.5434     H
H       0.3707   0.1287   0.7163     H
H       0.3723   0.9804    0.348     H
H       0.3725   0.9341   0.2852     H
H       0.3742   0.2799   0.9695     H
C        0.377    0.006   0.2274     C
H       0.3775   0.5383   0.1545     H
N       0.3778   0.9718   0.0077     N
C       0.3792   0.1833   0.5177     C
C       0.3798   0.4167   0.5105     C
C       0.3808   0.0221   0.2882     C
O        0.382   0.6166    0.222     O
O       0.3826   0.7938   0.9637     O
C        0.386   0.6305   0.7492     C
H       0.3866   0.9726   0.2089     H
C       0.3869   0.4038   0.6108     C
H       0.3884   0.7153   0.2088     H
O       0.3895   0.3102   0.3922     O
N       0.3917   0.2601    0.736     N
H       0.3918   0.5383   0.2227     H
O       0.3922   0.3895   0.3102     O
N        0.393    0.744   0.2448     N
C       0.3937   0.4741   0.9772     C
C       0.3938   0.9803   0.3206     C
O       0.3942   0.4335   0.9303     O
H       0.3951   0.6904   0.3976     H
O        0.396    0.217   0.6929     O
O       0.3966   0.0309    0.051     O
C       0.3974   0.6934    0.788     C
H       0.3976   0.3951   0.6904     H
Eu     0.40048  0.35186  0.85185    Eu
C        0.402   0.5666   0.2031     C
C       0.4038   0.6108   0.3869     C
H       0.4097   0.2426   0.0394     H
O       0.4115   0.9441   0.0215     O
H       0.4128   0.4241   0.4956     H
C       0.4159   0.2569   0.4623     C
C       0.4159   0.4439   0.5879     C
C       0.4167   0.5105   0.3798     C
C       0.4173   0.4229   0.6759     C
H       0.4184   0.5646   0.7443     H
C       0.4229   0.6759   0.4173     C
H       0.4241   0.4956   0.4128     H
H       0.4246   0.0427   0.9422     H
H        0.425   0.8425   0.2733     H
C       0.4301   0.6094   0.7688     C
O       0.4303   0.9335   0.8942     O
C       0.4327   0.4351   0.3126     C
O       0.4335   0.9303   0.3942     O
O       0.4336    0.321   0.7643     O
H       0.4341   0.8725   0.7852     H
C       0.4344    0.192   0.5123     C
C       0.4351   0.3126   0.4327     C
H       0.4418   0.8172   0.1756     H
H       0.4419   0.0792   0.5759     H
H       0.4422   0.5427   0.9246     H
C       0.4439   0.5879   0.4159     C
O       0.4441   0.9115   0.5215     O
N       0.4446   0.8274   0.9857     N
C        0.445   0.8157   0.2825     C
C       0.4469   0.5582   0.0115     C
O       0.4477   0.4504   0.8374     O
N       0.4498   0.4962   0.3454     N
O       0.4504   0.8374   0.4477     O
C        0.453   0.2304   0.4865     C
O        0.455   0.5848   0.1169     O
H       0.4562   0.3364   0.2651     H
N        0.458   0.0014   0.3586     N
C       0.4584    0.736   0.8473     C
H       0.4586   0.1718    0.526     H
C       0.4605   0.5755   0.9689     C
H       0.4616   0.1508   0.0143     H
O        0.462   0.3649   0.9647     O
C       0.4623   0.4159   0.2569     C
O       0.4637   0.2938   0.8826     O
O       0.4647   0.8649    0.962     O
H        0.466   0.8318   0.3306     H
C       0.4673     0.36   0.2436     C
H       0.4688   0.6676   0.1919     H
C       0.4689   0.0755   0.9605     C
C       0.4695   0.6078   0.0734     C
H       0.4695   0.7799   0.8742     H
H        0.471   0.1636   0.1796     H
N       0.4718   0.8778   0.5077     N
H       0.4726   0.8866   0.7089     H
C       0.4741   0.9772   0.3937     C
H       0.4751   0.1729   0.6737     H
C       0.4757   0.4813   0.7217     C
C       0.4768   0.5013   0.6343     C
C       0.4769   0.6024   0.2286     C
C       0.4772   0.9741   0.8937     C
O       0.4802   0.5095   0.2453     O
C       0.4803   0.8938   0.8206     C
H       0.4804   0.8723    0.848     H
H       0.4808   0.5275   0.3464     H
H       0.4811   0.2936   0.1843     H
C       0.4813   0.7217   0.4757     C
O       0.4836   0.8116   0.0162     O
C       0.4849   0.8266   0.2035     C
N       0.4857   0.3274   0.9446     N
C       0.4865    0.453   0.2304     C
H       0.4866   0.3485   0.3687     H
C       0.4873   0.1109   0.6059     C
C       0.4877   0.3371   0.2011     C
C       0.4884   0.6386   0.1884     C
H       0.4886   0.0323   0.3586     H
C       0.4901     0.14   0.0008     C
H       0.4912    0.527   0.1691     H
C       0.4931   0.6551    0.826     C
H       0.4937   0.6816   0.3087     H
H       0.4938   0.4955   0.7674     H
H       0.4955   0.7674   0.4938     H
H       0.4956   0.4128   0.4241     H
N       0.4962   0.3454   0.4498     N
C       0.4971   0.8219   0.2602     C
H       0.4975    0.529   0.6201     H
H        0.498   0.1711   0.2825     H
C       0.5008     0.64   0.9901     C
C       0.5013   0.6343   0.4768     C
N       0.5014    0.958   0.8586     N
C       0.5017   0.7151   0.8666     C
C        0.506    0.877   0.7274     C
C       0.5061   0.1685   0.6606     C
C       0.5072    0.554   0.2167     C
H       0.5072   0.6288   0.3264     H
N       0.5077   0.4718   0.8778     N
C       0.5078   0.5194   0.6998     C
C       0.5085   0.6722   0.0939     C
O       0.5095   0.2453   0.4802     O
C       0.5105   0.3798   0.4167     C
C       0.5115   0.0582   0.9469     C
C       0.5119   0.6515   0.3008     C
C       0.5123   0.4344    0.192     C
H       0.5143   0.6508   0.9616     H
C        0.516   0.1847   0.2125     C
O       0.5162   0.3116   0.9836     O
C       0.5177   0.3792   0.1833     C
H       0.5184   0.8483   0.6477     H
C       0.5194   0.6998   0.5078     C
O       0.5215   0.4441   0.9115     O
C       0.5218   0.6889   0.0501     C
C       0.5221   0.8808   0.7882     C
H       0.5237   0.0576   0.5637     H
H       0.5237   0.8487   0.1477     H
H        0.526   0.4586   0.1718     H
H       0.5266   0.7054    0.138     H
H        0.527   0.1691   0.4912     H
H       0.5275   0.3464   0.4808     H
H       0.5277   0.6451   0.8359     H
H        0.529   0.6201   0.4975     H
O       0.5309   0.8966    0.551     O
C       0.5318    0.188   0.2726     C
H       0.5323   0.9886   0.8586     H
C       0.5328   0.8443   0.1859     C
C       0.5357   0.0999   0.5958     C
H       0.5363   0.6659   0.2059     H
C       0.5363   0.8598   0.6927     C
H       0.5383   0.1545   0.3775     H
H       0.5383   0.2227   0.3918     H
H       0.5394   0.7426   0.9097     H
H       0.5427   0.9246   0.4422     H
H       0.5434   0.3701   0.1643     H
H       0.5453   0.7339    0.062     H
C       0.5501   0.1889   0.0218     C
H       0.5504   0.5572   0.7298     H
O        0.551   0.5309   0.8966     O
H        0.553    0.212   0.1608     H
C        0.554   0.2167   0.5072     C
H       0.5561   0.5793   0.2409     H
H       0.5572   0.7298   0.5504     H
H       0.5576   0.0237   0.0637     H
C       0.5582   0.0115   0.4469     C
C       0.5598   0.8329   0.2996     C
H        0.562   0.2339   0.0453     H
H       0.5637   0.5237   0.0576     H
C       0.5641   0.2112   0.2009     C
H       0.5646   0.7443   0.4184     H
C       0.5666   0.2031    0.402     C
C       0.5707    0.219   0.6952     C
H       0.5708   0.8325     0.34     H
C       0.5734   0.1078   0.9695     C
C       0.5743   0.8697   0.8161     C
C       0.5755   0.9689   0.4605     C
H       0.5759   0.4419   0.0792     H
H       0.5792   0.9419   0.0759     H
H       0.5793   0.2409   0.5561     H
H       0.5807   0.3463   0.3635     H
H        0.583   0.2602   0.7296     H
H       0.5835   0.8662   0.8548     H
O       0.5848   0.1169    0.455     O
C       0.5879   0.4159   0.4439     C
O       0.5881   0.6921   0.3214     O
C       0.5938   0.8595   0.7252     C
C       0.5939   0.1722   0.0085     C
C       0.5939   0.8554   0.2253     C
C       0.5958   0.5357   0.0999     C
C       0.5966   0.2158   0.3183     C
C       0.5999   0.0357   0.0958     C
C       0.6004   0.1494   0.6316     C
C       0.6024   0.2286   0.4769     C
C       0.6052   0.8443   0.2782     C
C       0.6059   0.4873   0.1109     C
C       0.6078   0.0734   0.4695     C
C       0.6094   0.7688   0.4301     C
C       0.6108   0.3869   0.4038     C
C       0.6109   0.9873   0.1059     C
C       0.6117   0.8639    0.786     C
O       0.6166    0.222    0.382     O
O       0.6169   0.0848    0.955     O
C       0.6187    0.211    0.681     C
H       0.6201   0.4975    0.529     H
H       0.6206   0.8564   0.7057     H
H        0.623   0.6327   0.1419     H
C       0.6284   0.2371   0.2448     C
H       0.6287   0.8707   0.2163     H
H       0.6288   0.3264   0.5072     H
C       0.6305   0.7492    0.386     C
C       0.6316   0.6004   0.1494     C
H       0.6327   0.1419    0.623     H
C       0.6343   0.4768   0.5013     C
H        0.638   0.2054   0.0266     H
C       0.6386   0.1884   0.4884     C
C         0.64   0.9901   0.5008     C
H       0.6419   0.1327    0.123     H
H       0.6448   0.8443   0.3001     H
H       0.6451   0.8359   0.5277     H
C       0.6471   0.2408   0.3052     C
H       0.6477   0.3487   0.0237     H
H       0.6477   0.5184   0.8483     H
C       0.6494   0.1004   0.1316     C
O         0.65    0.666   0.7971     O
H       0.6508   0.8632   0.8079     H
H       0.6508   0.9616   0.5143     H
C       0.6515   0.3008   0.5119     C
H       0.6545   0.0383   0.8775     H
C       0.6551    0.826   0.4931     C
C       0.6606   0.5061   0.1685     C
H       0.6608    0.712    0.053     H
H       0.6611    0.253   0.2334     H
H       0.6636    0.971   0.6796     H
H       0.6643   0.8701   0.0434     H
H       0.6659   0.2059   0.5363     H
O        0.666   0.7971     0.65     O
H       0.6676   0.1919   0.4688     H
C       0.6685   0.0061   0.1606     C
H       0.6691    0.027   0.9912     H
H       0.6711    0.998   0.7825     H
H       0.6718   0.9586    0.026     H
C       0.6722   0.0939   0.5085     C
H       0.6729   0.9751   0.1737     H
H       0.6733   0.3144   0.6748     H
H       0.6737   0.4751   0.1729     H
H       0.6748   0.6733   0.3144     H
H       0.6756   0.3172   0.9418     H
C       0.6759   0.4173   0.4229     C
H       0.6796   0.6636    0.971     H
C        0.681   0.6187    0.211     C
H       0.6816   0.3087   0.4937     H
C       0.6833   0.8792   0.0177     C
H       0.6843   0.7936   0.9811     H
C       0.6847    0.016   0.7125     C
O       0.6855   0.7421   0.7707     O
C       0.6859   0.3443   0.0328     C
C        0.688   0.0318   0.7726     C
C       0.6884   0.1386   0.9884     C
C       0.6889   0.0501   0.5218     C
H       0.6904   0.3976   0.3951     H
H       0.6919   0.1676   0.9688     H
C        0.692   0.9344   0.0123     C
O       0.6921   0.3214   0.5881     O
C       0.6927   0.5363   0.8598     C
C       0.6928   0.2549   0.7136     C
O       0.6929    0.396    0.217     O
C       0.6934    0.788   0.3974     C
C       0.6952   0.5707    0.219     C
H       0.6964   0.7123   0.2292     H
N       0.6966   0.7191   0.8099     N
N       0.6986   0.7051   0.3101     N
C       0.6998   0.5078   0.5194     C
C       0.7009   0.7112   0.0641     C
C       0.7011   0.8371   0.9877     C
C       0.7031   0.0666    0.902     C
C       0.7035   0.3266   0.9849     C
N       0.7051   0.3101   0.6986     N
H       0.7054    0.138   0.5266     H
H       0.7057   0.6206   0.8564     H
H       0.7059   0.1659   0.0363     H
H       0.7088   0.2153   0.8884     H
H       0.7089   0.4726   0.8866     H
C        0.711   0.1187    0.181     C
C       0.7112   0.0641   0.7009     C
H        0.712    0.053   0.6608     H
H       0.7123   0.2292   0.6964     H
C       0.7125   0.6847    0.016     C
H       0.7136    0.273    0.762     H
C       0.7136   0.6928   0.2549     C
C       0.7151   0.8666   0.5017     C
H       0.7153   0.2088   0.3884     H
C       0.7158   0.0966   0.8183     C
H       0.7163   0.3707   0.1287     H
C       0.7167    0.054   0.0072     C
O        0.717    0.896   0.1929     O
C        0.719   0.0707   0.1952     C
N       0.7191   0.8099   0.6966     N
C       0.7217   0.4757   0.4813     C
O        0.722   0.1166    0.882     O
H       0.7227   0.0383   0.8918     H
C       0.7252   0.5938   0.8595     C
C       0.7253   0.3554   0.0939     C
C       0.7253   0.7709   0.3535     C
C       0.7265   0.2707   0.3528     C
C       0.7274    0.506    0.877     C
C       0.7286   0.1024   0.9769     C
H       0.7292   0.2123   0.1964     H
H       0.7296    0.583   0.2602     H
H       0.7298   0.5504   0.5572     H
C       0.7304    0.953   0.9865     C
H       0.7334    0.753   0.1611     H
H       0.7339    0.062   0.5453     H
N        0.736   0.3917   0.2601     N
C        0.736   0.8473   0.4584     C
C       0.7371   0.1284   0.7448     C
O       0.7385   0.8503   0.7562     O
O       0.7394   0.8515   0.2546     O
C       0.7408   0.1471   0.8052     C
H       0.7409   0.0793   0.0561     H
O       0.7421   0.7707   0.6855     O
H       0.7426   0.9097   0.5394     H
C       0.7436     0.86   0.9673     C
N        0.744   0.2448    0.393     N
H       0.7443   0.4184   0.5646     H
N       0.7448    0.244    0.893     N
C       0.7448   0.7371   0.1284     C
O       0.7453   0.0095   0.9802     O
C       0.7492    0.386   0.6305     C
H        0.753   0.1611   0.7334     H
O       0.7546   0.3515   0.2394     O
C       0.7549   0.1928   0.2136     C
O       0.7562   0.7385   0.8503     O
C       0.7569   0.9159   0.9623     C
N       0.7601   0.8917    0.236     N
H       0.7602    0.083   0.2296     H
C       0.7602   0.3219   0.9971     C
H        0.762   0.7136    0.273     H
O       0.7643   0.4336    0.321     O
H       0.7651   0.8364   0.9562     H
H       0.7674   0.4938   0.4955     H
C       0.7688   0.4301   0.6094     C
O       0.7698   0.3132   0.3492     O
C       0.7707   0.2265   0.8528     C
O       0.7707   0.6855   0.7421     O
C       0.7709   0.3535   0.7253     C
C       0.7726    0.688   0.0318     C
O       0.7727   0.8149   0.3542     O
H        0.773   0.2136    0.262     H
H       0.7733   0.3425    0.925     H
C       0.7782   0.3443   0.1052     C
H       0.7799   0.8742   0.4695     H
C       0.7825   0.3157    0.945     C
H       0.7825   0.6711    0.998     H
H       0.7852   0.4341   0.8725     H
C        0.786   0.6117   0.8639     C
C        0.788   0.3974   0.6934     C
C       0.7882   0.5221   0.8808     C
H       0.7936   0.9811   0.6843     H
O       0.7938   0.9637   0.3826     O
O       0.7971     0.65    0.666     O
C       0.7996   0.3329   0.0598     C
H       0.8001   0.3443   0.1448     H
C       0.8008   0.1515   0.0119     C
Eu    0.80361667 0.80361667 0.80361667    Eu
C       0.8052   0.7408   0.1471     C
H       0.8079   0.6508   0.8632     H
H       0.8087   0.1816   0.9937     H
N       0.8099   0.6966   0.7191     N
N       0.8101   0.2051   0.1986     N
O       0.8102   0.8895   0.8922     O
O       0.8116   0.0162   0.4836     O
C       0.8126   0.9351   0.9327     C
O       0.8132   0.2698   0.8492     O
H       0.8144   0.1733   0.1748     H
O       0.8149   0.3542   0.7727     O
C       0.8157   0.2825    0.445     C
C       0.8161   0.5743   0.8697     C
H       0.8172   0.1756   0.4418     H
C       0.8183   0.7158   0.0966     C
C       0.8206   0.4803   0.8938     C
O        0.821   0.9336   0.2643     O
O       0.8214   0.1921   0.0881     O
C       0.8219   0.2602   0.4971     C
C        0.826   0.4931   0.6551     C
H       0.8264   0.1288   0.0072     H
C       0.8266   0.2035   0.4849     C
N       0.8274   0.9857   0.4446     N
H       0.8306   0.3318    0.966     H
H       0.8318   0.3306    0.466     H
H       0.8325     0.34   0.5708     H
C       0.8329   0.2996   0.5598     C
H       0.8359   0.5277   0.6451     H
H       0.8364   0.9562   0.7651     H
C       0.8371   0.9877   0.7011     C
O       0.8374   0.4477   0.4504     O
H         0.84   0.3325   0.0708     H
H       0.8425   0.2733    0.425     H
C       0.8443   0.1859   0.5328     C
C       0.8443   0.2782   0.6052     C
H       0.8443   0.3001   0.6448     H
N       0.8454   0.9962   0.9498     N
H       0.8463   0.0807   0.8635     H
H       0.8464   0.0275   0.9808     H
C       0.8473   0.4584    0.736     C
H        0.848   0.4804   0.8723     H
H       0.8483   0.6477   0.5184     H
H       0.8485   0.9866   0.8687     H
H       0.8487   0.1477   0.5237     H
O       0.8492   0.8132   0.2698     O
O       0.8503   0.7562   0.7385     O
O       0.8515   0.2546   0.7394     O
Eu     0.85185  0.40048  0.35186    Eu
Eu     0.85186  0.90048  0.35185    Eu
C       0.8528   0.7707   0.2265     C
C       0.8535   0.2709   0.2253     C
O       0.8542   0.3149   0.2727     O
H       0.8548   0.5835   0.8662     H
C       0.8554   0.2253   0.5939     C
H       0.8564   0.7057   0.6206     H
N       0.8586   0.5014    0.958     N
H       0.8586   0.5323   0.9886     H
C       0.8595   0.7252   0.5938     C
C       0.8598   0.6927   0.5363     C
C         0.86   0.9673   0.7436     C
H       0.8632   0.8079   0.6508     H
H       0.8635   0.8463   0.0807     H
C       0.8639    0.786   0.6117     C
O       0.8649    0.962   0.4647     O
H       0.8662   0.8548   0.5835     H
C       0.8666   0.5017   0.7151     C
H       0.8687   0.8485   0.9866     H
C       0.8697   0.8161   0.5743     C
H       0.8701   0.0434   0.6643     H
H       0.8707   0.2163   0.6287     H
H       0.8723    0.848   0.4804     H
H       0.8725   0.7852   0.4341     H
H       0.8742   0.4695   0.7799     H
C        0.877   0.7274    0.506     C
H       0.8775   0.6545   0.0383     H
N       0.8778   0.5077   0.4718     N
C       0.8792   0.0177   0.6833     C
C       0.8798   0.0105   0.9167     C
C       0.8808   0.7882   0.5221     C
O        0.882    0.722   0.1166     O
O       0.8826   0.4637   0.2938     O
C        0.886   0.2492   0.1305     C
H       0.8866   0.7089   0.4726     H
C       0.8869   0.1108   0.9038     C
H       0.8884   0.7088   0.2153     H
O       0.8895   0.8922   0.8102     O
N       0.8917    0.236   0.7601     N
H       0.8918   0.7227   0.0383     H
O       0.8922   0.8102   0.8895     O
N        0.893   0.7448    0.244     N
C       0.8937   0.4772   0.9741     C
C       0.8938   0.8206   0.4803     C
O       0.8942   0.4303   0.9335     O
H       0.8951   0.8976   0.1904     H
O        0.896   0.1929    0.717     O
O       0.8966    0.551   0.5309     O
C       0.8974    0.288   0.1934     C
H       0.8976   0.1904   0.8951     H
Eu     0.90048  0.35185  0.85186    Eu
C        0.902   0.7031   0.0666     C
C       0.9038   0.8869   0.1108     C
H       0.9097   0.5394   0.7426     H
O       0.9115   0.5215   0.4441     O
H       0.9128   0.9956   0.9241     H
C       0.9159   0.0879   0.9439     C
C       0.9159   0.9623   0.7569     C
C       0.9167   0.8798   0.0105     C
C       0.9173   0.1759   0.9229     C
H       0.9184   0.2443   0.0646     H
C       0.9229   0.9173   0.1759     C
H       0.9241   0.9128   0.9956     H
H       0.9246   0.4422   0.5427     H
H        0.925   0.7733   0.3425     H
C       0.9301   0.2688   0.1094     C
O       0.9303   0.3942   0.4335     O
C       0.9327   0.8126   0.9351     C
O       0.9335   0.8942   0.4303     O
O       0.9336   0.2643    0.821     O
H       0.9341   0.2852   0.3725     H
C       0.9344   0.0123    0.692     C
C       0.9351   0.9327   0.8126     C
H       0.9418   0.6756   0.3172     H
H       0.9419   0.0759   0.5792     H
H       0.9422   0.4246   0.0427     H
C       0.9439   0.9159   0.0879     C
O       0.9441   0.0215   0.4115     O
N       0.9446   0.4857   0.3274     N
C        0.945   0.7825   0.3157     C
C       0.9469   0.5115   0.0582     C
O       0.9477   0.3374   0.9504     O
N       0.9498   0.8454   0.9962     N
O       0.9504   0.9477   0.3374     O
C        0.953   0.9865   0.7304     C
O        0.955   0.6169   0.0848     O
H       0.9562   0.7651   0.8364     H
N        0.958   0.8586   0.5014     N
C       0.9584   0.3473    0.236     C
H       0.9586    0.026   0.6718     H
C       0.9605   0.4689   0.0755     C
H       0.9616   0.5143   0.6508     H
O        0.962   0.4647   0.8649     O
C       0.9623   0.7569   0.9159     C
O       0.9637   0.3826   0.7938     O
O       0.9647    0.462   0.3649     O
H        0.966   0.8306   0.3318     H
C       0.9673   0.7436     0.86     C
H       0.9688   0.6919   0.1676     H
C       0.9689   0.4605   0.5755     C
H       0.9695   0.3742   0.2799     H
C       0.9695   0.5734   0.1078     C
H        0.971   0.6796   0.6636     H
N       0.9718   0.0077   0.3778     N
H       0.9726   0.2089   0.3866     H
C       0.9741   0.8937   0.4772     C
H       0.9751   0.1737   0.6729     H
C       0.9757   0.2217   0.9813     C
C       0.9768   0.1343   0.0013     C
C       0.9769   0.7286   0.1024     C
C       0.9772   0.3937   0.4741     C
O       0.9802   0.7453   0.0095     O
C       0.9803   0.3206   0.3938     C
H       0.9804    0.348   0.3723     H
H       0.9808   0.8464   0.0275     H
H       0.9811   0.6843   0.7936     H
C       0.9813   0.9757   0.2217     C
O       0.9836   0.5162   0.3116     O
C       0.9849   0.7035   0.3266     C
N       0.9857   0.4446   0.8274     N
C       0.9865   0.7304    0.953     C
H       0.9866   0.8687   0.8485     H
C       0.9873   0.1059   0.6109     C
C       0.9877   0.7011   0.8371     C
C       0.9884   0.6884   0.1386     C
H       0.9886   0.8586   0.5323     H
C       0.9901   0.5008     0.64     C
H       0.9912   0.6691    0.027     H
C       0.9931    0.326   0.1551     C
H       0.9937   0.8087   0.1816     H
H       0.9938   0.2674   0.9955     H
H       0.9955   0.9938   0.2674     H
H       0.9956   0.9241   0.9128     H
N       0.9962   0.9498   0.8454     N
C       0.9971   0.7602   0.3219     C
H       0.9975   0.1201    0.029     H
H        0.998   0.7825   0.6711     H
