data_I
_chemical_name_common  'mil-101-no2//mil-101-no2_functionalized/cif/functionalized_mil-101-no2_NO2_1'
_cell_length_a 62.83990
_cell_length_b 62.83990
_cell_length_c 62.83990
_cell_angle_alpha 60.00000
_cell_angle_beta  60.00000
_cell_angle_gamma 60.00000
_space_group_name_H-M_alt      'P 1'


loop_
_space_group_symop_operation_xyz
  'x, y, z' 

loop_
_atom_site_label
_atom_site_fract_x
_atom_site_fract_y
_atom_site_fract_z
_atom_site_type_symbol
Cr    -8.357010000265008e-07 0.715899 0.284101    Cr
O     -5.189919999593062e-07  0.68377  0.31623     O
Cr    -3.8309200003916466e-07 0.284099   0.7159    Cr
O     -2.5441300002815304e-07  0.31623      0.5     O
Cr    -2.4319300001574007e-07   0.7159      0.5    Cr
O     -1.640080000420152e-07      0.5  0.31623     O
F     -9.816629997771997e-08 0.250459      0.5     F
O     -5.0136899992780926e-08  0.31623 0.6837689999999998     O
Cr    -1.688899994856108e-08 0.49999899999999997   0.7159    Cr
F     1.560979999426504e-08      0.5 0.250459     F
O     2.6746100009744644e-07 0.500001 0.6837689999999998     O
Cr    3.8944199996782114e-07 0.499999 0.284101    Cr
Cr    6.157460000488779e-07 0.28409900000000005      0.5    Cr
O     6.269660000612909e-07 0.6837690000000001      0.5     O
C     0.0034797199999999917 0.46564000000000005 0.3739199999999999     C
C     0.003479839999999984 0.4656389999999999 0.656961     C
C     0.003480229999999973 0.37391899999999995  0.46564     C
C     0.003480230000000084 0.6569589999999998  0.46564     C
C     0.0034804199999999563 0.6569600000000001 0.3739199999999999     C
C     0.003480540000000004 0.373919 0.656961     C
C     0.003519340000000065 0.44166099999999997 0.658699     C
C     0.003519720000000004 0.6586999999999998 0.441659     C
C     0.003520030000000063 0.396121 0.441659     C
C     0.0035202699999999643 0.44166000000000005 0.396119     C
C     0.003520700000000071   0.6587 0.396119     C
C     0.003521009999999908 0.396119 0.658699     C
C     0.007439370000000001 0.8515799999999999 0.301981     C
C     0.007439600000000046 0.3019810000000001 0.851579     C
C     0.007440060000000026 0.338999 0.301981     C
C     0.007440260000000046  0.30198    0.339     C
C     0.007440679999999991 0.851579    0.339     C
C     0.007440720000000067 0.33900000000000013 0.851579     C
Cr    0.010429299999999975 0.7941099999999999  0.84773    Cr
Cr    0.010430199999999945 0.8477289999999998 0.794109    Cr
Cr    0.010430799999999962 0.847729  0.84773    Cr
O     0.012530700000000117 0.8291559999999999 0.8291559999999999     O
F     0.01611009999999996 0.8618490000000001 0.760189     F
O     0.016939200000000015  0.52218  0.63184     O
O     0.01693950000000008 0.631839  0.52218     O
O     0.016939900000000035 0.3290400000000001  0.52218     O
O     0.016939900000000035 0.6318389999999999 0.329041     O
O     0.01694000000000004 0.5221789999999998 0.329041     O
O     0.01694029999999999 0.3290390000000001  0.63184     O
H     0.018507700000000002 0.8459269999999999 0.350608     H
H     0.018508499999999983 0.35060899999999995 0.845925     H
H     0.018509200000000017 0.284956 0.350608     H
O     0.018509399999999995 0.12077099999999998 0.198869     O
O     0.018509600000000022  0.19887 0.120769     O
O     0.01851040000000003  0.19887  0.16185     O
O     0.018510600000000023 0.12076900000000002  0.16185     O
O     0.018510599999999974  0.16185 0.198869     O
O     0.018510999999999993  0.16185 0.120769     O
C     0.02038989999999999  0.68671  0.14359     C
C     0.020390300000000056  0.64931 0.6867099999999999     C
C     0.020390399999999864 0.3127510000000001 0.854109     C
C     0.02039060000000001 0.143589 0.6867099999999999     C
C     0.02039059999999987 0.14359100000000002 0.6493090000000001     C
C     0.020390599999999898 0.6493090000000001  0.14359     C
C     0.020390599999999814 0.6867100000000002 0.6493090000000001     C
C     0.020390899999999976  0.31275 0.31274899999999994     C
C     0.020391099999999954 0.854109 0.31274899999999994     C
C     0.021239600000000025 0.3350800000000001   0.5603     C
C     0.021239700000000028   0.5603 0.335081     C
C     0.021239900000000034  0.33508  0.58338     C
C     0.021240200000000042  0.58338   0.5603     C
C     0.021240499999999884 0.583379 0.335081     C
C     0.0212406 0.5602990000000001  0.58338     C
C     0.02296989999999998 0.10930900000000002  0.18386     C
C     0.022970399999999995 0.18385899999999997 0.109309     C
C     0.022970500000000012  0.18386  0.18386     C
O     0.02470960000000008 0.4691299999999998 0.650809     O
O     0.024710000000000037 0.650809 0.46912999999999994     O
O     0.024710500000000052 0.3553489999999999 0.46912999999999994     O
O     0.024710499999999996 0.35534999999999994 0.650809     O
O     0.024710600000000055 0.4691289999999999  0.35535     O
O     0.0247109999999999 0.650809  0.35535     O
C     0.025539299999999987   0.3958   0.4184     C
C     0.02553990000000006 0.418399 0.39579899999999996     C
C     0.025540300000000016 0.6602599999999998   0.4184     C
C     0.025540599999999997 0.395799  0.66026     C
C     0.02554059999999997 0.6602600000000001 0.39579899999999996     C
C     0.025540800000000113 0.41839899999999997  0.66026     C
O     0.02783909999999999   0.4654 0.281661     O
O     0.02783930000000001 0.2816600000000001   0.4654     O
O     0.02783989999999996 0.725099 0.281661     O
O     0.027840099999999923 0.7250990000000002   0.4654     O
O     0.02784049999999999 0.28165899999999994 0.725099     O
O     0.027840499999999935 0.46539900000000006 0.725099     O
O     0.030279000000000056  0.51478  0.25424     O
O     0.03027909999999992  0.25424   0.7007     O
O     0.030279500000000015 0.700699  0.25424     O
O     0.030279699999999993 0.254239  0.51478     O
O     0.03028019999999995 0.514779   0.7007     O
O     0.03028019999999987 0.7007000000000001  0.51478     O
H     0.030638399999999982  0.14111 0.630632     H
H     0.03063860000000001  0.63063 0.141111     H
H     0.030639099999999975 0.6976179999999998 0.630632     H
C     0.03424089999999999 0.661839 0.661839     C
C     0.03424100000000002 0.6618389999999998  0.14208     C
C     0.0342411 0.14208000000000007 0.661839     C
Cr    0.035629200000000166  0.49019 0.6538299999999999    Cr
Cr    0.035630200000000056 0.6538289999999999 0.490189    Cr
Cr    0.03563029999999999 0.490189  0.32035    Cr
Cr    0.03563039999999999  0.65383  0.32035    Cr
Cr    0.03563059999999996 0.320349 0.490189    Cr
Cr    0.03563060000000004 0.320349 0.6538299999999999    Cr
O     0.037808999999999926  0.78447  0.86079     O
O     0.03780919999999993 0.8169299999999999  0.86079     O
O     0.037809600000000054 0.860789 0.7844689999999999     O
O     0.03780989999999995 0.860789  0.81693     O
O     0.03781080000000009 0.816929 0.7844689999999999     O
O     0.03781089999999998 0.7844690000000001  0.81693     O
H     0.03902829999999992 0.585493 0.330611     H
H     0.039028600000000024 0.330611 0.585493     H
H     0.03902859999999997 0.544867 0.585493     H
O     0.040869599999999895  0.66161  0.51355     O
O     0.04086969999999994  0.51355  0.28397     O
O     0.040869699999999995 0.661609  0.28397     O
O     0.040869799999999956 0.283971  0.51355     O
O     0.0408697999999999  0.51355 0.661609     O
O     0.04087000000000002  0.28397 0.661609     O
H     0.042192199999999985 0.41789299999999996 0.378475     H
H     0.042192200000000096 0.6614389999999999 0.378475     H
H     0.042192399999999936 0.41789199999999993 0.6614390000000001     H
C     0.04526019999999999 0.183199  0.08834     C
C     0.04526040000000001 0.18320000000000003 0.18319899999999997     C
C     0.04526059999999998 0.08833920000000003 0.18319899999999997     C
C     0.04569880000000004   0.4524  0.70924     C
C     0.045699000000000045  0.70924   0.4524     C
C     0.045699100000000006 0.45239999999999997 0.292661     C
C     0.04569919999999994 0.29266000000000003  0.70924     C
C     0.045699600000000035 0.2926599999999999   0.4524     C
C     0.04569979999999997 0.7092390000000001 0.292661     C
C     0.04576960000000001 0.6773500000000001  0.26081     C
C     0.04576969999999994 0.260811 0.677349     C
C     0.04576970000000001  0.51607  0.26081     C
C     0.04576990000000003 0.26080999999999993  0.51607     C
C     0.045770400000000044 0.6773499999999999  0.51607     C
C     0.04577129999999999 0.5160689999999999 0.677349     C
C     0.04789969999999995 0.30529900000000004   0.3053     C
C     0.04789979999999994 0.30530100000000004 0.841499     C
C     0.04790019999999999 0.8414990000000001   0.3053     C
C     0.047919199999999995 0.7937399999999999   0.8646     C
C     0.047920099999999966 0.8646000000000003 0.793739     C
C     0.047920600000000035 0.7937390000000002 0.793739     C
H     0.050555399999999986 0.09164379999999998 0.213109     H
H     0.05055559999999998 0.213108 0.09164359999999999     H
H     0.050555699999999974 0.213108 0.144693     H
O     0.05077950000000006 0.46250000000000013 0.683059     O
O     0.05077990000000002 0.46250099999999994 0.303659     O
O     0.05077999999999991 0.30366000000000004 0.683059     O
O     0.05078000000000002 0.683059   0.4625     O
O     0.05078029999999997 0.303659   0.4625     O
O     0.050780899999999934 0.683059 0.303659     O
C     0.054448700000000044  0.74871  0.42213     C
C     0.05444959999999993 0.422129 0.748709     C
C     0.054449599999999945 0.748709  0.27471     C
C     0.05444979999999994  0.27471 0.748709     C
C     0.05445009999999996 0.422129  0.27471     C
C     0.05445020000000003 0.274709  0.42213     C
O     0.05645899999999998 0.28744100000000006 0.830779     O
O     0.05645919999999999 0.28744100000000006  0.32532     O
O     0.056459199999999946  0.83078 0.287439     O
O     0.05645950000000001 0.32532099999999997 0.287439     O
O     0.056459700000000085 0.830779  0.32532     O
O     0.05645980000000006 0.32531999999999994 0.830779     O
C     0.058129600000000003 0.16045099999999998 0.200869     C
C     0.058129599999999976 0.200869 0.160451     C
C     0.05813009999999999 0.08054929999999999 0.160451     C
C     0.05813059999999999 0.160449 0.0805499     C
C     0.05813059999999996 0.20086900000000002 0.0805499     C
C     0.058131000000000044 0.0805494 0.200869     C
C     0.05865939999999997 0.21686000000000008  0.53806     C
C     0.05865969999999997 0.5380589999999998  0.21686     C
C     0.058660099999999965  0.68642  0.53806     C
C     0.05866019999999994  0.21686  0.68642     C
C     0.058660199999999926 0.686419  0.21686     C
C     0.05866040000000006  0.53806  0.68642     C
H     0.06091009999999987 0.784211 0.263414     H
H     0.060910899999999935 0.26341300000000006  0.78421     H
H     0.06091099999999998 0.39146499999999995 0.263414     H
H     0.060911200000000054 0.391465  0.78421     H
H     0.060911299999999974 0.263413 0.391465     H
H     0.06091170000000001 0.7842089999999999 0.391465     H
C     0.062009299999999934 0.24017000000000005  0.66791     C
C     0.06200929999999999  0.52991  0.66791     C
C     0.06200969999999986  0.66791  0.52991     C
C     0.06200989999999999 0.6679090000000001  0.24017     C
C     0.0620106 0.24017000000000002  0.52991     C
C     0.06201080000000002 0.529909  0.24017     C
C     0.062079599999999985 0.428141  0.72142     C
C     0.06207970000000004 0.28836000000000006  0.72142     C
C     0.0620797  0.72142 0.288359     C
C     0.06208050000000001 0.7214190000000001 0.42813899999999994     C
C     0.06208059999999996 0.28836000000000006 0.42813899999999994     C
C     0.06208059999999997  0.42814 0.288359     C
C     0.06290939999999998 0.12986899999999998  0.65361     C
C     0.06290989999999996 0.6536090000000001 0.129869     C
C     0.06290990000000005 0.6536090000000001  0.65361     C
C     0.06605919999999998  0.76362 0.397019     C
C     0.06605959999999994 0.39702000000000004 0.763619     C
C     0.0660599   0.2733 0.397019     C
C     0.06606029999999996 0.39701900000000007 0.273299     C
C     0.06606109999999993 0.27329900000000007 0.763619     C
C     0.06606120000000004 0.7636189999999999 0.273299     C
F     0.06696000000000002  0.48356  0.62144     F
F     0.0669601999999999  0.62144 0.328041     F
C     0.06750990000000001 0.876791 0.777849     C
C     0.06751059999999998 0.7778490000000001 0.777849     C
C     0.06751060000000009 0.7778490000000001 0.876789     C
H     0.06762999999999995 0.626369 0.262173     H
H     0.06763019999999989 0.26217200000000007 0.626369     H
H     0.06763039999999984 0.626369 0.543827     H
H     0.06763070000000002 0.543827 0.626369     H
H     0.06763079999999999 0.262173 0.543827     H
H     0.06763089999999998 0.543827 0.262173     H
H     0.07152419999999993 0.8757290000000001 0.741849     H
H     0.07152449999999977 0.7418480000000001 0.875729     H
H     0.07152520000000007 0.810896 0.741849     H
C     0.07264909999999991 0.543671  0.64041     C
C     0.07264989999999993  0.24327 0.543669     C
C     0.07264990000000004 0.640409 0.543669     C
C     0.07264999999999998 0.5436699999999999 0.243269     C
C     0.07265029999999995  0.24327  0.64041     C
C     0.07265039999999988  0.64041 0.243269     C
C     0.07456940000000004  0.67921  0.55243     C
C     0.0745698000000001 0.552429  0.67921     C
C     0.07457020000000004  0.55243  0.19379     C
C     0.0745703  0.19379  0.67921     C
C     0.07457040000000001 0.19378999999999993  0.55243     C
C     0.07457069999999995 0.6792090000000001  0.19379     C
H     0.07587689999999997 0.555188 0.693933     H
H     0.07587739999999998 0.17500099999999996 0.693933     H
H     0.07587740000000007 0.693932 0.555188     H
H     0.07587779999999993 0.6939309999999999 0.175002     H
H     0.0758785 0.555187 0.175002     H
H     0.07587859999999999 0.17500100000000005 0.555188     H
O     0.07594909999999994  0.66517  0.63161     O
O     0.07594940000000003 0.6316100000000001 0.6651699999999999     O
O     0.0759496 0.12726900000000002  0.63161     O
O     0.07594959999999999 0.6316100000000001 0.127269     O
O     0.07595000000000006  0.66517 0.127269     O
O     0.07595030000000005 0.127269 0.6651699999999999     O
F     0.07798970000000004 0.23370999999999997 0.34455099999999994     F
F     0.0779897 0.23370999999999992  0.84375     F
F     0.07799019999999998 0.8437490000000001  0.23371     F
C     0.07880999999999982  0.30271  0.70963     C
C     0.07881009999999997 0.7096300000000001 0.40884999999999994     C
C     0.0788102  0.40885  0.70963     C
C     0.07881030000000006 0.7096299999999999  0.30271     C
C     0.07881050000000003 0.302709 0.40884999999999994     C
C     0.07881079999999996 0.408849  0.30271     C
C     0.07911950000000001 0.7902790000000001 0.879839     C
C     0.07911950000000006 0.879839 0.790279     C
C     0.07911959999999996 0.7507590000000001 0.879839     C
C     0.07911959999999979 0.879839  0.75076     C
C     0.07912030000000009 0.7507600000000001 0.790279     C
C     0.07912029999999998 0.7902799999999999  0.75076     C
C     0.08054929999999999 0.05812969999999999 0.160451     C
C     0.08054969999999999 0.160449 0.0581306     C
C     0.0805498 0.20086900000000002 0.0581306     C
C     0.08054999999999995 0.16045099999999998 0.200869     C
C     0.08054999999999995 0.200869 0.160451     C
C     0.08055030000000002 0.058129700000000006 0.200869     C
H     0.08359100000000003 0.41321199999999997 0.689306     H
H     0.08359160000000002  0.31389 0.413212     H
H     0.08359169999999999 0.689305 0.413212     H
H     0.08359179999999991 0.413211 0.313891     H
H     0.08359239999999993 0.689305 0.313891     H
H     0.08359249999999996 0.31389000000000006 0.689306     H
C     0.08499899999999994 0.28536000000000006 0.378861     C
C     0.08499899999999995 0.7507800000000001  0.28536     C
C     0.08499939999999997 0.7507800000000001 0.378861     C
C     0.0849997 0.37885899999999995  0.28536     C
C     0.08499979999999996 0.285359 0.750779     C
C     0.08499999999999996 0.37886000000000003 0.750779     C
C     0.08833969999999997 0.18320000000000003 0.18319899999999997     C
C     0.08834050000000002 0.045260199999999993 0.18319899999999997     C
C     0.08834100000000002 0.183199 0.045259499999999994     C
C     0.08869919999999998 0.19592000000000004   0.6523     C
C     0.08869919999999998 0.5630800000000001 0.19592099999999998     C
C     0.08869950000000001  0.19592 0.563079     C
C     0.08869969999999999 0.652299 0.19592099999999998     C
C       0.0887  0.56308   0.6523     C
C     0.08870080000000005   0.6523 0.563079     C
O     0.08893880000000003   0.7896 0.34929999999999994     O
O     0.08893960000000001 0.34930000000000005 0.789599     O
O     0.08893970000000002  0.27216 0.34929999999999994     O
O     0.0889397999999999 0.27216000000000007 0.789599     O
O     0.08893989999999992   0.3493 0.272159     O
O     0.08894030000000004 0.789599 0.272159     O
C     0.08921980000000004   0.3022 0.38368099999999994     C
C     0.08921999999999994 0.302199   0.7249     C
C     0.08921999999999997 0.724899 0.38368099999999994     C
C     0.08922019999999994 0.383679   0.7249     C
C     0.08922069999999999 0.724899 0.302199     C
C     0.08922079999999996  0.38368 0.302199     C
C     0.08954910000000002  0.22101  0.55665     C
C     0.08954910000000002 0.22101099999999999 0.632789     C
C     0.0895492  0.63279  0.22101     C
C     0.0895493  0.55665  0.22101     C
C     0.08954950000000009 0.6327890000000002  0.55665     C
C     0.08954969999999998  0.55665 0.632789     C
H     0.09164210000000002 0.14469299999999996 0.213109     H
H     0.09164249999999997 0.0505548 0.213109     H
H     0.09164269999999997 0.213108 0.144693     H
H     0.09164290000000003 0.05055439999999999 0.144693     H
H     0.0916429 0.144693 0.0505549     H
H     0.09164300000000002 0.213108 0.0505549     H
Cr    0.09319909999999988 0.823719  0.32188    Cr
Cr    0.09319929999999993 0.3218790000000001  0.82372    Cr
Cr    0.09319929999999996 0.321881   0.2612    Cr
Cr    0.09319970000000005 0.26119999999999993  0.82372    Cr
Cr    0.09320020000000002 0.261199  0.32188    Cr
Cr    0.09320050000000007 0.8237189999999999   0.2612    Cr
F     0.09631009999999995 0.09631030000000002 0.700269     F
F     0.09631010000000007  0.60711 0.700269     F
O     0.09668970000000006 0.255511 0.291569     O
O     0.09668989999999994 0.255511 0.856229     O
O     0.0966901 0.29156999999999994 0.856229     O
O     0.0966903000000001 0.8562299999999999 0.291569     O
O     0.0966905 0.29156899999999997 0.255509     O
O     0.09669099999999999 0.856229 0.255509     O
C     0.09681940000000007   0.2835   0.3539     C
C     0.09681949999999999 0.765779   0.3539     C
C     0.09681980000000001 0.3538990000000001   0.2835     C
C     0.09682030000000003 0.353899 0.765779     C
C     0.09682060000000012 0.765779   0.2835     C
C     0.09682100000000005 0.28350000000000003 0.765779     C
H     0.10035600000000006 0.31446999999999997 0.717124     H
H     0.10035599999999989 0.368048 0.717124     H
H     0.10035599999999996 0.717125  0.31447     H
H     0.10035599999999992 0.717125 0.368048     H
H     0.100357 0.31447100000000006 0.368048     H
H     0.10035699999999996 0.368048  0.31447     H
C       0.1013 0.774699 0.888559     C
C     0.10130100000000009 0.735439 0.774699     C
C     0.10130100000000003 0.7354399999999999 0.888559     C
C     0.10130100000000009 0.7746999999999998 0.735439     C
C     0.10130099999999997 0.888559 0.774699     C
C     0.10130100000000009 0.8885609999999998 0.735439     C
C     0.10164000000000001 0.26664000000000004  0.86508     C
C     0.10163999999999995 0.8650800000000001  0.26664     C
C     0.10164100000000001 0.266639  0.26664     C
H     0.10240100000000005 0.223104 0.613114     H
H     0.10240200000000003 0.6131139999999999 0.223103     H
H     0.10240199999999991 0.6131150000000001  0.56138     H
H     0.102403 0.22310300000000002  0.56138     H
H     0.10240300000000001 0.5613799999999999 0.223103     H
H     0.1024030000000001  0.56138 0.613114     H
O     0.10383900000000004 0.15032000000000004 0.6635399999999999     O
O     0.10383900000000001  0.66354   0.5823     O
O     0.10383999999999999 0.15032099999999998   0.5823     O
O     0.10384000000000007 0.5822990000000001 0.6635399999999999     O
O     0.10383999999999993 0.5823010000000001  0.15032     O
O     0.10383999999999999 0.6635390000000001  0.15032     O
O     0.10405000000000003 0.296029 0.803889     O
O     0.10404999999999995  0.29603 0.296031     O
O     0.10404999999999998 0.803889 0.296031     O
C     0.10411999999999998 0.25297900000000006 0.252979     C
C     0.10411999999999999 0.252979 0.8899199999999999     C
C     0.10411999999999998  0.88992 0.252979     C
C     0.10731899999999994  0.17208   0.6465     C
C     0.10731900000000005 0.5741000000000002   0.6465     C
C     0.10731899999999994 0.6465000000000001 0.574099     C
C     0.10732000000000003  0.17208 0.574099     C
C     0.10732000000000003 0.574099  0.17208     C
C     0.10732000000000003 0.6464990000000002  0.17208     C
C     0.10930999999999999 0.02296939999999998  0.18386     C
C     0.10930999999999998 0.18385899999999997 0.0229708     C
C     0.10931100000000002  0.18386  0.18386     C
C     0.11007899999999998  0.74702  0.74702     C
C     0.11007899999999993 0.7470200000000001  0.89588     C
C     0.11007999999999984 0.8958800000000001  0.74702     C
H     0.11046699999999994 0.2845230000000001 0.216132     H
H     0.11046799999999996 0.216132 0.888877     H
H     0.11046800000000005 0.8888770000000001 0.216132     H
H     0.111122 0.715476 0.783867     H
H     0.11112199999999989 0.7154769999999999 0.889532     H
H     0.11112199999999989 0.7838669999999999 0.889532     H
H     0.11112200000000011 0.783868 0.715477     H
H     0.11112199999999989 0.889532 0.783867     H
H     0.11112200000000011 0.8895330000000004 0.715477     H
C     0.11143899999999998 0.22529899999999997  0.26456     C
C     0.11143899999999997 0.2645600000000001   0.2253     C
C     0.11143900000000007  0.26456   0.8987     C
C     0.11143900000000001   0.8987  0.26456     C
C     0.11144000000000004 0.22529899999999992   0.8987     C
C     0.11144000000000008   0.8987   0.2253     C
Cr    0.11381899999999998  0.11382  0.60876    Cr
Cr    0.11381899999999998 0.6087599999999999 0.113819    Cr
Cr    0.11381900000000003 0.663601 0.113819    Cr
Cr    0.11381999999999992 0.11382000000000003 0.663599    Cr
Cr    0.11382000000000003  0.60876 0.663599    Cr
Cr     0.11382 0.6635990000000002  0.60876    Cr
O     0.11525900000000006  0.29232 0.33722099999999994     O
O     0.115259 0.2923200000000001 0.755199     O
O     0.11525899999999992 0.7552000000000001 0.33722099999999994     O
O     0.11525900000000006 0.755201  0.29232     O
O     0.11526000000000003  0.33722  0.29232     O
O     0.11526000000000008 0.3372199999999999 0.755199     O
C     0.120159 0.24924099999999993 0.20971899999999996     C
C      0.12016 0.209719 0.24923899999999996     C
C     0.12015999999999999 0.2097199999999999 0.920879     C
C     0.12015999999999999 0.24924000000000002 0.920879     C
C     0.12015999999999995 0.920879 0.20971899999999996     C
C     0.12016000000000003 0.920879 0.24923899999999996     C
O     0.12076899999999997 0.018510300000000007 0.198869     O
O     0.12076899999999999 0.198871 0.0185096     O
O     0.12076999999999999  0.19887  0.16185     O
O     0.12077100000000002 0.018509199999999996  0.16185     O
O     0.12077100000000004 0.16185000000000002 0.0185096     O
O     0.12077099999999998  0.16185 0.198869     O
C     0.12320900000000001 0.222151  0.93249     C
C     0.12320999999999996 0.22215000000000001 0.22214999999999996     C
C     0.12320999999999999 0.9324890000000001 0.22214999999999996     C
O     0.12367000000000006 0.12367099999999998  0.62633     O
O      0.12367  0.62633  0.62633     O
O     0.12367100000000003  0.62633 0.123669     O
H     0.12426999999999994 0.18910300000000002  0.25815     H
H     0.12426999999999995 0.258151 0.189103     H
H      0.12427 0.9284750000000002 0.189103     H
H     0.12427100000000002 0.18910299999999997 0.9284749999999999     H
H     0.12427100000000002  0.25815 0.9284749999999999     H
H     0.124272 0.9284750000000002  0.25815     H
O     0.12511899999999992 0.578659 0.172381     O
O     0.1251190000000001  0.62384 0.172381     O
O     0.12512000000000004 0.1723790000000001  0.57866     O
O     0.12511999999999995 0.17238000000000003 0.623839     O
O      0.12512 0.5786610000000001 0.623839     O
O     0.12512000000000004 0.6238390000000001  0.57866     O
O     0.1263789999999999 0.23225999999999997 0.816059     O
O     0.12637899999999996  0.81606 0.232259     O
O      0.12638 0.232259   0.3253     O
O     0.12637999999999994   0.3253 0.232259     O
O     0.12638000000000005  0.81606   0.3253     O
O     0.12638099999999997   0.3253 0.816059     O
O     0.12726899999999997 0.07595039999999997  0.63161     O
O     0.12726900000000002  0.63161 0.0759503     O
O     0.12727000000000002 0.07595070000000001 0.6651699999999999     O
O     0.12726999999999997 0.6316100000000001 0.6651699999999999     O
O     0.12727000000000005 0.665169 0.0759503     O
O     0.12726999999999994  0.66517  0.63161     O
C     0.12986900000000004 0.06290969999999999  0.65361     C
C     0.12986900000000007  0.65361 0.0629096     C
C      0.12987 0.6536090000000001  0.65361     C
Cr    0.13331900000000002 0.29931899999999995  0.29932    Cr
Cr    0.13332000000000016 0.29932100000000006 0.768039    Cr
Cr     0.13332 0.768039  0.29932    Cr
C      0.13492  0.73336 0.733359     C
C     0.1349199999999999 0.898361 0.733359     C
C     0.13492099999999996 0.733359 0.898359     C
C     0.13539999999999996  0.20626  0.20626     C
C     0.13540000000000008  0.20626 0.9520789999999999     C
C     0.13540000000000008 0.9520800000000001  0.20626     C
F     0.13814900000000002  0.23981  0.13815     F
O     0.13920899999999997 0.18306999999999995  0.96219     O
O     0.13920899999999997 0.21553000000000003 0.183071     O
O     0.13920899999999992  0.21553  0.96219     O
O     0.13920899999999994 0.9621890000000001 0.183071     O
O     0.13920999999999994 0.18307000000000007 0.215529     O
O     0.13920999999999994 0.9621890000000001 0.215529     O
H     0.1411099999999999 0.6976179999999998 0.630632     H
H     0.14111199999999996 0.030637899999999996 0.630632     H
H     0.14111199999999996 0.6306310000000002 0.0306382     H
C      0.14208 0.0342411 0.661839     C
C     0.14208000000000007 0.661839 0.661839     C
C     0.14207999999999996 0.6618400000000001 0.0342399     C
C     0.14358899999999994 0.020390400000000003 0.6867099999999999     C
C     0.14358900000000005  0.64931 0.6867099999999999     C
C     0.14358900000000002 0.6867099999999999 0.020390399999999996     C
C     0.14358899999999986 0.6867100000000002 0.6493090000000001     C
C     0.14358999999999994 0.020389799999999986 0.6493090000000001     C
C     0.14358999999999994 0.649309 0.020390399999999996     C
O     0.14376899999999984 0.7084300000000001  0.74449     O
O     0.1437689999999999 0.7444900000000001 0.7084299999999999     O
O     0.14377100000000015 0.708429 0.903309     O
O     0.14377100000000015 0.744489 0.903309     O
O     0.143771 0.903309  0.74449     O
O     0.14377100000000012 0.9033100000000001 0.7084299999999999     O
H     0.14469300000000002 0.09164379999999998 0.213109     H
H     0.144693 0.213108 0.09164359999999999     H
H     0.144694 0.0916433 0.0505549     H
Cr    0.14579000000000006  0.14579 0.604209    Cr
Cr     0.14579  0.60421 0.604209    Cr
Cr    0.14579099999999995 0.604209  0.14579    Cr
C     0.14588899999999994 0.687249  0.97961     C
C     0.145889 0.9796090000000002 0.6872499999999999     C
C     0.14589000000000008 0.6872500000000001 0.6872499999999999     C
C     0.14830899999999997 0.23696900000000004  0.80369     C
C     0.14830899999999997  0.80369  0.23697     C
C     0.14831000000000003 0.23697000000000004  0.31103     C
C     0.14831000000000003 0.311029  0.23697     C
C      0.14831 0.31102900000000006  0.80369     C
C     0.14831000000000014 0.803689  0.31103     C
C     0.1484189999999999 0.6609999999999999 0.992559     C
C     0.1484189999999998 0.9925599999999999 0.660999     C
C     0.14842000000000002 0.6609989999999999  0.69802     C
C      0.14842 0.698019 0.660999     C
C      0.14842 0.698019 0.992559     C
C     0.14842000000000002 0.9925589999999999  0.69802     C
O     0.15031900000000012 0.10384000000000007 0.6635399999999999     O
O     0.1503190000000001  0.66354   0.5823     O
O     0.15032000000000006 0.10383999999999999   0.5823     O
O     0.15032000000000004 0.5822990000000001 0.6635399999999999     O
O      0.15032   0.5823  0.10384     O
O     0.15032000000000006 0.663539  0.10384     O
O     0.15044900000000005 0.7848100000000001 0.305651     O
O     0.15044899999999994 0.7848110000000001 0.259089     O
O     0.15044999999999997  0.25909 0.305651     O
O     0.15045000000000008 0.25909000000000004 0.784809     O
O     0.15045000000000008 0.30564899999999995 0.784809     O
O     0.150451 0.3056499999999999 0.259089     O
Cr    0.15226999999999996  0.15227 0.20588999999999996    Cr
Cr    0.1522699999999999 0.15226999999999996  0.98957    Cr
Cr    0.15226999999999996 0.205889 0.152271    Cr
Cr    0.15227000000000007 0.205889  0.98957    Cr
Cr    0.1522700000000001 0.9895690000000001 0.20588999999999996    Cr
Cr    0.15227099999999988 0.989569 0.152271    Cr
H     0.15407299999999993 0.6493910000000002 0.715044     H
H     0.15407299999999996 0.715044 0.649391     H
H     0.15407299999999988 0.9814909999999999 0.715044     H
H     0.154074  0.64939 0.981491     H
H     0.15407400000000004 0.715043 0.981491     H
H     0.15407399999999993 0.981491 0.649391     H
F     0.15624900000000005 0.9220089999999999  0.65545     F
F     0.15624999999999994 0.655449 0.766289     F
C     0.15849999999999986 0.6946990000000001   0.9521     C
C     0.15850000000000006 0.6947000000000001 0.6946989999999998     C
C     0.15850099999999998 0.952099 0.6946989999999998     C
C     0.16045000000000004 0.058129700000000006 0.200869     C
C      0.16045 0.05813020000000001 0.0805499     C
C     0.16045000000000004 0.0805497 0.0581306     C
C     0.16044999999999998 0.20086900000000002 0.0581306     C
C     0.160451 0.0805494 0.200869     C
C     0.16045100000000007 0.20086900000000002 0.0805499     C
O      0.16185 0.01850949999999999 0.120769     O
O      0.16185 0.018510300000000007 0.198869     O
O     0.16185000000000002 0.12077000000000002 0.0185096     O
O      0.16185 0.12077099999999998 0.198869     O
O      0.16185  0.19887 0.120769     O
O      0.16185 0.198871 0.0185096     O
H     0.1641809999999999 0.8517249999999998 0.673188     H
H     0.164182 0.673187 0.851723     H
H     0.16418199999999994 0.8517240000000001 0.810906     H
C     0.16732899999999995 0.189851  0.32003     C
C     0.16732999999999998 0.18985100000000005 0.822789     C
C     0.16732999999999998 0.32003000000000004 0.822789     C
C     0.16732999999999998 0.32003099999999995 0.189849     C
C     0.16732999999999998 0.822789  0.32003     C
C     0.16733099999999992 0.822789 0.189849     C
F     0.16762899999999997  0.58237 0.167631     F
O     0.16921900000000006 0.674679  0.94354     O
O     0.1692190000000001  0.67468 0.712559     O
O     0.16921900000000015  0.71256 0.674679     O
O     0.16921900000000012 0.7125599999999999  0.94354     O
O     0.16922000000000023 0.9435390000000001 0.674679     O
O     0.16922000000000012 0.9435399999999999 0.712559     O
C     0.17078900000000002 0.21449000000000001  0.31041     C
C     0.17078899999999997 0.21449000000000001 0.8043099999999999     C
C     0.170789 0.31040900000000005 0.21449099999999996     C
C     0.1707889999999999 0.31040899999999993 0.8043099999999999     C
C     0.17078899999999989 0.8043090000000002 0.21449099999999996     C
C     0.1707889999999999 0.804309  0.31041     C
O     0.17084299999999997 0.17084300000000002 0.17084299999999997     O
O     0.17084300000000002 0.170844 0.987469     O
O     0.17084300000000002 0.9874700000000001 0.17084299999999997     O
C     0.1720799999999999 0.10732000000000003   0.6465     C
C     0.1720799999999999 0.5741000000000002   0.6465     C
C     0.1720810000000001 0.10732000000000003 0.574099     C
C     0.17208100000000004   0.5741 0.107319     C
C     0.17208100000000004 0.6464989999999999 0.107319     C
C     0.17208100000000004 0.6465000000000001 0.574099     C
O     0.17238000000000003 0.12511999999999995 0.623839     O
O     0.17237999999999998 0.5786610000000001 0.623839     O
O     0.1723799999999999 0.6238390000000001  0.57866     O
O     0.17238000000000003 0.6238410000000001 0.125119     O
O     0.1723810000000001 0.12511999999999998  0.57866     O
O     0.1723809999999999 0.578659 0.125119     O
Cr    0.17627899999999996  0.67812 0.7387989999999999    Cr
Cr    0.17627899999999988   0.7388 0.678119    Cr
Cr    0.17627999999999994 0.6781190000000001   0.9068    Cr
Cr    0.17628000000000013 0.9067999999999999 0.678119    Cr
Cr    0.17628099999999997 0.738799   0.9068    Cr
Cr    0.17628100000000002 0.906799 0.7387989999999999    Cr
C     0.1772089999999999  0.67997 0.810149     C
C     0.177209 0.810149  0.83267     C
C     0.177209 0.8101499999999999  0.67997     C
C     0.17721000000000003  0.67997  0.83267     C
C     0.17721000000000003 0.8326689999999999  0.67997     C
C     0.1772100000000001 0.8326689999999999 0.810149     C
O     0.18306900000000004  0.13921  0.96219     O
O     0.18306900000000004  0.21553 0.139211     O
O     0.18306899999999987 0.9621900000000001 0.139211     O
O      0.18307  0.13921 0.215529     O
O     0.18306999999999995  0.21553  0.96219     O
O     0.18307099999999998 0.9621890000000001 0.215529     O
C     0.18319999999999997 0.0452598  0.08834     C
C     0.18319999999999997 0.08833920000000003 0.18319899999999997     C
C       0.1832 0.08834060000000002 0.045259499999999994     C
C     0.18319999999999992 0.183199  0.08834     C
C     0.18320100000000003 0.045260199999999993 0.18319899999999997     C
C     0.18320100000000006 0.183199 0.045259499999999994     C
C     0.183859 0.18385899999999997 0.0229708     C
C     0.18386000000000002 0.02296939999999998  0.18386     C
C     0.18385999999999997 0.022970899999999995 0.109309     C
C     0.18385999999999997 0.109309 0.0229708     C
C      0.18386 0.10930900000000002  0.18386     C
C     0.1838599999999999 0.18385899999999997 0.109309     C
O     0.18393900000000013 0.7677400000000001   0.6747     O
O      0.18394 0.6746989999999999 0.767739     O
O     0.18393999999999988 0.674699  0.87362     O
O      0.18394 0.7677379999999999  0.87362     O
O     0.18393999999999994 0.8736199999999998   0.6747     O
O     0.1839409999999999 0.8736190000000001 0.767739     O
H     0.189093 0.835818 0.3268130000000001     H
H     0.18909399999999998 0.14827599999999996 0.3268130000000001     H
H     0.18909400000000004 0.14827600000000002 0.835818     H
H     0.18909400000000004 0.326812 0.148275     H
H     0.1890940000000001 0.3268119999999999 0.835818     H
H     0.1890940000000001 0.835818 0.148275     H
C     0.189849 0.822789 0.167331     C
C     0.18984999999999996 0.16732999999999998  0.32003     C
C     0.18984999999999996 0.16733000000000003 0.822789     C
C     0.18984999999999996 0.822789  0.32003     C
C     0.189851 0.320029 0.167331     C
C     0.189851 0.32003000000000004 0.822789     C
H     0.19045999999999996 0.230937 0.315232     H
H     0.19046000000000002 0.315232 0.230938     H
H     0.19045999999999996 0.315232  0.76337     H
H     0.19045999999999996 0.763369 0.315232     H
H     0.19045999999999996 0.7633700000000001 0.230938     H
H     0.19046099999999994 0.23093699999999995  0.76337     H
C     0.1918399999999999 0.21434000000000003  0.78062     C
C      0.19184 0.31319899999999995  0.21434     C
C     0.19184000000000007  0.78062  0.21434     C
C     0.19184100000000004 0.21434000000000003 0.31319899999999995     C
C     0.1918410000000001 0.313199  0.78062     C
C     0.19184100000000004 0.7806199999999999 0.31319899999999995     C
C     0.19378900000000002 0.07456949999999998  0.55243     C
C     0.19378899999999993  0.55243 0.0745704     C
C      0.19379 0.552429  0.67921     C
C     0.19379000000000002  0.67921 0.0745704     C
C     0.19378999999999993  0.67921  0.55243     C
C     0.19379100000000007 0.07456889999999997  0.67921     C
C     0.1956889999999999  0.82921  0.78551     C
C     0.19569000000000009 0.6895889999999999  0.78551     C
C     0.19569000000000003 0.6895889999999999 0.829209     C
C     0.1956900000000001 0.7855080000000001 0.689591     C
C     0.19569000000000003  0.78551 0.829209     C
C      0.19569 0.829208 0.689591     C
C     0.19591799999999993  0.56308   0.6523     C
C     0.1959190000000001   0.6523 0.563079     C
C     0.19591999999999996 0.08870039999999998 0.563079     C
C     0.19591999999999998 0.08870050000000002   0.6523     C
C     0.19592000000000012  0.56308 0.08870059999999999     C
C      0.19592 0.652299 0.08870059999999999     C
O     0.19610899999999992  0.89595 0.7039699999999999     O
O     0.19610999999999995 0.7039689999999998 0.7039699999999999     O
O     0.19611000000000017 0.7039689999999998 0.8959499999999999     O
C     0.196309 0.688969  0.85169     C
C     0.19630900000000012 0.6889699999999999 0.763031     C
C      0.19631 0.763029 0.688969     C
C     0.1963100000000001 0.763029  0.85169     C
C     0.19631000000000004 0.851688 0.763031     C
C     0.19631000000000007  0.85169 0.688969     C
O     0.19886900000000005 0.12077000000000002 0.0185096     O
O     0.19887000000000002 0.01850949999999999 0.120769     O
O     0.19887100000000002 0.018509199999999996  0.16185     O
O     0.19887099999999996 0.12076900000000002  0.16185     O
O     0.19887100000000005 0.16185000000000002 0.0185096     O
O     0.19887100000000002  0.16185 0.120769     O
C     0.200869 0.05812969999999999 0.160451     C
C     0.200869 0.08054929999999999 0.160451     C
C     0.20086999999999997 0.05813020000000001 0.0805499     C
C      0.20087 0.0805497 0.0581306     C
C     0.20086999999999997 0.160449 0.0581306     C
C      0.20087 0.160449 0.0805499     C
Cr    0.20588899999999993 0.15226999999999996 0.152271    Cr
Cr    0.20588899999999988 0.15226999999999996  0.98957    Cr
Cr    0.20588899999999993 0.989569 0.152271    Cr
C     0.2062589999999999 0.9520800000000001   0.1354     C
C      0.20626 0.13539999999999996  0.20626     C
C     0.2062600000000001 0.13539999999999996 0.9520789999999999     C
C      0.20626  0.20626 0.9520789999999999     C
C     0.20626000000000003 0.206261   0.1354     C
C      0.20626 0.9520800000000001  0.20626     C
C     0.20972000000000002  0.12016 0.24923899999999996     C
C     0.2097199999999999 0.12016099999999996 0.920879     C
C     0.20972000000000002 0.24923999999999996 0.12015899999999999     C
C     0.20971999999999996  0.92088 0.12015899999999999     C
C     0.20972100000000005 0.24924000000000002 0.920879     C
C     0.20972100000000005 0.920879 0.24923899999999996     C
O     0.21039900000000014 0.7278389999999999 0.6506999999999998     O
O     0.21039900000000006 0.7278389999999999  0.91106     O
O     0.21039900000000006  0.91106  0.72784     O
O     0.21040000000000003 0.6506990000000001  0.72784     O
O     0.21039999999999998 0.6506990000000001  0.91106     O
O       0.2104 0.911059 0.6506999999999998     O
H     0.213108 0.09164340000000001 0.144693     H
H     0.213108 0.144693 0.09164359999999999     H
H     0.21310899999999997 0.05055439999999999 0.144693     H
H     0.213109 0.05055509999999999 0.09164359999999999     H
H     0.21310899999999994 0.0916433 0.0505549     H
H     0.213109 0.144693 0.0505549     H
C     0.2143389999999999  0.19184  0.78062     C
C     0.21433900000000006 0.19184100000000004 0.31319899999999995     C
C     0.214339 0.313199  0.78062     C
C     0.21433899999999992 0.31320099999999995 0.191839     C
C     0.21433900000000006 0.7806199999999999 0.31319899999999995     C
C     0.2143400000000001  0.78062 0.191839     C
C     0.2144890000000001 0.17079000000000005 0.8043099999999999     C
C     0.2144890000000001 0.31040899999999993 0.8043099999999999     C
C     0.21448899999999999 0.804309  0.31041     C
C     0.21449000000000007  0.17079  0.31041     C
C      0.21449  0.31041  0.17079     C
C      0.21449 0.8043100000000001  0.17079     C
O     0.21518899999999996  0.69435 0.8495500000000001     O
O     0.21518899999999996 0.849549  0.69435     O
O      0.21519  0.69435 0.740909     O
O      0.21519 0.740909  0.69435     O
O     0.21519000000000005 0.740909 0.8495500000000001     O
O     0.2151910000000002 0.8495489999999999 0.740909     O
O     0.21552899999999997  0.13921  0.96219     O
O     0.21553000000000003 0.13921000000000003 0.183071     O
O     0.21552999999999994 0.183069 0.139211     O
O     0.2155299999999999 0.18306999999999995  0.96219     O
O     0.21552999999999992 0.9621890000000001 0.183071     O
O     0.21552999999999994 0.9621900000000001 0.139211     O
H     0.216132 0.11046799999999998 0.284522     H
H     0.216132 0.2845230000000001 0.888877     H
H     0.21613199999999988 0.888878 0.284522     H
H     0.2161329999999999 0.11046600000000001 0.888877     H
H     0.21613299999999996 0.28452299999999997 0.110467     H
H     0.21613299999999985 0.888876 0.110467     H
H     0.216391 0.0445701 0.533626     H
H     0.21639100000000006 0.04457159999999999 0.705411     H
H     0.21639100000000003 0.533625 0.0445715     H
H     0.21639099999999997 0.7054109999999999 0.0445715     H
H     0.21639099999999994 0.7054109999999999 0.533626     H
H     0.21639200000000003 0.533626 0.705411     H
C     0.2168589999999999  0.53806  0.68642     C
C     0.216859  0.68642  0.53806     C
C     0.21685999999999997 0.05865970000000004  0.53806     C
C     0.21685999999999994 0.05865999999999999  0.68642     C
C     0.21686000000000005 0.6864189999999999 0.0586608     C
C     0.21686099999999997 0.5380590000000001 0.0586608     C
C     0.219379 0.808159 0.7856599999999999     C
C     0.21937999999999996 0.6867989999999999 0.7856599999999999     C
C     0.21937999999999985 0.6867999999999999 0.808159     C
C     0.21938000000000002 0.785659 0.808159     C
C      0.21938 0.7856600000000001   0.6868     C
C      0.21938 0.8081600000000001   0.6868     C
C     0.22100900000000004  0.55665 0.0895504     C
C     0.22100899999999993 0.6327900000000001 0.0895504     C
C      0.22101 0.08954999999999999  0.55665     C
C      0.22101 0.08955020000000005 0.632789     C
C     0.22101099999999999  0.55665 0.632789     C
C     0.22101099999999999 0.6327890000000002  0.55665     C
C     0.22214900000000004 0.12321100000000001  0.93249     C
C     0.22215000000000001 0.12321000000000001 0.22214999999999996     C
C     0.22215000000000007 0.222151 0.123209     C
C     0.22214999999999996 0.222151  0.93249     C
C     0.22214999999999996 0.932489 0.123209     C
C     0.2221499999999999 0.9324890000000001 0.22214999999999996     C
H     0.22310199999999994 0.10240200000000002 0.613114     H
H     0.22310199999999994 0.6131150000000001  0.56138     H
H     0.22310300000000002  0.56138 0.613114     H
H     0.22310299999999983 0.5613810000000001 0.102402     H
H     0.22310299999999988 0.613113 0.102402     H
H     0.22310400000000005 0.10240200000000002  0.56138     H
C     0.22529899999999997 0.11143999999999998  0.26456     C
C     0.22529899999999997 0.264561 0.111439     C
C     0.22529999999999994 0.11144100000000001   0.8987     C
C     0.22530000000000006  0.26456   0.8987     C
C       0.2253   0.8987  0.26456     C
C     0.22530099999999992 0.8986990000000001 0.111439     C
H     0.23093700000000006 0.315232  0.76337     H
H     0.23093799999999998 0.19046000000000002 0.315232     H
H     0.23093799999999992 0.19045999999999996  0.76337     H
H     0.23093799999999995 0.31523200000000007 0.190459     H
H     0.23093799999999998 0.763369 0.315232     H
H     0.23093800000000017 0.7633699999999999 0.190459     H
Cr    0.23196000000000003 0.7006790000000002  0.70068    Cr
Cr     0.23196  0.70068  0.86668    Cr
Cr    0.23195999999999992 0.8666800000000001  0.70068    Cr
O     0.23225900000000005  0.12638   0.3253     O
O     0.23225899999999997 0.32530000000000003  0.12638     O
O     0.232259  0.81606   0.3253     O
O     0.23225999999999997  0.12638 0.816059     O
O     0.23225999999999997   0.3253 0.816059     O
O     0.23226000000000005 0.816059  0.12638     O
F     0.233709 0.8437490000000001 0.34455099999999994     F
F     0.23370999999999992 0.34454900000000005  0.84375     F
C     0.23421999999999993 0.6460999999999999   0.7165     C
C     0.2342200000000001 0.6460999999999999 0.903179     C
C     0.23421999999999987 0.7165009999999998 0.903179     C
C     0.23421999999999982 0.903179 0.646099     C
C     0.23422000000000004 0.9031789999999997   0.7165     C
C     0.23422100000000007 0.716499 0.646099     C
C     0.236379 0.6029800000000001 0.726699     C
C     0.23637999999999976 0.6029800000000001  0.93394     C
C     0.23638000000000006 0.7266989999999999 0.602979     C
C     0.23637999999999998 0.726699  0.93394     C
C     0.23638000000000006 0.933939 0.602979     C
C     0.23638100000000006 0.933939 0.726699     C
H     0.2366279999999999 0.684769 0.769063     H
H     0.23662899999999987 0.684768 0.809539     H
H     0.23662900000000006 0.769062 0.684769     H
H     0.2366290000000002 0.7690620000000001 0.809539     H
H     0.236629 0.809539 0.684769     H
H     0.23662899999999992 0.8095390000000002 0.769063     H
C     0.23696900000000004 0.14831099999999997  0.80369     C
C     0.2369690000000001 0.8036889999999999 0.148311     C
C      0.23697 0.148309  0.31103     C
C     0.23696999999999996 0.311029 0.148311     C
C     0.23696999999999996 0.31102900000000006  0.80369     C
C     0.2369700000000001 0.803689  0.31103     C
F      0.23981  0.98389  0.13815     F
F     0.239811 0.13814900000000002  0.98389     F
C     0.24016900000000005 0.062010499999999996  0.52991     C
C     0.24016900000000002 0.529911 0.0620091     C
C     0.2401700000000001 0.06200919999999999  0.66791     C
C     0.24017000000000005  0.52991  0.66791     C
C     0.2401699999999999  0.66791  0.52991     C
C      0.24017 0.667911 0.0620091     C
H     0.242151 0.7343999999999999   0.5635     H
H     0.24215100000000006 0.9599470000000001   0.5635     H
H     0.24215200000000003 0.563499   0.7344     H
H     0.24215199999999992 0.563499 0.9599469999999999     H
H     0.24215200000000003 0.7343999999999999 0.9599469999999999     H
H     0.24215199999999998 0.959948   0.7344     H
C     0.24326899999999996 0.07264970000000004  0.64041     C
C     0.2432689999999999  0.64041 0.0726506     C
C     0.24326999999999988 0.07264969999999998 0.543669     C
C     0.24326999999999993 0.543669 0.0726506     C
C      0.24327 0.543671  0.64041     C
C     0.24327100000000002 0.640409 0.543669     C
O     0.24479900000000004 0.7076810000000002 0.8847389999999999     O
O     0.2447999999999998 0.8847390000000002  0.66278     O
O     0.24480000000000002  0.88474 0.707679     O
O     0.24480100000000005 0.662779 0.707679     O
O     0.2448010000000002 0.662779 0.8847389999999999     O
O     0.24480099999999994 0.7076790000000001  0.66278     O
C     0.24921999999999972  0.62114 0.914999     C
C     0.24921999999999994 0.714639 0.914999     C
C     0.24921999999999989 0.9149989999999998  0.62114     C
C     0.24921999999999972 0.9149990000000001 0.714639     C
C     0.24922100000000003  0.62114 0.714639     C
C     0.24922100000000003 0.714639  0.62114     C
C     0.249239 0.12016099999999996 0.920879     C
C     0.24924000000000002  0.12016 0.20971899999999996     C
C     0.24924000000000002 0.20972000000000002 0.12015899999999999     C
C     0.2492399999999999 0.2097199999999999 0.920879     C
C     0.2492399999999999 0.920879 0.20971899999999996     C
C     0.24923999999999996  0.92088 0.12015899999999999     C
F     0.250459 6.477599999998862e-07      0.5     F
F     0.25045900000000004      0.5      0.0     F
F      0.25046 2.648839999841446e-07  0.74954     F
F      0.25046  0.74954      0.0     F
C     0.251289 0.5778690000000001  0.72529     C
C     0.251289  0.72529  0.57787     C
C     0.251289 0.9455500000000001  0.72529     C
C      0.25129  0.57787 0.9455499999999999     C
C     0.2512900000000001 0.7252890000000001 0.9455499999999999     C
C     0.2512899999999999 0.945549  0.57787     C
C     0.25298000000000004 0.10411900000000002 0.8899199999999999     C
C     0.2529799999999999 0.252981 0.104119     C
C     0.25298000000000004 0.8899190000000001 0.104119     C
C     0.25298099999999996 0.104119 0.252979     C
C     0.25298100000000007 0.252979 0.8899199999999999     C
C     0.252981  0.88992 0.252979     C
O     0.254239 0.030280299999999954   0.7007     O
O     0.25423899999999994 0.700699 0.0302795     O
O      0.25424 0.514779   0.7007     O
O     0.2542399999999999 0.7007000000000001  0.51478     O
O     0.25424099999999994 0.030279399999999984  0.51478     O
O     0.25424100000000005 0.5147799999999999 0.0302795     O
O     0.25550999999999996 0.09668939999999993 0.856229     O
O      0.25551 0.09668960000000003 0.291569     O
O      0.25551  0.29157 0.0966895     O
O     0.25550999999999996 0.29156999999999994 0.856229     O
O      0.25551 0.856229 0.0966895     O
O     0.2555100000000001 0.8562299999999999 0.291569     O
F     0.2557199999999999 0.7064189999999999  0.83144     F
H     0.2581499999999999  0.12427 0.189103     H
H      0.25815 0.189104  0.12427     H
H     0.2581499999999999 0.9284750000000002 0.189103     H
H     0.258151 0.124272 0.9284749999999999     H
H     0.258151 0.18910299999999997 0.9284749999999999     H
H     0.2581510000000001 0.928475  0.12427     H
O     0.25908899999999996 0.150449 0.305651     O
O     0.259089  0.30565 0.150451     O
O     0.2590899999999999  0.78481 0.150451     O
O     0.2590899999999998 0.7848100000000001 0.305651     O
O     0.25909099999999996 0.15045000000000003 0.784809     O
O     0.25909100000000007 0.30564899999999995 0.784809     O
C     0.26080899999999996 0.045769700000000024  0.51607     C
C     0.26080899999999996 0.04577050000000002 0.677349     C
C     0.26080899999999996  0.51607 0.0457701     C
C     0.26080899999999996 0.6773500000000001 0.0457701     C
C     0.260809 0.6773499999999999  0.51607     C
C      0.26081 0.5160689999999999 0.677349     C
Cr    0.2611989999999999 0.09320040000000002  0.82372    Cr
Cr    0.261199 0.3218790000000001  0.82372    Cr
Cr    0.26119900000000007 0.823719  0.32188    Cr
Cr    0.26119899999999996  0.82372 0.0932008    Cr
Cr    0.26120000000000004  0.32188 0.0932008    Cr
Cr    0.261201 0.0931993  0.32188    Cr
H     0.26217200000000007 0.626369 0.543827     H
H     0.262173 0.06762959999999998 0.626369     H
H     0.262173 0.06763019999999997 0.543827     H
H     0.2621730000000001 0.543827 0.626369     H
H     0.26217299999999993 0.626369  0.06763     H
H     0.2621739999999999 0.543827  0.06763     H
C     0.2645589999999999 0.11144100000000001   0.8987     C
C     0.2645600000000001 0.11144000000000003   0.2253     C
C     0.2645599999999999 0.22529899999999992   0.8987     C
C     0.2645600000000001   0.2253 0.111439     C
C     0.2645600000000001 0.8986990000000001 0.111439     C
C      0.26456   0.8987   0.2253     C
H     0.2655989999999999 0.040052499999999935 0.757848     H
H     0.26559999999999995 0.04005160000000002   0.4365     H
H     0.26559999999999995 0.43649899999999997 0.757848     H
H       0.2656 0.43650000000000005 0.0400518     H
H       0.2656 0.757847 0.0400518     H
H     0.26559999999999995 0.7578469999999999   0.4365     H
C     0.266639 0.10164100000000004  0.86508     C
C      0.26664 0.10163999999999998  0.26664     C
C      0.26664  0.26664 0.10163999999999998     C
C     0.26664000000000004 0.26664000000000004  0.86508     C
C      0.26664 0.8650790000000002 0.10163999999999998     C
C      0.26664 0.8650800000000001  0.26664     C
O     0.27216000000000007 0.0889397 0.34929999999999994     O
O     0.27216000000000007 0.08894039999999998 0.789599     O
O     0.27215999999999996 0.349299 0.0889403     O
O     0.2721599999999999 0.7896000000000001 0.0889403     O
O     0.2721599999999999   0.7896 0.34929999999999994     O
O     0.272161 0.34930000000000005 0.789599     O
C       0.2733 0.06605929999999999 0.763619     C
C     0.27330000000000004 0.0660599 0.397019     C
C       0.2733 0.39702000000000004 0.763619     C
C       0.2733 0.7636190000000002 0.0660591     C
C     0.2733000000000001  0.76362 0.397019     C
C     0.2733009999999999 0.397019 0.0660591     C
C     0.2747099999999999  0.05445  0.42213     C
C      0.27471  0.74871  0.42213     C
C     0.27471100000000004 0.05444920000000003 0.748709     C
C     0.274711 0.4221289999999999 0.054449     C
C     0.27471100000000015 0.422129 0.748709     C
C     0.2747110000000001 0.748709 0.054449     C
O     0.2748999999999998 0.5345990000000002  0.71834     O
O     0.27489999999999976   0.5346 0.972159     O
O     0.27489999999999987  0.71834 0.972159     O
O     0.2748999999999998  0.97216  0.71834     O
O     0.274901 0.7183389999999998 0.534599     O
O     0.2749009999999999 0.972159 0.534599     O
C     0.2750989999999998   0.6978  0.61632     C
C     0.2750989999999999 0.910779  0.61632     C
C     0.275099  0.91078   0.6978     C
C     0.2751000000000002 0.6163190000000001  0.91078     C
C     0.2750999999999998 0.6163200000000001   0.6978     C
C     0.27509999999999996 0.6977990000000001  0.91078     C
C     0.2785789999999999 0.9379199999999999  0.57186     C
C     0.27857999999999994 0.5718590000000001 0.7116389999999999     C
C      0.27858  0.57186 0.937919     C
C     0.27857999999999994 0.711639  0.57186     C
C     0.2785800000000001  0.71164 0.937919     C
C     0.27857999999999983 0.9379190000000001 0.7116389999999999     C
O     0.281659 0.027840400000000015   0.4654     O
O     0.2816600000000002 0.027839800000000026 0.725099     O
O     0.28165999999999997 0.46539900000000006 0.725099     O
O     0.28165999999999997   0.4654 0.0278394     O
O      0.28166 0.7250990000000003 0.0278394     O
O      0.28166 0.7250990000000002   0.4654     O
H     0.2828749999999999 0.631951 0.685529     H
H     0.282875 0.6855279999999999 0.631951     H
H     0.2828759999999999 0.631951 0.899643     H
H     0.2828760000000001 0.685528 0.899643     H
H     0.282876 0.8996420000000002 0.685529     H
H     0.282876 0.899643 0.631951     H
C     0.283499  0.76578 0.0968201     C
C     0.2834999999999999 0.09682000000000002 0.765779     C
C       0.2835 0.0968201   0.3539     C
C       0.2835   0.3539 0.0968201     C
C     0.2834999999999999 0.765779   0.3539     C
C     0.28350099999999995 0.353899 0.765779     C
O      0.28397 0.04087039999999997 0.661609     O
O     0.28396999999999994  0.51355 0.0408704     O
O      0.28397  0.51355 0.661609     O
O     0.28396999999999994 0.6616090000000001 0.0408704     O
O      0.28397  0.66161  0.51355     O
O     0.2839709999999999 0.04086929999999994  0.51355     O
Cr      0.2841 -9.634630000199262e-07   0.7159    Cr
Cr    0.28410000000000013 6.477599999998862e-07      0.5    Cr
Cr    0.28410000000000013 0.49999899999999997   0.7159    Cr
Cr    0.2841000000000001      0.5      0.0    Cr
Cr      0.2841 0.715899      0.0    Cr
Cr    0.28409999999999985   0.7159      0.5    Cr
H     0.28452299999999986 0.11046600000000001 0.888877     H
H     0.2845230000000001 0.110467 0.216132     H
H     0.284523 0.216132 0.110467     H
H     0.2845230000000001 0.216132 0.888877     H
H     0.2845229999999999 0.888876 0.110467     H
H     0.28452300000000014 0.8888770000000001 0.216132     H
C     0.2853589999999999 0.0849994 0.378861     C
C     0.285359 0.08500089999999993 0.750779     C
C     0.285359  0.75078 0.08499949999999999     C
C     0.28535900000000003 0.7507800000000001 0.378861     C
C      0.28536 0.37885899999999995 0.08499949999999999     C
C     0.2853600000000001 0.37886000000000003 0.750779     C
O     0.28744000000000003 0.0564597  0.32532     O
O     0.28744000000000003 0.056459800000000004 0.830779     O
O      0.28744 0.325319 0.05646040000000001     O
O     0.28744000000000003 0.32531999999999994 0.830779     O
O     0.28744000000000003 0.830779 0.05646040000000001     O
O     0.28744000000000003 0.830779  0.32532     O
C     0.28835900000000003 0.428141  0.72142     C
C     0.28836000000000006 0.06207939999999998  0.72142     C
C     0.28835999999999995 0.7214190000000001 0.42813899999999994     C
C     0.28835999999999995  0.72142 0.0620793     C
C     0.2883610000000001 0.062079400000000035 0.42813899999999994     C
C     0.288361  0.42814 0.0620793     C
C     0.29036899999999993 0.5911500000000001 0.9211889999999999     C
C     0.29036899999999993 0.697289 0.9211889999999999     C
C     0.29036900000000004  0.92119 0.697289     C
C     0.2903700000000001 0.5911500000000001 0.697289     C
C     0.2903699999999999  0.69729 0.591149     C
C     0.2903699999999999 0.9211890000000001 0.591149     C
C     0.29075899999999993 0.5475999999999999  0.70734     C
C     0.29075899999999993 0.707339 0.547601     C
C     0.29075900000000005 0.7073400000000001 0.954299     C
C     0.2907589999999999 0.9542989999999999 0.547601     C
C     0.29075899999999993 0.9542999999999999  0.70734     C
C     0.29075999999999985 0.5475999999999999 0.954299     C
O     0.29156899999999997  0.25551 0.0966895     O
O     0.2915689999999999 0.255511 0.856229     O
O     0.29156999999999994 0.09668939999999993 0.856229     O
O      0.29157 0.0966904 0.255509     O
O      0.29157 0.856229 0.0966895     O
O     0.2915699999999999 0.856229 0.255509     O
O     0.292319 0.11525900000000003 0.33722099999999994     O
O     0.29231899999999994 0.11526000000000003 0.755199     O
O     0.29231900000000005 0.33721999999999996 0.11525999999999999     O
O     0.2923189999999999 0.7552000000000001 0.33722099999999994     O
O     0.29231999999999997 0.3372199999999999 0.755199     O
O     0.29231999999999997 0.7551990000000001 0.11525999999999999     O
C     0.2926600000000001 0.04569969999999998   0.4524     C
C     0.2926599999999999 0.045700399999999974  0.70924     C
C     0.29266000000000014 0.452399   0.0457     C
C     0.29266000000000003   0.4524  0.70924     C
C     0.29266000000000003  0.70924   0.0457     C
C     0.29266000000000003  0.70924   0.4524     C
F     0.29357900000000003 0.293579 0.16856099999999996     F
F     0.29358000000000006 0.168561 0.7442789999999999     F
F     0.29358000000000006 0.744279 0.16856099999999996     F
O      0.29603  0.10405 0.296031     O
O      0.29603 0.10404999999999998 0.803889     O
O      0.29603 0.296029 0.104051     O
O     0.2960300000000001 0.296029 0.803889     O
O     0.29603000000000007 0.803889 0.104051     O
O      0.29603 0.803889 0.296031     O
O     0.29929899999999987 0.7457600000000001 0.969719     O
O     0.2992989999999999 0.9697200000000001 0.745761     O
O     0.29930000000000007 0.485219 0.745761     O
O     0.2993000000000001 0.48521900000000007 0.969719     O
O     0.2992999999999999  0.74576 0.48521899999999996     O
O     0.2992999999999999  0.96972 0.48521899999999996     O
Cr    0.29931800000000003 0.13332099999999997  0.29932    Cr
Cr    0.29931900000000006 0.29931899999999995 0.133321    Cr
Cr    0.2993190000000001 0.29932100000000006 0.768039    Cr
Cr    0.29932000000000003  0.13332 0.768039    Cr
Cr     0.29932 0.768039 0.133321    Cr
Cr    0.29932000000000003 0.768039  0.29932    Cr
C     0.30197899999999994 0.007440769999999999    0.339     C
C     0.3019800000000001 0.00743989000000006 0.851579     C
C     0.3019800000000001 0.33900000000000013 0.851579     C
C     0.3019800000000001 0.339001 0.0074393     C
C     0.30198000000000014 0.8515789999999999 0.0074393     C
C      0.30198 0.851579    0.339     C
C     0.302199 0.724899 0.38368099999999994     C
C       0.3022 0.08921890000000002   0.7249     C
C     0.30219999999999997 0.08921950000000001 0.38368099999999994     C
C       0.3022 0.383679   0.7249     C
C     0.3022000000000001  0.38368 0.089219     C
C       0.3022 0.7249000000000001 0.089219     C
H     0.30238100000000007 0.369369 0.969361     H
H     0.3023809999999999 0.8588880000000001 0.369369     H
H     0.30238099999999996 0.9693609999999999 0.369369     H
H     0.3023820000000001 0.369369 0.858888     H
H     0.3023819999999999 0.8588880000000001 0.969361     H
H     0.3023820000000001  0.96936 0.858888     H
C     0.30270899999999995  0.40885  0.70963     C
C     0.302709 0.7096300000000001 0.40884999999999994     C
C      0.30271 0.07880949999999998  0.70963     C
C     0.30271000000000003 0.07881030000000003 0.40884999999999994     C
C     0.3027099999999999 0.4088490000000001 0.0788095     C
C     0.30270999999999987 0.709631 0.0788095     C
O     0.30365999999999993 0.0507802   0.4625     O
O     0.30365999999999993 0.46250000000000013 0.683059     O
O     0.30366099999999996 0.050779800000000014 0.683059     O
O     0.303661 0.462499 0.05077899999999999     O
O     0.30366100000000007 0.683059   0.4625     O
O     0.303661  0.68306 0.05077899999999999     O
C     0.305299 0.04790000000000001   0.3053     C
C     0.30529899999999993 0.305299 0.047900399999999996     C
C       0.3053 0.04789960000000004 0.841499     C
C       0.3053 0.30530100000000004 0.841499     C
C       0.3053 0.841499 0.047900399999999996     C
C     0.3053000000000002 0.8414990000000001   0.3053     C
O     0.305649 0.259089 0.150451     O
O     0.305649  0.78481 0.150451     O
O      0.30565  0.15045 0.259089     O
O      0.30565 0.15045000000000003 0.784809     O
O     0.3056500000000001 0.7848110000000001 0.259089     O
O     0.305651 0.25909000000000004 0.784809     O
H     0.30606699999999987 0.44481100000000007 0.824999     H
H     0.3060669999999999 0.824997 0.924123     H
H     0.30606699999999987 0.924121 0.824999     H
H     0.30606800000000006 0.4448110000000001 0.924123     H
H     0.306068 0.824998 0.444811     H
H     0.306068 0.924122 0.444811     H
C     0.31040900000000005  0.17079 0.21449099999999996     C
C     0.31040899999999993 0.17079000000000005 0.8043099999999999     C
C     0.3104090000000001 0.8043100000000001  0.17079     C
C      0.31041 0.214489  0.17079     C
C     0.31040999999999996 0.21449000000000001 0.8043099999999999     C
C     0.31040999999999985 0.8043090000000002 0.21449099999999996     C
H     0.310693 0.586788 0.6861099999999999     H
H     0.310693 0.586788 0.916408     H
H     0.3106929999999999 0.686108 0.586789     H
H     0.310693 0.9164069999999999 0.586789     H
H     0.31069400000000014 0.6861079999999999 0.916408     H
H     0.3106939999999999 0.9164070000000001 0.6861099999999999     H
C     0.31102900000000006 0.23696900000000004  0.80369     C
C     0.31102899999999994  0.80369  0.23697     C
C     0.31103000000000003  0.14831  0.23697     C
C      0.31103 0.14831099999999997  0.80369     C
C     0.31102999999999986 0.23696900000000004 0.148311     C
C     0.31103099999999995 0.8036889999999999 0.148311     C
C     0.31274899999999983 0.3127510000000001 0.854109     C
C      0.31275 0.020389800000000013 0.31274899999999994     C
C      0.31275 0.02039089999999999 0.854109     C
C     0.3127499999999999 0.31274900000000005 0.020390399999999996     C
C      0.31275 0.854109 0.020390399999999996     C
C     0.3127499999999999 0.854109 0.31274899999999994     C
C     0.3131989999999999 0.21434000000000003  0.78062     C
C     0.31319899999999995  0.78062  0.21434     C
C       0.3132 0.19184000000000007  0.21434     C
C     0.3131999999999999  0.19184  0.78062     C
C     0.31320000000000003  0.21434 0.191839     C
C     0.31320000000000003  0.78062 0.191839     C
C     0.31328900000000015 0.35068999999999995  0.97961     C
C     0.31328900000000015 0.979609  0.35069     C
C     0.3132900000000001  0.35069 0.856409     C
C     0.31328999999999996 0.8564080000000001  0.97961     C
C     0.31329000000000007 0.856409  0.35069     C
C      0.31329 0.979609 0.856409     C
C     0.31357999999999997 0.46194000000000013 0.7831399999999998     C
C     0.3135799999999999 0.46193999999999996 0.9413399999999998     C
C     0.3135799999999999 0.7831400000000002 0.9413399999999998     C
C     0.3135800000000001 0.9413389999999999  0.46194     C
C     0.3135800000000001 0.9413390000000001 0.7831399999999998     C
C     0.313581 0.783139  0.46194     C
H     0.31388900000000003 0.08359230000000001 0.689306     H
H     0.31389000000000006 0.6893049999999998 0.0835923     H
H     0.3138909999999999 0.08359109999999997 0.413212     H
H     0.31389099999999986 0.41321100000000005 0.0835923     H
H     0.313891 0.41321199999999997 0.689306     H
H     0.313891 0.689305 0.413212     H
H     0.3144699999999999 0.100357 0.368048     H
H      0.31447 0.36804800000000004 0.100356     H
H     0.31446999999999986 0.368048 0.717124     H
H     0.3144699999999999 0.717125 0.368048     H
H     0.314471 0.10035599999999995 0.717124     H
H     0.31447099999999995 0.717125 0.100356     H
H     0.315231 0.19045999999999996  0.76337     H
H     0.31523099999999993 0.23093900000000003 0.190459     H
H     0.31523200000000007 0.7633699999999999 0.190459     H
O     0.316229 6.477599999998862e-07      0.5     O
O     0.31622900000000004      0.5      0.0     O
O     0.316229 0.500001 0.6837689999999998     O
O     0.31623000000000007 0.6837690000000001      0.5     O
O     0.31622999999999996  0.68377      0.0     O
O     0.31623100000000004 2.882550000082862e-07 0.6837689999999998     O
O     0.3169390000000001 0.5374999999999999  0.69634     O
O     0.31693899999999997   0.5375  0.94922     O
O     0.31693899999999997  0.69634 0.537499     O
O      0.31694 0.949219 0.537499     O
O     0.3169409999999999 0.696339  0.94922     O
O     0.3169409999999997 0.949219  0.69634     O
C     0.32002899999999995 0.822789 0.167331     C
C     0.3200299999999999  0.16733 0.189849     C
C     0.3200299999999999 0.16733000000000003 0.822789     C
C      0.32003 0.189849 0.167331     C
C     0.3200299999999999 0.18985100000000005 0.822789     C
C     0.3200299999999999 0.822789 0.189849     C
Cr    0.320349 0.03562980000000002 0.6538299999999999    Cr
Cr    0.3203490000000002  0.65383 0.0356295    Cr
Cr     0.32035 0.03562989999999999 0.490189    Cr
Cr     0.32035  0.49019 0.6538299999999999    Cr
Cr    0.32035099999999994 0.49018900000000004 0.0356295    Cr
Cr    0.32035100000000005 0.6538289999999999 0.490189    Cr
C     0.320789  0.44757  0.80621     C
C     0.3207890000000001 0.8062099999999999  0.92543     C
C     0.3207899999999999 0.4475699999999999  0.92543     C
C     0.3207900000000001 0.806208 0.447571     C
C     0.32079000000000013 0.9254279999999998  0.80621     C
C     0.3207900000000001 0.9254290000000001 0.447571     C
Cr    0.32187899999999997 0.09320029999999999   0.2612    Cr
Cr    0.3218790000000001 0.261199 0.0932008    Cr
Cr    0.32187899999999997 0.26119999999999993  0.82372    Cr
Cr     0.32188 0.09320040000000002  0.82372    Cr
Cr    0.3218800000000001 0.8237189999999999   0.2612    Cr
Cr    0.32188000000000005  0.82372 0.0932008    Cr
C     0.32264899999999996 0.48392900000000005  0.73919     C
C     0.32264899999999996 0.9542290000000001  0.73919     C
C     0.32264999999999994 0.739189 0.483929     C
C     0.3226499999999999 0.7391889999999999 0.954229     C
C     0.32265100000000013 0.48392899999999994 0.954229     C
C     0.32265100000000013 0.954229 0.483929     C
O     0.32529899999999984 0.23225999999999997 0.816059     O
O     0.32529900000000006  0.81606 0.232259     O
O       0.3253  0.12638 0.816059     O
O     0.3252999999999999  0.23226  0.12638     O
O     0.3252999999999999 0.816059  0.12638     O
O     0.325301  0.12638 0.232259     O
O     0.32532000000000005 0.056459800000000004 0.830779     O
O     0.32531999999999994 0.056461 0.287439     O
O      0.32532 0.287441 0.05646040000000001     O
O     0.32532000000000005 0.28744100000000006 0.830779     O
O     0.32532000000000005 0.830779 0.05646040000000001     O
O     0.32532000000000005  0.83078 0.287439     O
H     0.326812 0.14827600000000002 0.835818     H
H     0.326812 0.189095 0.835818     H
H     0.326812 0.835818 0.148275     H
H     0.32681199999999994 0.835818 0.18909299999999998     H
H     0.32681299999999996 0.14827500000000002 0.18909299999999998     H
H     0.32681299999999996 0.189093 0.148275     H
F     0.328039  0.62144 0.48356099999999996     F
O     0.3290390000000001 0.01694000000000001  0.52218     O
O     0.329039 0.522179 0.0169406     O
O      0.32904 0.016940599999999972  0.63184     O
O      0.32904  0.52218  0.63184     O
O     0.32903999999999994 0.631839 0.0169406     O
O     0.32904100000000003 0.631839  0.52218     O
H     0.3306109999999999 0.03902859999999997 0.585493     H
H     0.330611 0.5854930000000002 0.0390286     H
H     0.3306109999999999 0.5854939999999998 0.544866     H
C     0.33208899999999997 0.4700900000000001  0.75983     C
C     0.3320899999999999 0.4700899999999999  0.93799     C
C      0.33209 0.7598290000000001 0.470089     C
C     0.3320899999999999 0.7598299999999999  0.93799     C
C      0.33209 0.9379890000000001  0.75983     C
C      0.33209 0.9379900000000001 0.470089     C
O     0.334828 0.3683900000000001  0.92405     O
O     0.3348279999999999  0.92405 0.368391     O
O     0.3348299999999999 0.36838999999999994 0.8727299999999999     O
O     0.33482999999999996 0.872729  0.92405     O
O      0.33483  0.87273 0.368391     O
O     0.3348309999999998 0.9240490000000001 0.8727299999999999     O
C     0.33507899999999985 0.021239500000000022   0.5603     C
C     0.33507900000000007 0.5602990000000001  0.58338     C
C     0.33507899999999996  0.58338   0.5603     C
C      0.33508 0.02124000000000001  0.58338     C
C      0.33508 0.5602990000000001 0.0212401     C
C     0.3350799999999999  0.58338 0.0212401     C
Cr    0.33640000000000003 0.3912389999999999 0.8861800000000001    Cr
Cr      0.3364 0.8861780000000001 0.391241    Cr
Cr    0.33640000000000014 0.886179 0.8861800000000001    Cr
O     0.33645899999999995  0.84968   0.4177     O
O     0.33645900000000006 0.8961600000000001   0.4177     O
O     0.33646000000000004 0.417699  0.89616     O
O     0.33645999999999987 0.41770000000000007 0.849679     O
O     0.33646000000000004 0.8496799999999998  0.89616     O
O     0.3364600000000001 0.8961600000000001 0.849679     O
O     0.3372200000000001 0.115259  0.29232     O
O      0.33722 0.2923200000000001 0.11525999999999999     O
O      0.33722 0.2923200000000001 0.755199     O
O      0.33722 0.755201  0.29232     O
O     0.33722099999999994 0.11526000000000003 0.755199     O
O     0.33722099999999994 0.7551990000000001 0.11525999999999999     O
C     0.33815899999999993  0.85792 0.965759     C
C     0.33815899999999977 0.9657600000000001  0.33816     C
C     0.3381590000000001  0.96576 0.857919     C
C      0.33816  0.33816 0.857919     C
C     0.33816000000000007 0.3381609999999999 0.965759     C
C      0.33816 0.857919  0.33816     C
O     0.33838899999999994 0.48645000000000016 0.9591299999999999     O
O     0.33838899999999994 0.4864510000000001 0.716029     O
O     0.33838899999999994 0.716031 0.486449     O
O     0.3383900000000001 0.7160290000000001 0.9591299999999999     O
O     0.3383900000000002 0.9591299999999999 0.486449     O
O     0.338391 0.959129 0.716029     O
H     0.33855999999999997 0.582106 0.957807     H
H      0.33856 0.5821080000000001 0.621524     H
H     0.3385600000000001 0.6215230000000002 0.582108     H
H     0.3385600000000001 0.6215249999999999 0.957807     H
H     0.33855999999999997 0.957807 0.582108     H
H      0.33856 0.9578069999999999 0.621524     H
C     0.338999 0.8515799999999999 0.301981     C
C        0.339 0.007439650000000006 0.301981     C
C     0.3390000000000001  0.30198 0.0074393     C
C     0.33900000000000013 0.3019810000000001 0.851579     C
C     0.33900100000000005 0.00743989000000006 0.851579     C
C     0.3390010000000001 0.8515789999999999 0.0074393     C
C     0.3397400000000001 0.5816000000000001 0.604199     C
C     0.33973999999999993 0.5815999999999999 0.974459     C
C     0.33974000000000015 0.604199 0.974459     C
C     0.33973999999999993  0.97446 0.581599     C
C      0.33974 0.9744600000000001 0.604199     C
C     0.33974099999999996   0.6042 0.581599     C
C     0.3412989999999999 0.6038799999999999  0.55834     C
C     0.3412989999999999 0.603881 0.996479     C
C     0.3412989999999999 0.9964790000000001  0.60388     C
C     0.34129999999999994 0.558339  0.60388     C
C     0.34130000000000005 0.558339 0.996479     C
C     0.3412999999999998 0.9964790000000001  0.55834     C
C     0.343039 0.6260800000000001 0.534359     C
C     0.34303899999999976 0.9965200000000001 0.534359     C
C      0.34304 0.534359 0.6260789999999999     C
C     0.34304000000000007 0.534359  0.99652     C
C     0.34303999999999985 0.626079  0.99652     C
C     0.34304099999999993 0.9965190000000002 0.6260789999999999     C
F      0.34455 0.0779908  0.23371     F
Cr    0.3461690000000001 0.6796499999999999  0.50981    Cr
Cr    0.34617000000000003 0.5098099999999999 0.679649    Cr
Cr    0.34617000000000003 0.5098100000000001 0.964369    Cr
Cr    0.34617000000000014 0.964369  0.50981    Cr
Cr    0.34617000000000003  0.96437 0.679649    Cr
Cr    0.34617099999999995 0.6796490000000002 0.964369    Cr
C     0.34638899999999984  0.87013 0.937089     C
C     0.3463899999999998 0.34639000000000003  0.87013     C
C     0.34638999999999986 0.346391 0.937089     C
C      0.34639 0.8701290000000002 0.34639099999999995     C
C     0.34639000000000003 0.9370889999999998 0.34639099999999995     C
C     0.3463899999999999 0.9370889999999998  0.87013     C
C     0.34769900000000004 0.804079   0.9113     C
C     0.3476989999999998 0.9112990000000001  0.80408     C
C     0.3477000000000002 0.436919   0.9113     C
C       0.3477 0.911299 0.43691899999999995     C
C     0.347701 0.4369190000000001  0.80408     C
C     0.34770100000000004 0.804079 0.43691899999999995     C
O     0.3491890000000002 0.6446500000000001  0.53087     O
O      0.34919  0.53087 0.644649     O
O     0.34918999999999994  0.53087 0.975289     O
O      0.34919 0.9752889999999999  0.53087     O
O     0.34919099999999986  0.64465 0.975289     O
O     0.34919100000000003 0.975289 0.644649     O
O     0.34929900000000014 0.08894039999999998 0.789599     O
O     0.34929899999999997 0.7896000000000001 0.0889403     O
O     0.34929999999999994 0.0889408 0.272159     O
O       0.3493  0.27216 0.0889403     O
O     0.34929999999999994 0.27216000000000007 0.789599     O
O       0.3493 0.789599 0.272159     O
H     0.35060899999999995 0.018508499999999928 0.845925     H
H     0.35060899999999995 0.845925 0.0185076     H
H     0.35060900000000006 0.845926 0.284956     H
H     0.3506099999999999 0.0185076 0.284956     H
H     0.3506099999999999 0.28495600000000004 0.0185076     H
H     0.35060999999999987 0.284956 0.845925     H
C     0.3506879999999999 0.31329000000000007  0.97961     C
C     0.35068799999999994 0.9796099999999999 0.313291     C
C     0.3506889999999999 0.8564080000000001  0.97961     C
C     0.35068900000000003 0.856409 0.313291     C
C     0.3506899999999999 0.31329100000000015 0.856409     C
C     0.3506899999999999 0.979609 0.856409     C
C     0.35349900000000006   0.4259  0.82792     C
C     0.35349900000000006  0.82792 0.892679     C
C     0.35349900000000006 0.892679  0.82792     C
C     0.35349999999999987 0.4259009999999999 0.892679     C
C     0.3534999999999999 0.827919   0.4259     C
C     0.3534999999999999 0.8926789999999999   0.4259     C
C     0.3538990000000001 0.765779   0.2835     C
C       0.3539 0.0968196   0.2835     C
C       0.3539   0.2835 0.0968201     C
C     0.3538999999999998 0.28350000000000003 0.765779     C
C     0.35390000000000005  0.76578 0.0968201     C
C     0.3539010000000001 0.09682000000000002 0.765779     C
O     0.35534999999999994 0.024709399999999992 0.650809     O
O     0.35535000000000005 0.024709800000000004 0.46912999999999994     O
O     0.35535000000000005 0.4691299999999998 0.650809     O
O     0.35534999999999983 0.6508090000000001 0.0247093     O
O     0.35534999999999983 0.650809 0.46912999999999994     O
O     0.355351 0.46912899999999996 0.0247093     O
C     0.35958899999999994 0.4563289999999999  0.92735     C
C     0.3595890000000001 0.45632999999999996 0.756729     C
C     0.35958899999999994  0.75673 0.456329     C
C     0.3595900000000001 0.7567300000000001  0.92735     C
C     0.3595900000000001  0.92735 0.456329     C
C     0.35959099999999994 0.9273490000000002 0.756729     C
C     0.36720900000000006 0.4433500000000001  0.91045     C
C     0.36720899999999995 0.7789890000000002  0.91045     C
C     0.3672099999999999 0.7789910000000001 0.443349     C
C     0.3672099999999998 0.9104490000000001 0.443349     C
C     0.3672100000000001 0.9104490000000001 0.778989     C
C     0.367211 0.44334900000000005 0.778989     C
O     0.36815900000000007  0.67096  0.98306     O
O     0.3681590000000001 0.670961 0.477819     O
O     0.36815999999999993 0.4778190000000001 0.6709600000000001     O
O      0.36816 0.47781899999999994  0.98306     O
O     0.3681599999999997 0.9830580000000001 0.6709600000000001     O
O     0.36816100000000007 0.9830590000000001 0.477819     O
O     0.3683890000000001 0.8727299999999999 0.33482900000000004     O
O     0.36838999999999994 0.3348289999999999 0.8727299999999999     O
O     0.3683899999999999 0.33482900000000004  0.92405     O
O      0.36839 0.872729  0.92405     O
O     0.36838999999999994 0.9240490000000001 0.8727299999999999     O
O     0.3683899999999999 0.9240499999999999 0.33482900000000004     O
H     0.369368 0.302382 0.858888     H
H     0.369368 0.302382 0.969361     H
H     0.369368 0.9693610000000001  0.30238     H
H     0.36936900000000006 0.8588880000000001  0.30238     H
H     0.3693689999999998 0.8588880000000001 0.969361     H
H     0.369369  0.96936 0.858888     H
H      0.37363 0.7378280000000002 0.45617099999999994     H
H     0.37363099999999994 0.456171 0.737828     H
H     0.3736310000000001 0.4561720000000002 0.932369     H
H     0.373631 0.737827 0.932369     H
H     0.37363099999999994 0.932368 0.737828     H
H     0.37363100000000005 0.9323690000000001 0.45617099999999994     H
O     0.3736689999999998  0.87633 0.373671     O
O     0.37366900000000003  0.87633 0.876329     O
O     0.37366999999999995 0.373671 0.876329     O
C     0.3739189999999999 0.46563999999999994 0.0034809     C
C     0.37392000000000003 0.003478960000000003 0.656961     C
C     0.37391999999999986 0.003479359999999987  0.46564     C
C     0.37392000000000003 0.4656389999999999 0.656961     C
C     0.3739199999999999 0.656959 0.0034809     C
C     0.3739200000000001 0.6569589999999998  0.46564     C
O     0.3761600000000001 0.4213399999999999  0.82762     O
O      0.37616  0.42134 0.874879     O
O     0.37615999999999994  0.82762 0.421339     O
O     0.37616000000000027  0.87488 0.421339     O
O     0.3761600000000002 0.8748799999999999  0.82762     O
O     0.3761609999999999 0.8276190000000001 0.874879     O
F     0.3785600000000001 0.5164400000000001  0.67196     F
C     0.3788599999999999 0.08499999999999998  0.28536     C
C     0.37886000000000003 0.08500089999999993 0.750779     C
C     0.3788599999999998  0.28536 0.08499949999999999     C
C     0.3788599999999999  0.75078 0.08499949999999999     C
C      0.37886 0.7507800000000001  0.28536     C
C     0.37886099999999995 0.285359 0.750779     C
C     0.383679 0.302199   0.7249     C
C      0.38368 0.08921890000000002   0.7249     C
C      0.38368 0.302201 0.089219     C
C     0.38367999999999997 0.724899 0.302199     C
C      0.38368 0.7249000000000001 0.089219     C
C     0.383681 0.08921959999999998 0.302199     C
H     0.386885 0.43862000000000007 0.897597     H
H     0.38688599999999995 0.438619 0.7768959999999999     H
H     0.3868860000000002 0.776896 0.438619     H
H     0.38688599999999984 0.8975980000000002 0.438619     H
H     0.38688600000000006 0.8975989999999999 0.7768959999999999     H
H     0.3868869999999999 0.7768960000000003 0.897597     H
Cr    0.3912389999999999 0.33640000000000003 0.8861800000000001    Cr
Cr    0.39123899999999995 0.886179   0.3364    Cr
Cr    0.3912399999999997 0.886179 0.8861800000000001    Cr
H     0.3914639999999999 0.784211 0.263414     H
H     0.39146499999999995 0.06091010000000001 0.263414     H
H     0.3914649999999999 0.26341300000000006  0.78421     H
H     0.39146499999999995 0.263415 0.0609099     H
H     0.3914659999999999 0.060909999999999964  0.78421     H
H     0.3914659999999999  0.78421 0.0609099     H
F     0.3928889999999998 0.29973000000000005 0.903689     F
F     0.3928899999999999 0.9036889999999999  0.29973     F
Cr    0.3957889999999999 0.39579000000000003  0.85421    Cr
Cr    0.3957890000000001 0.854209  0.85421    Cr
Cr     0.39579 0.8542089999999999 0.3957899999999999    Cr
C     0.3957990000000001 0.41839899999999997  0.66026     C
C     0.39579900000000007 0.6602599999999998   0.4184     C
C     0.395799 0.660261 0.0255396     C
C     0.39580000000000004 0.025539300000000015  0.66026     C
C     0.3957999999999999 0.0255397   0.4184     C
C       0.3958 0.41840000000000005 0.0255396     C
C     0.3961189999999999 0.0035205499999999834 0.658699     C
C     0.3961189999999999 0.658699 0.0035198799999999995     C
C     0.3961199999999999 0.44166099999999997 0.658699     C
C     0.396121 0.003520000000000023 0.441659     C
C     0.396121  0.44166 0.0035198799999999995     C
C     0.396121 0.6586999999999998 0.441659     C
C     0.3970199999999998 0.27329900000000007 0.763619     C
C     0.39702000000000004 0.7636189999999999 0.273299     C
C     0.39702099999999996 0.06605929999999999 0.763619     C
C     0.39702099999999996 0.06606030000000002 0.273299     C
C     0.39702100000000007   0.2733 0.0660591     C
C     0.39702099999999996 0.7636190000000002 0.0660591     C
C     0.408849 0.07881059999999998  0.30271     C
C     0.40884899999999996  0.30271  0.70963     C
C     0.408849 0.7096299999999999  0.30271     C
C     0.40884899999999996 0.709631 0.0788095     C
C     0.4088499999999999 0.07880949999999998  0.70963     C
C     0.40884999999999994 0.30271000000000003 0.0788095     C
H     0.41321000000000013 0.08359230000000001 0.689306     H
H     0.413211 0.08359129999999998 0.313891     H
H     0.41321099999999983 0.31389000000000006 0.0835923     H
H     0.41321099999999983 0.31389000000000006 0.689306     H
H     0.41321100000000005 0.6893049999999998 0.0835923     H
H     0.4132109999999999 0.689305 0.313891     H
H     0.41450499999999996 0.45513299999999995 0.669389     H
H     0.41450499999999985 0.9609710000000002 0.669389     H
H     0.41450599999999993 0.455133  0.96097     H
H     0.4145059999999998 0.669388 0.455133     H
H     0.41450599999999993 0.669389  0.96097     H
H     0.41450599999999993 0.9609710000000001 0.455133     H
C     0.41661899999999985 0.43969900000000006  0.66492     C
C     0.41661999999999993 0.6649180000000001   0.4397     C
C     0.41661999999999993 0.6649210000000001 0.978759     C
C     0.41661999999999993 0.9787590000000002   0.4397     C
C     0.4166199999999999 0.9787600000000001  0.66492     C
C     0.41662099999999996 0.43970000000000004 0.978759     C
F     0.4176290000000001  0.83237  0.83237     F
O     0.4176999999999998 0.3364599999999999  0.89616     O
O     0.41769999999999996  0.84968  0.33646     O
O       0.4177 0.8496799999999998  0.89616     O
O     0.41769999999999985 0.8961600000000001 0.849679     O
O     0.4177009999999999  0.33646 0.849679     O
O     0.4177010000000001 0.8961589999999999  0.33646     O
H     0.41789299999999996 0.042191099999999954 0.6614390000000001     H
H     0.41789300000000007 0.04219229999999999 0.378475     H
H     0.41789300000000007 0.3784749999999999 0.6614390000000001     H
H     0.41789299999999996 0.378476 0.0421918     H
H     0.417893 0.661439 0.0421918     H
H     0.41789300000000007 0.6614389999999999 0.378475     H
C     0.4183990000000001 0.395799  0.66026     C
C     0.418399 0.6602600000000001 0.39579899999999996     C
C       0.4184 0.025539300000000015  0.66026     C
C     0.4184000000000001 0.39580000000000004 0.0255396     C
C       0.4184 0.660261 0.0255396     C
C     0.41840099999999997 0.025539299999999987 0.39579899999999996     C
O     0.42133899999999974 0.3761600000000001  0.82762     O
O     0.4213390000000001 0.3761609999999999 0.874879     O
O     0.4213389999999999  0.82762 0.37615899999999997     O
O     0.4213390000000001 0.8748799999999999  0.82762     O
O      0.42134 0.8276190000000001 0.874879     O
O     0.42134000000000005 0.874879 0.37615899999999997     O
C     0.4221299999999999 0.054448999999999984  0.27471     C
C      0.42213 0.05444920000000003 0.748709     C
C     0.4221300000000001  0.27471 0.748709     C
C     0.42213000000000006 0.748709 0.054449     C
C      0.42213 0.748709  0.27471     C
C     0.4221310000000001  0.27471 0.054449     C
C     0.4258990000000001 0.35349900000000006  0.82792     C
C     0.425899  0.82792   0.3535     C
C     0.42589899999999986  0.82792 0.892679     C
C     0.42589899999999986 0.892679  0.82792     C
C     0.4258989999999998  0.89268   0.3535     C
C     0.4259000000000001   0.3535 0.892679     C
C     0.4281400000000001 0.06207939999999998  0.72142     C
C      0.42814 0.06208029999999999 0.288359     C
C     0.4281400000000001 0.28836000000000006  0.72142     C
C     0.42813999999999997 0.288361 0.0620793     C
C     0.42813999999999997  0.72142 0.0620793     C
C      0.42814  0.72142 0.288359     C
H       0.4365 0.040052499999999935 0.757848     H
H       0.4365 0.26559999999999995 0.757848     H
H     0.43649999999999994 0.7578490000000001 0.265599     H
H     0.436501 0.04005170000000001 0.265599     H
H     0.43650100000000003 0.265599 0.0400518     H
H     0.436501 0.757847 0.0400518     H
C     0.4369189999999999 0.34769900000000004  0.80408     C
C     0.43691899999999995  0.80408 0.34769999999999995     C
C     0.43691900000000017 0.9112999999999999 0.34769999999999995     C
C     0.43692000000000003 0.3476989999999999   0.9113     C
C     0.43692000000000003 0.804079   0.9113     C
C     0.43692000000000003 0.9112990000000001  0.80408     C
C     0.43969900000000006 0.4166199999999999  0.66492     C
C     0.4396990000000002  0.66492 0.41662099999999996     C
C     0.43969899999999984 0.978759 0.41662099999999996     C
C     0.43969899999999973 0.9787600000000001  0.66492     C
C     0.43970000000000004 0.416619 0.978759     C
C     0.43970000000000015 0.6649210000000001 0.978759     C
C     0.44165899999999997  0.39612 0.0035198799999999995     C
C     0.44166000000000005 0.003520240000000008 0.396119     C
C     0.44165999999999994 0.0035205499999999834 0.658699     C
C     0.44165999999999983 0.396119 0.658699     C
C     0.44166000000000005   0.6587 0.396119     C
C     0.44166099999999986 0.658699 0.0035198799999999995     C
C     0.44334899999999994 0.36720900000000006  0.91045     C
C     0.4433489999999998 0.7789890000000002  0.91045     C
C     0.44334900000000005 0.9104490000000002  0.36721     C
C     0.44334999999999997 0.7789900000000001  0.36721     C
C     0.4433500000000002 0.9104490000000001 0.778989     C
C     0.443351 0.3672100000000001 0.778989     C
H     0.44481100000000007 0.30606699999999987 0.824999     H
H     0.44481099999999996 0.824997 0.306068     H
H     0.44481099999999985 0.9241230000000001 0.306068     H
H     0.44481199999999993 0.306066 0.924123     H
H     0.44481200000000004 0.824997 0.924123     H
H     0.444812 0.924121 0.824999     H
C     0.4475680000000001 0.8062099999999999  0.92543     C
C     0.447569  0.32079  0.80621     C
C     0.4475689999999998  0.32079  0.92543     C
C     0.4475690000000001 0.9254279999999998  0.80621     C
C     0.4475699999999998 0.806209 0.320791     C
C      0.44757  0.92543 0.320791     C
C     0.45239899999999983 0.04570010000000001 0.292661     C
C     0.452399 0.045700399999999974  0.70924     C
C     0.4523989999999999 0.29266000000000003  0.70924     C
C     0.4523989999999999  0.70924   0.0457     C
C     0.4523999999999999 0.292659   0.0457     C
C     0.45239999999999997 0.7092390000000001 0.292661     C
H     0.45513299999999995 0.41450499999999996 0.669389     H
H     0.4551329999999999 0.669388 0.414506     H
H     0.4551339999999998 0.669389  0.96097     H
H     0.4551339999999999 0.9609710000000001 0.414506     H
H     0.45513399999999987 0.9609710000000002 0.669389     H
H     0.45513499999999985 0.41450599999999993  0.96097     H
H     0.45617099999999977 0.3736289999999999 0.737828     H
H     0.45617099999999994 0.3736310000000001 0.932369     H
H     0.456171  0.93237  0.37363     H
H     0.4561719999999999 0.737827  0.37363     H
H     0.4561719999999997 0.932368 0.737828     H
H     0.4561729999999999 0.737827 0.932369     H
C     0.4563290000000002 0.7567300000000001  0.92735     C
C     0.45632999999999985 0.359589 0.756729     C
C     0.4563300000000001 0.35958900000000005  0.92735     C
C     0.4563299999999999  0.75673 0.359589     C
C     0.4563299999999998 0.927349 0.359589     C
C     0.45632999999999985 0.9273490000000002 0.756729     C
C     0.4619389999999999 0.31357900000000005 0.7831399999999998     C
C     0.4619389999999998 0.31358000000000014 0.9413399999999998     C
C     0.46193899999999993 0.941339 0.313579     C
C     0.46193999999999996 0.783139 0.313579     C
C     0.46193999999999996 0.7831400000000002 0.9413399999999998     C
C     0.4619399999999999 0.9413390000000001 0.7831399999999998     C
O     0.4624990000000001 0.050779800000000014 0.683059     O
O     0.462499 0.30366000000000004 0.683059     O
O       0.4625 0.05078070000000001 0.303659     O
O     0.46249999999999997  0.30366 0.05077899999999999     O
O       0.4625 0.683059 0.303659     O
O     0.46249999999999986  0.68306 0.05077899999999999     O
O     0.46539900000000006 0.02784020000000001 0.281661     O
O     0.46539899999999995  0.28166 0.0278394     O
O     0.46539899999999995 0.725099 0.281661     O
O       0.4654 0.027839800000000026 0.725099     O
O       0.4654 0.28165899999999994 0.725099     O
O     0.4653999999999998 0.7250990000000003 0.0278394     O
C     0.465639 0.003478960000000003 0.656961     C
C     0.465639 0.003479770000000021 0.3739199999999999     C
C     0.465639 0.373919 0.656961     C
C     0.4656389999999999 0.3739199999999999 0.0034809     C
C     0.465639 0.656959 0.0034809     C
C     0.465639 0.6569600000000001 0.3739199999999999     C
H     0.4663729999999999 0.294589 0.783608     H
H     0.46637299999999987 0.7836079999999999 0.294588     H
H     0.46637399999999984 0.2945890000000001 0.955429     H
H     0.4663740000000002 0.7836069999999999 0.955429     H
H     0.4663740000000002 0.9554279999999999 0.783608     H
H     0.466374 0.955429 0.294588     H
O     0.469129 0.02470989999999998  0.35535     O
O     0.469129 0.35534999999999994 0.650809     O
O     0.469129 0.650809  0.35535     O
O     0.46912999999999994 0.35534999999999994 0.0247093     O
O     0.46913099999999996 0.024709399999999992 0.650809     O
O     0.46913099999999985 0.6508090000000001 0.0247093     O
C     0.47008799999999995 0.7598300000000001 0.33209099999999997     C
C     0.47008899999999987  0.33209  0.75983     C
C     0.47008899999999987  0.33209  0.93799     C
C     0.4700890000000001 0.937989 0.33209099999999997     C
C      0.47009 0.7598299999999999  0.93799     C
C     0.4700900000000001 0.9379890000000001  0.75983     C
O     0.4778190000000001 0.368159 0.6709600000000001     O
O     0.47781899999999994  0.67096  0.98306     O
O     0.4778189999999999 0.9830580000000001 0.6709600000000001     O
O     0.47781999999999997 0.36815899999999996  0.98306     O
O      0.47782  0.67096 0.368159     O
O     0.4778199999999999 0.9830600000000002 0.368159     O
F     0.48355799999999993 0.328041  0.62144     F
C     0.48392899999999994 0.32264899999999996  0.73919     C
C     0.48392900000000005  0.73919  0.32265     C
C     0.48392899999999983 0.9542290000000001  0.73919     C
C     0.4839300000000002 0.7391889999999999 0.954229     C
C     0.48392999999999986 0.954229  0.32265     C
C     0.4839309999999999 0.3226490000000001 0.954229     C
O     0.48521899999999996 0.7457600000000001 0.969719     O
O     0.485219 0.9697200000000001 0.745761     O
O     0.4852199999999998 0.29929999999999995 0.745761     O
O     0.4852199999999999   0.2993 0.969719     O
O     0.48522100000000007 0.7457590000000001 0.299299     O
O     0.48522099999999996 0.969719 0.299299     O
O     0.48644900000000013 0.33838899999999994 0.9591299999999999     O
O     0.4864490000000001 0.9591290000000001  0.33839     O
O      0.48645 0.7160290000000001  0.33839     O
O     0.48644999999999994 0.7160290000000001 0.9591299999999999     O
O     0.48645099999999997 0.33838999999999997 0.716029     O
O     0.48645099999999986 0.959129 0.716029     O
Cr    0.490189 0.0356306  0.32035    Cr
Cr    0.490189 0.320349 0.6538299999999999    Cr
Cr    0.49018899999999993 0.3203500000000001 0.0356295    Cr
Cr    0.4901890000000001  0.65383  0.32035    Cr
Cr    0.4901900000000001 0.03562980000000002 0.6538299999999999    Cr
Cr    0.4901900000000002  0.65383 0.0356295    Cr
F     0.49999899999999997 2.648839999841446e-07  0.74954     F
O     0.4999990000000001 2.882550000082862e-07 0.6837689999999998     O
Cr    0.4999989999999999 4.214550000103401e-07 0.284101    Cr
Cr    0.4999990000000001   0.2841      0.0    Cr
O     0.4999989999999999  0.68377      0.0     O
O     0.4999999999999999 -1.8059900001865525e-07  0.31623     O
Cr    0.4999999999999999 0.284099   0.7159    Cr
O          0.5  0.68377  0.31623     O
Cr    0.49999999999999994 0.715899 0.284101    Cr
Cr    0.500001 -9.634630000199262e-07   0.7159    Cr
O     0.500001 0.316229      0.0     O
O     0.500001  0.31623 0.6837689999999998     O
Cr    0.500001 0.715899      0.0    Cr
Cr    0.5098099999999999 0.34617100000000006 0.964369    Cr
Cr     0.50981 0.6796490000000001  0.34617    Cr
Cr    0.5098099999999999 0.6796490000000002 0.964369    Cr
Cr    0.5098099999999999 0.9643690000000001  0.34617    Cr
Cr    0.5098100000000001  0.96437 0.679649    Cr
Cr    0.509811 0.346169 0.679649    Cr
O      0.51355 0.040870100000000006  0.28397     O
O      0.51355 0.04087039999999997 0.661609     O
O     0.5135500000000001  0.28397 0.0408704     O
O     0.5135499999999998 0.6616090000000001 0.0408704     O
O     0.5135499999999998 0.661609  0.28397     O
O     0.5135509999999999  0.28397 0.661609     O
O     0.514779 0.030280299999999954   0.7007     O
O     0.5147789999999999 0.030280699999999994  0.25424     O
O     0.5147789999999999 0.254241 0.0302795     O
O     0.514779 0.700699 0.0302795     O
O      0.51478  0.25424   0.7007     O
O     0.5147809999999999 0.700699  0.25424     O
C     0.5160699999999999 0.045769500000000005  0.26081     C
C     0.5160699999999999  0.26081 0.0457701     C
C     0.5160699999999999 0.260811 0.677349     C
C      0.51607 0.6773500000000001 0.0457701     C
C      0.51607 0.6773500000000001  0.26081     C
C     0.516071 0.04577050000000002 0.677349     C
F     0.5164390000000001 0.6719599999999999 0.378561     F
F     0.5164390000000002 0.933039 0.378561     F
F      0.51644 0.37856000000000006 0.933039     F
F     0.5164400000000002 0.671959 0.933039     F
O     0.5221789999999998 0.016940200000000016 0.329041     O
O     0.5221790000000001 0.016940599999999972  0.63184     O
O     0.5221790000000001  0.32904 0.0169406     O
O     0.522179 0.631839 0.0169406     O
O     0.5221790000000001 0.6318389999999999 0.329041     O
O     0.5221799999999999 0.3290390000000001  0.63184     O
C     0.5299089999999999 0.06200979999999999  0.24017     C
C     0.5299089999999999 0.24017100000000002 0.0620091     C
C     0.5299089999999999 0.667911 0.0620091     C
C      0.52991 0.06200919999999999  0.66791     C
C      0.52991 0.24017000000000005  0.66791     C
C     0.5299099999999999 0.6679090000000001  0.24017     C
O     0.5308700000000001  0.34919 0.644649     O
O      0.53087 0.34918999999999994 0.975289     O
O      0.53087  0.64465 0.975289     O
O      0.53087 0.6446510000000001 0.34918899999999997     O
O      0.53087 0.975289 0.644649     O
O     0.5308699999999998 0.9752900000000002 0.34918899999999997     O
C     0.5343600000000001 0.343039 0.6260789999999999     C
C      0.53436 0.3430389999999999  0.99652     C
C      0.53436 0.626079  0.99652     C
C     0.5343599999999998 0.6260800000000001  0.34304     C
C     0.5343600000000002 0.9965190000000002 0.6260789999999999     C
C     0.5343599999999998  0.99652  0.34304     C
O     0.5345989999999999 0.274899  0.71834     O
O     0.534599 0.27489999999999987 0.972159     O
O     0.534599  0.71834   0.2749     O
O     0.5345990000000002 0.9721590000000001   0.2749     O
O     0.5345990000000002  0.97216  0.71834     O
O       0.5346  0.71834 0.972159     O
O     0.537499  0.31694  0.69634     O
O     0.5374989999999997 0.696339  0.94922     O
O     0.5374989999999998 0.696341 0.31693899999999997     O
O     0.5374999999999999  0.31694  0.94922     O
O     0.5374999999999999 0.9492189999999999 0.31693899999999997     O
O     0.5374999999999996 0.949219  0.69634     O
C     0.538059 0.058659100000000006  0.21686     C
C     0.5380589999999998 0.216859 0.0586608     C
C     0.5380589999999998  0.21686  0.68642     C
C     0.538059 0.686419  0.21686     C
C     0.5380599999999999 0.05865999999999999  0.68642     C
C      0.53806 0.6864189999999999 0.0586608     C
C     0.5436689999999998 0.07264970000000004  0.64041     C
C     0.543669 0.0726506 0.243269     C
C     0.543669  0.24327 0.0726506     C
C     0.5436689999999997  0.64041 0.0726506     C
C      0.54367  0.24327  0.64041     C
C     0.5436699999999999  0.64041 0.243269     C
H     0.543827 0.06763030000000002 0.262173     H
H     0.543827 0.262172  0.06763     H
H     0.5438269999999998 0.626369 0.262173     H
H     0.543828 0.06762959999999998 0.626369     H
H     0.543828 0.26217200000000007 0.626369     H
H     0.543828 0.626369  0.06763     H
C     0.5475979999999999 0.7073400000000001  0.29076     C
C     0.5475989999999997 0.29075999999999996  0.70734     C
C     0.5475989999999997 0.7073400000000001 0.954299     C
C     0.5475990000000001   0.9543  0.29076     C
C     0.547599 0.9542999999999999  0.70734     C
C     0.5476000000000001 0.29075999999999996 0.954299     C
C     0.552428  0.67921 0.0745704     C
C     0.552429 0.07456889999999997  0.67921     C
C     0.552429  0.19379  0.67921     C
C     0.5524290000000001 0.193791 0.0745704     C
C      0.55243 0.07457019999999999  0.19379     C
C     0.5524300000000001 0.6792090000000001  0.19379     C
H     0.5551869999999999 0.07587769999999999 0.693933     H
H     0.555187 0.6939319999999999 0.0758782     H
H     0.555188 0.07587719999999999 0.175002     H
H     0.5551879999999999 0.175001 0.0758782     H
H     0.555188 0.17500099999999996 0.693933     H
H     0.5551880000000001 0.6939309999999999 0.175002     H
C     0.5566490000000001 0.22101099999999999 0.632789     C
C     0.5566490000000001  0.63279  0.22101     C
C     0.5566499999999999 0.08955020000000005 0.632789     C
C     0.5566499999999999 0.0895503  0.22101     C
C     0.5566499999999999 0.22100900000000004 0.0895504     C
C      0.55665 0.6327900000000001 0.0895504     C
C     0.5583389999999998 0.603881 0.996479     C
C     0.5583399999999998 0.341299  0.60388     C
C     0.5583399999999997  0.60388   0.3413     C
C     0.5583399999999997 0.9964790000000001  0.60388     C
C     0.558341 0.34129999999999994 0.996479     C
C     0.558341 0.996479   0.3413     C
C     0.5602990000000001 0.0212406 0.335081     C
C     0.5602989999999999  0.33508 0.0212401     C
C     0.5602989999999999  0.33508  0.58338     C
C     0.5602989999999998 0.583379 0.335081     C
C     0.5602989999999999  0.58338 0.0212401     C
C     0.5603000000000002 0.02124000000000001  0.58338     C
H     0.5613789999999999 0.102402 0.223103     H
H     0.5613799999999999 0.223103 0.102402     H
H      0.56138 0.223104 0.613114     H
H     0.561381 0.10240200000000002 0.613114     H
H     0.561381 0.613113 0.102402     H
H     0.5613809999999999 0.6131139999999999 0.223103     H
C     0.563078 0.08870050000000002   0.6523     C
C     0.563079 0.08870000000000003 0.19592099999999998     C
C     0.563079 0.19592000000000004 0.08870059999999999     C
C     0.563079 0.19592000000000004   0.6523     C
C     0.5630789999999999 0.652299 0.08870059999999999     C
C      0.56308 0.652299 0.19592099999999998     C
C     0.571859 0.278579 0.7116389999999999     C
C     0.571859 0.7116390000000001 0.278579     C
C      0.57186  0.71164 0.937919     C
C     0.5718610000000002 0.27857899999999997 0.937919     C
C     0.571861 0.9379190000000001 0.7116389999999999     C
C     0.5718610000000001  0.93792 0.278579     C
C     0.574098 0.10732000000000003   0.6465     C
C     0.574099  0.17208   0.6465     C
C     0.5741000000000002 0.107319  0.17208     C
C       0.5741 0.172081 0.107319     C
C       0.5741 0.6464989999999999 0.107319     C
C       0.5741 0.6464990000000002  0.17208     C
C     0.577869 0.251289  0.72529     C
C     0.5778689999999997 0.7252890000000001 0.251289     C
C     0.5778699999999999  0.25129 0.9455499999999999     C
C      0.57787 0.7252890000000001 0.9455499999999999     C
C     0.5778699999999999 0.9455500000000001 0.251289     C
C      0.57787 0.9455500000000001  0.72529     C
O     0.578658  0.12512 0.172381     O
O     0.578659  0.17238 0.125119     O
O     0.578659  0.62384 0.172381     O
O      0.57866 0.12511999999999995 0.623839     O
O      0.57866 0.17238000000000003 0.623839     O
O      0.57866 0.6238410000000001 0.125119     O
C     0.5815990000000001 0.33974099999999996 0.974459     C
C     0.5815989999999999 0.9744590000000001 0.339741     C
C     0.5815999999999999 0.33973899999999996 0.604199     C
C       0.5816 0.6041990000000002 0.339741     C
C     0.5815999999999999 0.9744600000000001 0.604199     C
C     0.5816010000000003 0.604199 0.974459     C
H     0.582106  0.33856 0.621524     H
H     0.5821060000000002 0.33855999999999997 0.957807     H
H     0.582106 0.9578080000000001 0.338559     H
H     0.5821069999999998 0.621524 0.338559     H
H     0.5821070000000003 0.6215249999999999 0.957807     H
H     0.5821080000000001 0.9578069999999999 0.621524     H
O     0.5822990000000001 0.10383999999999999  0.15032     O
O     0.5822989999999999 0.15031899999999998  0.10384     O
O       0.5823 0.10384000000000007 0.6635399999999999     O
O     0.5822999999999999 0.15032000000000004 0.6635399999999999     O
O     0.5822999999999999 0.663539  0.10384     O
O     0.5822999999999999 0.6635390000000001  0.15032     O
F     0.5823690000000001  0.58237 0.167631     F
C     0.583379 0.0212406 0.335081     C
C     0.5833789999999999 0.3350800000000001   0.5603     C
C     0.583379   0.5603 0.335081     C
C      0.58338 0.021239500000000022   0.5603     C
C     0.5833799999999999  0.33508 0.0212401     C
C     0.5833809999999999 0.5602990000000001 0.0212401     C
H     0.5854930000000002 0.0390291 0.330611     H
H     0.585493 0.330612 0.0390286     H
H     0.585494 0.03902829999999999 0.544866     H
H     0.5854940000000001 0.3306109999999999 0.544866     H
H     0.5854940000000001 0.544866 0.0390286     H
H     0.5854940000000001 0.544866 0.330611     H
H     0.586788 0.310694 0.6861099999999999     H
H     0.5867879999999999 0.310694 0.916408     H
H     0.5867880000000002 0.6861079999999999 0.916408     H
H     0.586788 0.6861090000000001 0.310695     H
H     0.586788 0.9164070000000001 0.6861099999999999     H
H     0.586788 0.9164080000000002 0.310695     H
C     0.5911489999999999 0.2903700000000001 0.9211889999999999     C
C     0.5911490000000001 0.6972900000000001 0.290371     C
C     0.591149 0.921189 0.290371     C
C     0.5911490000000001  0.92119 0.697289     C
C     0.5911499999999998 0.290371 0.697289     C
C     0.5911499999999998 0.697289 0.9211889999999999     C
C     0.6029799999999997 0.23637999999999998 0.726699     C
C     0.6029799999999998 0.23637999999999998  0.93394     C
C     0.6029799999999998 0.726699  0.93394     C
C     0.6029799999999997 0.7267000000000001  0.23638     C
C      0.60298 0.933939 0.726699     C
C     0.6029799999999997 0.9339400000000001  0.23638     C
C     0.6038799999999998 0.34129999999999994  0.55834     C
C      0.60388 0.34129999999999994 0.996479     C
C     0.6038799999999999 0.558339 0.996479     C
C     0.6038800000000001 0.5583399999999998   0.3413     C
C     0.6038800000000002 0.996479   0.3413     C
C     0.6038799999999999 0.9964790000000001  0.55834     C
C     0.6041990000000003 0.33974099999999996 0.974459     C
C     0.6041989999999997 0.5815999999999999 0.974459     C
C     0.604199 0.9744590000000001 0.339741     C
C     0.6041989999999999  0.97446 0.581599     C
C       0.6042 0.33974100000000007 0.581599     C
C     0.6041999999999997 0.5816000000000001 0.339741     C
Cr    0.604209  0.14579 0.604209    Cr
Cr    0.604209 0.604209  0.14579    Cr
Cr    0.6042100000000001  0.14579  0.14579    Cr
F     0.607109 0.0963106 0.0963095     F
H     0.6085330000000001  0.21579 0.7365869999999999     H
H     0.608534 0.7365860000000001  0.21579     H
H     0.608535 0.21578899999999995 0.939089     H
H     0.6085349999999998 0.736586 0.939089     H
H     0.6085349999999999 0.939088 0.7365869999999999     H
H     0.6085349999999999 0.9390890000000001  0.21579     H
Cr     0.60876  0.11382 0.113819    Cr
Cr     0.60876 0.11382000000000003 0.663599    Cr
Cr     0.60876 0.663601 0.113819    Cr
C     0.6163189999999998 0.2750989999999999  0.91078     C
C     0.6163189999999997   0.2751   0.6978     C
C     0.6163189999999997 0.697799   0.2751     C
C     0.6163189999999998 0.6977990000000001  0.91078     C
C     0.616319 0.9107800000000003   0.2751     C
C     0.6163190000000001  0.91078   0.6978     C
C     0.6211399999999998 0.24922099999999997 0.714639     C
C     0.6211399999999998 0.24922099999999997 0.914999     C
C     0.6211399999999998 0.714639 0.914999     C
C      0.62114  0.71464  0.24922     C
C     0.6211399999999998 0.9149990000000001 0.714639     C
C      0.62114 0.9149999999999999  0.24922     C
F     0.6214389999999999 0.06696019999999998 0.328041     F
F     0.621439 0.48356099999999996 0.0669596     F
F      0.62144 0.32803999999999994 0.0669596     F
H     0.6215229999999999 0.338561 0.582108     H
H     0.621523 0.957807 0.582108     H
H     0.6215240000000002 0.33855999999999997 0.957807     H
H     0.621524 0.582106 0.957807     H
H     0.6215239999999999 0.582107 0.338559     H
H     0.621524 0.9578080000000001 0.338559     H
O     0.623838  0.12512 0.172381     O
O     0.623839 0.12511999999999998  0.57866     O
O     0.623839 0.1723790000000001  0.57866     O
O     0.623839  0.17238 0.125119     O
O     0.6238389999999998 0.578659 0.125119     O
O     0.6238389999999999 0.578659 0.172381     O
C     0.626079 0.3430400000000001 0.534359     C
C     0.6260789999999999 0.534359  0.34304     C
C     0.626079 0.534359  0.99652     C
C     0.6260790000000002 0.9965200000000001 0.534359     C
C     0.6260799999999997 0.3430389999999999  0.99652     C
C     0.6260799999999999  0.99652  0.34304     C
O     0.626328 0.12367099999999998  0.62633     O
O     0.6263290000000001  0.62633 0.123669     O
O      0.62633 0.12366900000000003 0.123669     O
H     0.626368 0.06763030000000002 0.262173     H
H     0.6263679999999999 0.262172  0.06763     H
H     0.6263679999999999 0.262173 0.543827     H
H     0.626368 0.543827 0.262173     H
H     0.6263689999999997 0.06763019999999997 0.543827     H
H     0.6263689999999998 0.543827  0.06763     H
O     0.6316089999999999 0.0759505 0.127269     O
O     0.6316089999999999 0.07595070000000001 0.6651699999999999     O
O     0.6316089999999999  0.12727 0.0759503     O
O     0.6316089999999999 0.665169 0.0759503     O
O     0.6316100000000001 0.127269 0.6651699999999999     O
O     0.6316100000000001  0.66517 0.127269     O
O     0.6318389999999999 0.016940200000000016 0.329041     O
O     0.6318390000000002  0.32904 0.0169406     O
O     0.6318390000000003 0.3290400000000001  0.52218     O
O     0.631839 0.5221789999999998 0.329041     O
O      0.63184 0.01694000000000001  0.52218     O
O      0.63184 0.522179 0.0169406     O
H     0.6319499999999999 0.282876 0.899643     H
H     0.6319509999999998 0.282876 0.685529     H
H     0.6319510000000002 0.899644 0.282875     H
H     0.6319519999999998 0.685528 0.899643     H
H     0.6319519999999998 0.685529 0.282875     H
H     0.631952 0.8996420000000002 0.685529     H
C     0.632789 0.0895503  0.22101     C
C     0.6327889999999999  0.55665 0.0895504     C
C      0.63279 0.08954999999999999  0.55665     C
C     0.6327899999999999 0.22100900000000004 0.0895504     C
C      0.63279  0.22101  0.55665     C
C     0.6327899999999999  0.55665  0.22101     C
C     0.640409 0.543669 0.0726506     C
C      0.64041 0.07264969999999998 0.543669     C
C      0.64041 0.0726506 0.243269     C
C      0.64041  0.24327 0.0726506     C
C      0.64041  0.24327 0.543669     C
C     0.6404100000000001 0.5436699999999999 0.243269     C
O     0.6446489999999999  0.34919  0.53087     O
O     0.6446500000000002 0.34918999999999994 0.975289     O
O     0.6446499999999998 0.5308690000000001 0.34918899999999997     O
O     0.6446499999999997  0.53087 0.975289     O
O     0.6446500000000001 0.9752889999999999  0.53087     O
O     0.6446499999999998 0.9752900000000002 0.34918899999999997     O
C     0.6460989999999998 0.23421999999999998   0.7165     C
C     0.6461000000000002 0.7164990000000001  0.23422     C
C     0.6461000000000001 0.7165009999999998 0.903179     C
C       0.6461 0.903179  0.23422     C
C     0.6460999999999999 0.9031789999999997   0.7165     C
C     0.646101 0.2342200000000001 0.903179     C
C     0.6464989999999999 0.10732000000000003 0.574099     C
C     0.6464989999999999   0.5741 0.107319     C
C     0.6465000000000001 0.107319  0.17208     C
C     0.6465000000000001  0.17208 0.574099     C
C       0.6465 0.172081 0.107319     C
C     0.6465000000000002 0.574099  0.17208     C
C     0.649309 0.020390400000000003 0.6867099999999999     C
C     0.6493090000000001 0.143589 0.6867099999999999     C
C     0.649309  0.14359 0.020390399999999996     C
C     0.6493089999999999 0.6867099999999999 0.020390399999999996     C
C     0.6493089999999999  0.68671  0.14359     C
C      0.64931 0.0203898  0.14359     C
H     0.6493899999999998 0.15407200000000001 0.715044     H
H      0.64939 0.15407399999999993 0.981491     H
H     0.6493899999999999 0.715044 0.154074     H
H      0.64939 0.9814910000000001 0.154074     H
H     0.6493910000000003 0.715043 0.981491     H
H     0.6493909999999998 0.9814909999999999 0.715044     H
O     0.6506989999999999 0.21040000000000003  0.72784     O
O     0.6506989999999999 0.21039999999999998  0.91106     O
O     0.6506990000000001 0.7278389999999999  0.91106     O
O     0.6506990000000001  0.91106  0.72784     O
O     0.6506999999999998 0.7278389999999999   0.2104     O
O     0.6507000000000001 0.911059   0.2104     O
O     0.650809 0.024709800000000004 0.46912999999999994     O
O     0.6508090000000002 0.3553489999999999 0.46912999999999994     O
O      0.65081 0.02470989999999998  0.35535     O
O     0.6508099999999999 0.35534999999999994 0.0247093     O
O     0.6508099999999999 0.46912899999999996 0.0247093     O
O     0.6508099999999999 0.4691289999999999  0.35535     O
C     0.6522990000000001 0.08870039999999998 0.563079     C
C     0.652299  0.56308 0.08870059999999999     C
C       0.6523 0.08870000000000003 0.19592099999999998     C
C       0.6523 0.19592000000000004 0.08870059999999999     C
C       0.6523  0.19592 0.563079     C
C       0.6523 0.5630800000000001 0.19592099999999998     C
C     0.653609 0.12987100000000001 0.0629096     C
C      0.65361 0.06290969999999999  0.65361     C
C      0.65361 0.0629102 0.129869     C
C      0.65361 0.12986899999999998  0.65361     C
C      0.65361  0.65361 0.0629096     C
C     0.6536109999999999 0.6536090000000001 0.129869     C
Cr     0.65383 0.03562989999999999 0.490189    Cr
Cr     0.65383 0.0356306  0.32035    Cr
Cr    0.6538300000000001 0.320349 0.490189    Cr
Cr    0.6538300000000001 0.3203500000000001 0.0356295    Cr
Cr     0.65383 0.49018900000000004 0.0356295    Cr
Cr    0.6538300000000002 0.490189  0.32035    Cr
F     0.655449 0.15624999999999994 0.766289     F
F     0.6554489999999997 0.7662890000000001 0.15625099999999997     F
C     0.6569589999999998 0.46563999999999994 0.0034809     C
C     0.6569590000000001 0.46564000000000005 0.3739199999999999     C
C      0.65696 0.003479359999999987  0.46564     C
C      0.65696 0.003479770000000021 0.3739199999999999     C
C      0.65696 0.37391899999999995  0.46564     C
C      0.65696 0.3739199999999999 0.0034809     C
C     0.6586989999999999 0.003520000000000023 0.441659     C
C     0.6586989999999999 0.396121 0.441659     C
C     0.6586989999999999  0.44166 0.0035198799999999995     C
C       0.6587 0.003520240000000008 0.396119     C
C     0.6586999999999998  0.39612 0.0035198799999999995     C
C       0.6587 0.44166000000000005 0.396119     C
C     0.6602589999999999 0.0255397   0.4184     C
C     0.6602590000000002 0.39580000000000004 0.0255396     C
C     0.6602600000000001 0.025539299999999987 0.39579899999999996     C
C     0.6602600000000001   0.3958   0.4184     C
C      0.66026 0.41840000000000005 0.0255396     C
C     0.660261 0.418399 0.39579899999999996     C
C     0.6609980000000001 0.148421  0.69802     C
C     0.6609989999999999 0.6980200000000001  0.14842     C
C     0.6609999999999998  0.14842 0.992559     C
C        0.661 0.9925589999999999  0.14842     C
C     0.6610000000000001 0.9925589999999999  0.69802     C
C     0.661001 0.698019 0.992559     C
H     0.6614390000000001 0.04219229999999999 0.378475     H
H     0.661439 0.417893 0.0421918     H
H     0.6614390000000001 0.41789299999999996 0.378475     H
O     0.661609 0.040870100000000006  0.28397     O
O     0.661609  0.28397 0.0408704     O
O     0.6616090000000001 0.283971  0.51355     O
O     0.6616089999999999  0.51355 0.0408704     O
O     0.661609  0.51355  0.28397     O
O     0.6616099999999999 0.04086929999999994  0.51355     O
C     0.6618389999999997 0.0342411 0.661839     C
C     0.661839 0.14208000000000007 0.661839     C
C     0.6618390000000001 0.14208100000000004 0.0342399     C
C     0.6618389999999998 0.6618389999999998  0.14208     C
C     0.661839 0.6618400000000001 0.0342399     C
C      0.66184 0.0342392  0.14208     C
O     0.662779 0.7076810000000002 0.8847389999999999     O
O     0.6627790000000001  0.88474 0.707679     O
O     0.6627799999999999 0.24480000000000007 0.8847389999999999     O
O     0.6627799999999998 0.244801 0.707679     O
O     0.6627799999999999 0.8847390000000002 0.244799     O
O     0.6627809999999998 0.707679 0.244799     O
O     0.6635380000000001 0.15032099999999998   0.5823     O
O     0.663539 0.10383999999999999   0.5823     O
O     0.6635389999999999   0.5823  0.10384     O
O     0.6635389999999998 0.5823010000000001  0.15032     O
O     0.663541 0.10383999999999999  0.15032     O
O     0.6635409999999999 0.15031899999999998  0.10384     O
Cr    0.6635990000000002  0.11382  0.60876    Cr
Cr    0.663599 0.6087599999999999 0.113819    Cr
Cr    0.6636010000000001  0.11382 0.113819    Cr
C     0.6649190000000001   0.4397 0.41662099999999996     C
C     0.664919 0.978759 0.41662099999999996     C
C     0.664919 0.9787590000000002   0.4397     C
C      0.66492 0.41661900000000013   0.4397     C
C      0.66492 0.416619 0.978759     C
C      0.66492 0.43970000000000004 0.978759     C
O     0.6651689999999997  0.63161 0.0759503     O
O      0.66517 0.07595039999999997  0.63161     O
O     0.6651699999999999  0.12727 0.0759503     O
O     0.6651709999999998 0.0759505 0.127269     O
O     0.6651710000000001 0.12726900000000002  0.63161     O
O     0.6651709999999998 0.6316100000000001 0.127269     O
C     0.6679090000000001 0.24017000000000002  0.52991     C
C     0.6679090000000001 0.529909  0.24017     C
C      0.66791 0.06200979999999999  0.24017     C
C      0.66791 0.062010499999999996  0.52991     C
C     0.6679099999999999 0.24017100000000002 0.0620091     C
C      0.66791 0.529911 0.0620091     C
H     0.669388 0.41450699999999996 0.455133     H
H     0.6693879999999998 0.455133  0.96097     H
H     0.669388 0.4551339999999999 0.414506     H
H     0.6693880000000001 0.9609710000000001 0.414506     H
H     0.669388 0.9609710000000001 0.455133     H
H     0.6693890000000002 0.41450599999999993  0.96097     H
O      0.67096 0.36815899999999996  0.98306     O
O     0.6709600000000001 0.36815999999999993 0.477819     O
O      0.67096 0.47781899999999994  0.98306     O
O     0.6709600000000001 0.9830590000000001 0.477819     O
O     0.6709599999999998 0.9830600000000002 0.368159     O
O     0.6709610000000001 0.477819 0.368159     O
F     0.6719590000000002  0.37856  0.51644     F
F     0.6719589999999999 0.9330400000000001  0.51644     F
H     0.6731869999999999 0.164182 0.810906     H
H     0.6731870000000002 0.851723 0.164181     H
H     0.6731880000000001 0.8517240000000001 0.810906     H
O     0.6746780000000003 0.7125599999999999  0.94354     O
O     0.6746789999999998 0.169219  0.94354     O
O     0.6746790000000001 0.943539 0.169219     O
O     0.674679 0.9435399999999999 0.712559     O
O     0.6746799999999998 0.16922100000000004 0.712559     O
O     0.6746800000000001  0.71256 0.169219     O
O     0.6746990000000003 0.18393899999999996  0.87362     O
O       0.6747 0.18393999999999988 0.767739     O
O     0.6746999999999999 0.7677379999999999  0.87362     O
O       0.6747 0.7677390000000001  0.18394     O
O     0.6746999999999999 0.873619  0.18394     O
O     0.6746999999999999 0.8736190000000001 0.767739     O
C     0.677349  0.26081 0.0457701     C
C     0.677349 0.26080999999999993  0.51607     C
C     0.677349  0.51607  0.26081     C
C     0.6773499999999999 0.045769500000000005  0.26081     C
C     0.6773500000000001 0.045769700000000024  0.51607     C
C      0.67735  0.51607 0.0457701     C
Cr    0.6781189999999999 0.17628100000000002 0.7387989999999999    Cr
Cr    0.6781190000000001 0.738799   0.9068    Cr
Cr    0.6781199999999998 0.17628100000000002   0.9068    Cr
Cr    0.6781200000000001 0.738798 0.17628100000000002    Cr
Cr     0.67812 0.906799 0.7387989999999999    Cr
Cr     0.67812   0.9068 0.17628100000000002    Cr
C     0.6792080000000003  0.55243  0.19379     C
C     0.679209 0.07457019999999999  0.19379     C
C     0.679209 0.19378999999999993  0.55243     C
C     0.6792090000000001 0.193791 0.0745704     C
C     0.6792100000000001 0.07456949999999998  0.55243     C
C     0.6792100000000001  0.55243 0.0745704     C
Cr    0.679649 0.34617100000000006 0.964369    Cr
Cr    0.679649 0.5098100000000001 0.964369    Cr
Cr    0.679649 0.964369  0.50981    Cr
Cr    0.6796499999999996 0.34617000000000003  0.50981    Cr
Cr     0.67965  0.50981  0.34617    Cr
Cr    0.6796499999999996 0.9643690000000001  0.34617    Cr
C     0.679969 0.810149  0.83267     C
C      0.67997 0.177209  0.83267     C
C     0.6799699999999999 0.17720999999999998 0.810149     C
C     0.6799699999999999 0.810149  0.17721     C
C     0.6799699999999996 0.832669  0.17721     C
C     0.6799699999999999 0.8326689999999999 0.810149     C
O     0.683059 0.0507802   0.4625     O
O      0.68306 0.05078070000000001 0.303659     O
O     0.6830599999999999 0.303659   0.4625     O
O      0.68306  0.30366 0.05077899999999999     O
O      0.68306 0.462499 0.05077899999999999     O
O      0.68306 0.46250099999999994 0.303659     O
O     0.6837690000000001 -1.8059900001865525e-07  0.31623     O
O     0.6837689999999998 6.477599999998862e-07      0.5     O
O     0.683769 0.316229      0.0     O
O     0.6837690000000001  0.31623      0.5     O
O     0.6837690000000001      0.5  0.31623     O
O     0.6837699999999998      0.5      0.0     O
H     0.6847669999999999 0.7690620000000001 0.809539     H
H     0.684768 0.23662899999999992 0.769063     H
H     0.6847680000000003 0.23662899999999998 0.809539     H
H     0.6847680000000003 0.769062 0.236629     H
H     0.684768 0.809539 0.236629     H
H     0.6847679999999998 0.8095390000000002 0.769063     H
H     0.685528 0.282876 0.899643     H
H     0.6855279999999999 0.899644 0.282875     H
H     0.6855289999999998 0.631951 0.899643     H
H     0.6855289999999999 0.899643 0.631951     H
H      0.68553 0.28287500000000004 0.631951     H
H      0.68553 0.631951 0.282875     H
C     0.6864189999999999 0.05865970000000004  0.53806     C
C     0.6864189999999999 0.5380590000000001 0.0586608     C
C      0.68642 0.058659100000000006  0.21686     C
C      0.68642 0.216859 0.0586608     C
C      0.68642 0.21686000000000008  0.53806     C
C     0.6864199999999999 0.5380589999999998  0.21686     C
C     0.686709  0.14359 0.020390399999999996     C
C     0.6867089999999998 0.14359100000000002 0.6493090000000001     C
C     0.6867089999999998 0.6493090000000001  0.14359     C
C      0.68671 0.0203898  0.14359     C
C     0.6867099999999999 0.020389799999999986 0.6493090000000001     C
C     0.6867099999999999 0.649309 0.020390399999999996     C
C     0.6867989999999999 0.21937999999999996 0.7856599999999999     C
C     0.686799 0.785659 0.808159     C
C     0.6867989999999999 0.7856599999999999 0.219381     C
C     0.6867989999999999 0.808159 0.7856599999999999     C
C     0.6867999999999997 0.808159 0.219381     C
C     0.6868009999999998 0.219379 0.808159     C
C     0.687249 0.14588999999999996  0.97961     C
C     0.687249 0.687249  0.97961     C
C     0.6872489999999998 0.6872499999999999  0.14589     C
C     0.687249 0.9796090000000002 0.6872499999999999     C
C     0.687249 0.9796099999999999  0.14589     C
C     0.6872499999999999 0.14589000000000008 0.6872499999999999     C
C     0.6889689999999999 0.19630999999999998 0.763031     C
C     0.6889699999999999 0.19631000000000004  0.85169     C
C      0.68897 0.7630289999999998 0.19630999999999998     C
C     0.6889700000000002 0.763029  0.85169     C
C     0.6889699999999999 0.851688 0.763031     C
C     0.6889700000000002 0.8516899999999998 0.19630999999999998     C
C     0.689588  0.82921  0.78551     C
C     0.6895889999999999 0.19569099999999995 0.829209     C
C     0.6895890000000001 0.7855099999999999 0.195691     C
C     0.6895890000000001  0.78551 0.829209     C
C     0.6895889999999999 0.829208 0.195691     C
C     0.6895899999999999 0.19568900000000006  0.78551     C
H     0.6939309999999999 0.175001 0.0758782     H
H     0.693932 0.07587719999999999 0.175002     H
H     0.693932 0.17500100000000005 0.555188     H
H     0.6939319999999999 0.555187 0.175002     H
H     0.693932 0.555188 0.0758782     H
H     0.693933 0.07587730000000006 0.555188     H
O     0.6943489999999999 0.21518899999999996 0.8495500000000001     O
O     0.6943489999999999 0.740909 0.8495500000000001     O
O     0.6943489999999999 0.8495490000000001  0.21519     O
O      0.69435  0.21519 0.740909     O
O      0.69435 0.740909  0.21519     O
O      0.69435 0.8495489999999999 0.740909     O
C     0.6946989999999997   0.1585 0.6946989999999998     C
C     0.6946990000000001 0.15850000000000003   0.9521     C
C     0.694699 0.694699   0.1585     C
C     0.6946989999999998 0.6946990000000001   0.9521     C
C     0.694699   0.9521   0.1585     C
C       0.6947 0.952099 0.6946989999999998     C
O      0.69634  0.31694 0.537499     O
O      0.69634  0.31694  0.94922     O
O      0.69634   0.5375  0.94922     O
O      0.69634 0.9492189999999999 0.31693899999999997     O
O     0.696341 0.5374989999999998 0.31693899999999997     O
O     0.6963410000000001 0.949219 0.537499     O
C     0.697289 0.2903700000000001 0.9211889999999999     C
C     0.697289 0.5911490000000001 0.290371     C
C     0.697289 0.5911500000000001 0.9211889999999999     C
C     0.6972889999999999 0.921189 0.290371     C
C      0.69729 0.290369 0.591149     C
C     0.6972899999999999 0.9211890000000001 0.591149     C
H     0.6976180000000001 0.030637899999999996 0.630632     H
H     0.6976179999999998 0.030639000000000007 0.141111     H
H     0.6976179999999998  0.14111 0.630632     H
H     0.6976180000000001 0.14111100000000001 0.0306382     H
H     0.6976180000000001  0.63063 0.141111     H
H     0.6976180000000001 0.6306310000000002 0.0306382     H
C     0.6977990000000001 0.27509900000000004  0.61632     C
C     0.6977989999999998 0.2750989999999999  0.91078     C
C     0.6977990000000001 0.6163190000000001  0.91078     C
C     0.6977989999999998  0.61632   0.2751     C
C     0.6977990000000001 0.910779  0.61632     C
C     0.6977989999999997 0.9107800000000003   0.2751     C
C     0.6980189999999997 0.6609999999999999 0.992559     C
C     0.698019 0.9925599999999999 0.660999     C
C     0.6980200000000001  0.14842 0.660999     C
C     0.6980199999999999  0.14842 0.992559     C
C      0.69802 0.660999  0.14842     C
C     0.6980199999999999 0.9925589999999999  0.14842     C
F     0.7002700000000001 0.09630940000000002 0.607109     F
Cr    0.7006790000000002 0.23195900000000005  0.70068    Cr
Cr    0.700679 0.23195900000000008  0.86668    Cr
Cr    0.7006790000000003 0.7006799999999999 0.231959    Cr
Cr    0.700679 0.8666800000000001  0.70068    Cr
Cr    0.7006799999999997  0.70068  0.86668    Cr
Cr     0.70068 0.8666789999999999 0.231959    Cr
O     0.7006989999999998 0.030279399999999984  0.51478     O
O     0.700699 0.030280699999999994  0.25424     O
O     0.7006990000000001 0.5147799999999999 0.0302795     O
O     0.7006999999999999 0.254241 0.0302795     O
O     0.7006999999999999  0.51478  0.25424     O
O     0.700701 0.254239  0.51478     O
O     0.7039689999999998 0.19610899999999998 0.7039699999999999     O
O     0.7039689999999998 0.19611000000000006 0.8959499999999999     O
O     0.703969  0.70397  0.19611     O
O     0.7039690000000002 0.895949  0.19611     O
O      0.70397 0.7039689999999998 0.8959499999999999     O
O     0.7039699999999998  0.89595 0.7039699999999999     O
H     0.705411 0.0445705 0.216393     H
H     0.705411 0.216392 0.0445715     H
H     0.705411 0.21639199999999997 0.533626     H
H     0.7054109999999999 0.5336249999999999 0.216393     H
H     0.705412 0.0445701 0.533626     H
H     0.7054119999999999 0.533625 0.0445715     H
F      0.70642 0.7064189999999999  0.83144     F
C     0.7073390000000003  0.29076 0.547601     C
C     0.7073389999999999 0.5475999999999999 0.954299     C
C     0.7073389999999998 0.9542989999999999 0.547601     C
C     0.7073400000000001 0.5476000000000001  0.29076     C
C      0.70734   0.9543  0.29076     C
C     0.7073410000000002 0.29075999999999996 0.954299     C
O     0.7076789999999997 0.24480000000000002  0.66278     O
O     0.7076799999999999 0.24480000000000007 0.8847389999999999     O
O     0.7076799999999999 0.662779 0.244799     O
O     0.7076800000000001 0.662779 0.8847389999999999     O
O     0.7076800000000001 0.8847390000000002 0.244799     O
O      0.70768 0.8847390000000002  0.66278     O
O     0.7084289999999998 0.14377000000000004  0.74449     O
O     0.7084289999999998  0.14377 0.903309     O
O     0.7084289999999999  0.74449 0.143769     O
O     0.7084289999999999  0.90331 0.143769     O
O     0.7084300000000001 0.744489 0.903309     O
O     0.7084299999999999 0.903309  0.74449     O
C     0.709239 0.04569969999999998   0.4524     C
C     0.709239 0.04570010000000001 0.292661     C
C     0.7092390000000001 0.45239999999999997 0.292661     C
C      0.70924 0.292659   0.0457     C
C     0.7092400000000001 0.2926599999999999   0.4524     C
C     0.7092400000000001 0.452399   0.0457     C
C     0.7096290000000001 0.07881030000000003 0.40884999999999994     C
C     0.709629 0.302709 0.40884999999999994     C
C      0.70963 0.07881059999999998  0.30271     C
C      0.70963 0.30271000000000003 0.0788095     C
C      0.70963 0.4088490000000001 0.0788095     C
C     0.7096299999999998 0.408849  0.30271     C
C     0.7116390000000002 0.27858000000000005  0.57186     C
C     0.7116389999999999  0.57186 0.278579     C
C     0.7116390000000001  0.57186 0.937919     C
C     0.7116389999999999 0.9379199999999999  0.57186     C
C      0.71164 0.27857899999999997 0.937919     C
C     0.7116399999999999  0.93792 0.278579     C
O     0.7125589999999999 0.169219  0.94354     O
O     0.712559 0.16922000000000006 0.674679     O
O     0.7125590000000002 0.674679  0.94354     O
O     0.7125590000000002  0.67468 0.169219     O
O     0.7125590000000002 0.9435390000000001 0.674679     O
O      0.71256 0.943539 0.169219     O
C     0.7146389999999999 0.24922099999999997  0.62114     C
C     0.714639 0.24922099999999997 0.914999     C
C     0.714639 0.621139  0.24922     C
C     0.714639 0.9149999999999999  0.24922     C
C     0.7146399999999997  0.62114 0.914999     C
C      0.71464 0.9149989999999998  0.62114     C
H     0.715044 0.15407399999999993 0.649391     H
H     0.7150440000000001 0.15407399999999993 0.981491     H
H     0.7150440000000003  0.64939 0.981491     H
H     0.7150439999999999 0.649391 0.154074     H
H     0.7150439999999999 0.9814910000000001 0.154074     H
H     0.7150440000000001 0.981491 0.649391     H
Cr    0.7158989999999998 6.477599999998862e-07      0.5    Cr
Cr    0.7158989999999998 0.28409900000000005      0.5    Cr
Cr    0.715899 0.499999 0.284101    Cr
Cr    0.7158989999999998      0.5      0.0    Cr
Cr      0.7159 4.214550000103401e-07 0.284101    Cr
Cr    0.7159000000000001   0.2841      0.0    Cr
O     0.7160280000000001 0.4864509999999999  0.33839     O
O     0.7160289999999999 0.33838899999999994 0.9591299999999999     O
O     0.7160299999999998 0.33838899999999994 0.486449     O
O     0.7160299999999998 0.48645000000000016 0.9591299999999999     O
O     0.7160299999999999 0.9591290000000001  0.33839     O
O     0.7160299999999999 0.9591299999999999 0.486449     O
C     0.716499 0.6460999999999999 0.903179     C
C     0.7165000000000001 0.2342200000000001 0.903179     C
C     0.7165000000000001   0.6461  0.23422     C
C       0.7165 0.903179  0.23422     C
C     0.7164999999999999 0.903179 0.646099     C
C     0.716501 0.23421999999999998 0.646099     C
H     0.7171229999999998 0.10035699999999999  0.31447     H
H     0.717123 0.314471 0.100356     H
H     0.7171240000000001 0.31447100000000006 0.368048     H
H     0.7171240000000002 0.368048  0.31447     H
H     0.7171249999999999 0.100357 0.368048     H
H     0.717125 0.36804800000000004 0.100356     H
O     0.7183389999999998 0.27489999999999987 0.972159     O
O     0.718339   0.5346   0.2749     O
O     0.718339 0.9721590000000001   0.2749     O
O      0.71834   0.2749 0.534599     O
O      0.71834   0.5346 0.972159     O
O     0.7183409999999997 0.972159 0.534599     O
C     0.7214189999999998 0.06208029999999999 0.288359     C
C     0.7214189999999999 0.288361 0.0620793     C
C      0.72142 0.062079400000000035 0.42813899999999994     C
C     0.7214200000000001 0.28836000000000006 0.42813899999999994     C
C     0.7214199999999998  0.42814 0.0620793     C
C      0.72142  0.42814 0.288359     C
C     0.7248989999999998 0.08921950000000001 0.38368099999999994     C
C     0.724899   0.3022 0.38368099999999994     C
C     0.7249000000000001 0.08921959999999998 0.302199     C
C     0.7249000000000001 0.302201 0.089219     C
C       0.7249  0.38368 0.089219     C
C     0.7248999999999999  0.38368 0.302199     C
O     0.7250999999999999 0.02784020000000001 0.281661     O
O       0.7251 0.027840400000000015   0.4654     O
O     0.7250999999999999 0.2816600000000001   0.4654     O
O       0.7251   0.4654 0.281661     O
O     0.725101  0.28166 0.0278394     O
O     0.725101   0.4654 0.0278394     O
C     0.7252889999999999  0.25129  0.57787     C
C      0.72529  0.25129 0.9455499999999999     C
C      0.72529  0.57787 0.251289     C
C      0.72529  0.57787 0.9455499999999999     C
C     0.7252900000000001 0.945549  0.57787     C
C      0.72529 0.9455500000000001 0.251289     C
C     0.7266989999999998 0.23637999999999998  0.93394     C
C     0.7266989999999997 0.9339400000000001  0.23638     C
C       0.7267 0.23638100000000004 0.602979     C
C     0.7267000000000001 0.6029800000000001  0.93394     C
C     0.7267009999999998 0.6029790000000002  0.23638     C
C     0.726701 0.933939 0.602979     C
O     0.7278390000000001   0.2104 0.6506999999999998     O
O      0.72784 0.21039999999999998  0.91106     O
O     0.7278400000000003 0.6506990000000001  0.91106     O
O     0.7278399999999999   0.6507   0.2104     O
O     0.7278400000000002 0.911059 0.6506999999999998     O
O     0.727841 0.911059   0.2104     O
C     0.7333590000000002 0.13491999999999993 0.898359     C
C     0.7333590000000001  0.73336 0.134919     C
C     0.7333590000000001  0.89836 0.134919     C
C      0.73336 0.13491899999999998 0.733359     C
C     0.7333599999999999 0.898361 0.733359     C
C     0.733361 0.733359 0.898359     C
H     0.734399 0.24215199999999998   0.5635     H
H     0.734399 0.563499 0.242153     H
H     0.7343989999999998 0.9599470000000001   0.5635     H
H     0.7343989999999998 0.959948 0.242153     H
H     0.7344000000000002 0.24215199999999992 0.9599469999999999     H
H     0.7343999999999999 0.563499 0.9599469999999999     H
C     0.7354390000000001 0.7746990000000001 0.101301     C
C     0.7354390000000001  0.88856 0.101301     C
C      0.73544 0.10129899999999997 0.774699     C
C     0.7354399999999996   0.1013 0.888559     C
C     0.7354409999999998 0.774699 0.888559     C
C     0.735441 0.888559 0.774699     C
H     0.736585 0.608535 0.939089     H
H     0.7365849999999999 0.9390890000000001  0.21579     H
H     0.7365859999999997 0.21578899999999995 0.939089     H
H     0.7365860000000001  0.21579 0.608534     H
H     0.736586 0.608534  0.21579     H
H     0.7365859999999999 0.9390890000000002 0.608534     H
Cr    0.7387989999999998 0.17628100000000002   0.9068    Cr
Cr    0.7387990000000001   0.9068 0.17628100000000002    Cr
Cr      0.7388 0.17627999999999996 0.678119    Cr
Cr    0.7387999999999999 0.6781190000000001   0.9068    Cr
Cr      0.7388  0.67812 0.17628100000000002    Cr
Cr      0.7388 0.9067999999999999 0.678119    Cr
C     0.7391900000000001 0.322649 0.483929     C
C     0.7391899999999998 0.3226490000000001 0.954229     C
C     0.7391899999999998 0.48392899999999994 0.954229     C
C     0.7391899999999998 0.48392999999999997  0.32265     C
C     0.7391899999999999 0.954229  0.32265     C
C     0.7391899999999999 0.954229 0.483929     C
O     0.740909 0.21518899999999996 0.8495500000000001     O
O     0.7409089999999998  0.69435 0.8495500000000001     O
O     0.740909 0.8495490000000001  0.21519     O
O     0.7409089999999999 0.849549  0.69435     O
O     0.7409100000000001 0.21519099999999997  0.69435     O
O     0.7409100000000002  0.69435  0.21519     O
H     0.7418480000000001 0.07152390000000003 0.875729     H
H     0.7418479999999997 0.875729 0.0715241     H
H     0.7418490000000002 0.07152380000000003 0.810896     H
H     0.7418489999999999 0.8108960000000001 0.0715241     H
H     0.7418490000000002 0.810897 0.875729     H
H     0.741849 0.875729 0.810896     H
O     0.7444889999999997  0.14377 0.903309     O
O     0.7444889999999998  0.90331 0.143769     O
O     0.7444890000000001 0.9033100000000001 0.7084299999999999     O
O     0.7444899999999999 0.14376900000000006 0.7084299999999999     O
O      0.74449 0.708429 0.143769     O
O     0.7444900000000001 0.708429 0.903309     O
O     0.7457599999999999   0.2993 0.48521899999999996     O
O     0.7457599999999999   0.2993 0.969719     O
O     0.7457599999999999 0.48521900000000007 0.969719     O
O      0.74576 0.48521999999999993 0.299299     O
O      0.74576  0.96972 0.48521899999999996     O
O     0.7457609999999997 0.969719 0.299299     O
C     0.7470179999999998 0.7470200000000001  0.89588     C
C     0.747019 0.11007999999999996  0.89588     C
C     0.747019  0.89588 0.110079     C
C     0.7470189999999999 0.8958800000000001  0.74702     C
C      0.74702 0.11007900000000004  0.74702     C
C     0.7470210000000003  0.74702 0.110079     C
C     0.748709 0.054448999999999984  0.27471     C
C     0.748709  0.05445  0.42213     C
C     0.7487100000000001 0.274709  0.42213     C
C     0.7487100000000001  0.27471 0.054449     C
C     0.7487100000000001 0.4221289999999999 0.054449     C
C      0.74871 0.422129  0.27471     C
F     0.7495400000000001      0.5 0.250459     F
C     0.750759 0.07911989999999997 0.790279     C
C     0.7507590000000001 0.07912090000000005 0.879839     C
C     0.7507589999999997 0.790279 0.0791193     C
C     0.7507589999999997  0.87984 0.0791193     C
C     0.7507600000000002 0.7902790000000001 0.879839     C
C     0.7507600000000001 0.879839 0.790279     C
C      0.75078 0.0849994 0.378861     C
C      0.75078 0.08499999999999998  0.28536     C
C      0.75078  0.28536 0.08499949999999999     C
C     0.7507800000000001 0.28536000000000006 0.378861     C
C      0.75078 0.37885899999999995  0.28536     C
C     0.750781 0.37885899999999995 0.08499949999999999     C
O     0.7551990000000001 0.2923200000000001 0.11525999999999999     O
O     0.7552000000000001 0.115259  0.29232     O
O     0.7551999999999999 0.11525900000000003 0.33722099999999994     O
O     0.7552000000000001  0.29232 0.33722099999999994     O
O     0.7552000000000002 0.33721999999999996 0.11525999999999999     O
O     0.7552000000000001  0.33722  0.29232     O
C     0.756729 0.4563289999999999  0.92735     C
C     0.756729  0.92735 0.456329     C
C     0.7567299999999999 0.35958900000000005  0.92735     C
C      0.75673 0.3595900000000001 0.456329     C
C     0.7567299999999999 0.45633099999999993 0.359589     C
C     0.7567299999999998 0.927349 0.359589     C
H     0.7578480000000001 0.04005160000000002   0.4365     H
H     0.7578480000000001 0.04005170000000001 0.265599     H
H     0.7578480000000001 0.265599 0.0400518     H
H     0.7578480000000001 0.2655989999999999   0.4365     H
H     0.757848 0.43650000000000005 0.0400518     H
H     0.7578480000000001 0.43649999999999994 0.265599     H
C     0.759829  0.33209  0.93799     C
C     0.759829 0.4700899999999999  0.93799     C
C     0.759829 0.937989 0.33209099999999997     C
C     0.7598290000000001 0.9379900000000001 0.470089     C
C      0.75983 0.470089 0.33209099999999997     C
C     0.7598309999999999  0.33209 0.470089     C
F     0.7601900000000001 0.8618490000000001  0.86185     F
C     0.763029 0.19631000000000007 0.688969     C
C     0.763029 0.19631000000000004  0.85169     C
C     0.7630290000000001 0.688969 0.19630999999999998     C
C     0.7630290000000002 0.688969  0.85169     C
C     0.7630289999999998 0.8516899999999998 0.19630999999999998     C
C     0.763029  0.85169 0.688969     C
H      0.76337 0.230937 0.315232     H
H     0.7633700000000001 0.23093900000000003 0.190459     H
H     0.7633700000000001 0.31523200000000007 0.190459     H
C     0.7636190000000003 0.0660599 0.397019     C
C     0.763619 0.06606030000000002 0.273299     C
C     0.7636190000000002   0.2733 0.0660591     C
C      0.76362   0.2733 0.397019     C
C      0.76362 0.397019 0.0660591     C
C     0.7636199999999999 0.39701900000000007 0.273299     C
C     0.765779 0.0968196   0.2835     C
C     0.765779 0.0968201   0.3539     C
C     0.765779   0.2835 0.0968201     C
C     0.7657800000000001   0.2835   0.3539     C
C     0.7657799999999999 0.3538990000000001   0.2835     C
C      0.76578   0.3539 0.0968201     C
F     0.7662889999999998  0.15625  0.92201     F
F     0.766289 0.9220089999999999  0.65545     F
F     0.7662889999999999  0.92201 0.15625099999999997     F
O     0.7677390000000001 0.18393899999999996  0.87362     O
O     0.7677389999999997 0.18394099999999997   0.6747     O
O     0.767739 0.873619  0.18394     O
O     0.767739 0.8736199999999998   0.6747     O
O     0.7677400000000001 0.6746990000000002  0.18394     O
O      0.76774 0.674699  0.87362     O
Cr     0.76804 0.13332099999999997  0.29932    Cr
Cr     0.76804 0.29931899999999995 0.133321    Cr
Cr    0.7680399999999997 0.29931899999999995  0.29932    Cr
C     0.774699 0.7354399999999999 0.888559     C
C     0.7746990000000001  0.88856 0.101301     C
C     0.7746990000000001 0.8885609999999998 0.735439     C
C     0.7746999999999999   0.1013 0.888559     C
C       0.7747 0.735439 0.101301     C
C     0.774701 0.10129899999999997 0.735439     C
H     0.776896 0.38688600000000006 0.438619     H
H     0.7768969999999997 0.386886 0.897597     H
H     0.776897 0.4386189999999999 0.386885     H
H     0.7768970000000002 0.43862000000000007 0.897597     H
H     0.776897 0.8975970000000002 0.386885     H
H     0.7768969999999997 0.8975980000000002 0.438619     H
C     0.7778490000000003 0.06751010000000002 0.876789     C
C     0.7778489999999999 0.06751040000000003 0.777849     C
C     0.7778489999999999  0.77785 0.0675092     C
C     0.7778490000000002 0.8767899999999998 0.0675092     C
C      0.77785 0.876791 0.777849     C
C     0.7778510000000002 0.7778490000000001 0.876789     C
C     0.778988 0.4433500000000001  0.91045     C
C     0.7789889999999999 0.36720900000000006  0.91045     C
C     0.7789900000000001 0.36721000000000004 0.443349     C
C     0.7789900000000001 0.44334899999999994  0.36721     C
C     0.7789899999999997 0.9104490000000002  0.36721     C
C     0.7789899999999998 0.9104490000000001 0.443349     C
C     0.780619 0.19184000000000007  0.21434     C
C     0.780619 0.31319899999999995  0.21434     C
C     0.7806200000000001 0.19184100000000004 0.31319899999999995     C
C     0.7806200000000001  0.21434 0.191839     C
C     0.7806200000000001 0.21434000000000003 0.31319899999999995     C
C     0.7806200000000001 0.31320099999999995 0.191839     C
C     0.783139 0.31358000000000014 0.9413399999999998     C
C     0.7831400000000002 0.31357899999999994  0.46194     C
C     0.7831400000000001 0.46193900000000004 0.313579     C
C     0.7831400000000002 0.46193999999999996 0.9413399999999998     C
C     0.7831399999999997 0.941339 0.313579     C
C     0.7831400000000001 0.9413389999999999  0.46194     C
H     0.7836069999999999 0.294589 0.466374     H
H     0.7836069999999999 0.2945890000000001 0.955429     H
H     0.7836070000000002 0.46637400000000007 0.955429     H
H     0.7836069999999998 0.955429 0.294588     H
H     0.783608 0.466373 0.294588     H
H     0.7836079999999999 0.9554279999999999 0.466374     H
H     0.783866 0.11112300000000008 0.715477     H
H     0.7838659999999997 0.8895330000000004 0.715477     H
H     0.7838670000000001 0.7154769999999999 0.111122     H
H     0.7838669999999999 0.7154769999999999 0.889532     H
H     0.7838679999999998 0.11112299999999997 0.889532     H
H     0.783868 0.889533 0.111122     H
H     0.784209 0.263415 0.0609099     H
H     0.784209 0.39146499999999995 0.263414     H
H      0.78421 0.06091010000000001 0.263414     H
H     0.7842099999999999 0.060910399999999976 0.391465     H
H     0.7842100000000001 0.263413 0.391465     H
H     0.784211 0.391465 0.0609099     H
O     0.7844680000000002  0.86079 0.0378105     O
O     0.7844689999999999 0.03780889999999998  0.86079     O
O     0.7844689999999999 0.8169299999999999  0.86079     O
O     0.7844690000000001 0.860789  0.81693     O
O     0.7844699999999998 0.0378096  0.81693     O
O      0.78447  0.81693 0.0378105     O
O     0.7848089999999999  0.25909 0.305651     O
O     0.7848090000000001  0.30565 0.150451     O
O     0.7848089999999999 0.3056499999999999 0.259089     O
O      0.78481 0.150449 0.305651     O
O      0.78481  0.15045 0.259089     O
O     0.7848099999999999 0.259089 0.150451     O
C     0.7855089999999999 0.19569099999999995 0.829209     C
C     0.7855089999999999 0.829208 0.195691     C
C     0.7855089999999998 0.829208 0.689591     C
C     0.7855100000000002  0.19569 0.689591     C
C     0.7855100000000002 0.6895889999999999 0.195691     C
C      0.78551 0.6895889999999999 0.829209     C
C     0.785659 0.6867999999999999 0.808159     C
C     0.785659 0.8081600000000001   0.6868     C
C     0.7856599999999999 0.21937900000000002   0.6868     C
C     0.7856599999999999 0.219379 0.808159     C
C     0.7856599999999999 0.6867989999999999 0.219381     C
C     0.7856599999999999 0.808159 0.219381     C
H     0.786892 0.8553049999999999 0.908357     H
H     0.786892 0.9494430000000001 0.908357     H
H     0.7868929999999997 0.908356 0.855306     H
O     0.789599 0.0889397 0.34929999999999994     O
O     0.789599 0.0889408 0.272159     O
O     0.7895989999999999  0.27216 0.0889403     O
O     0.7895989999999999 0.349299 0.0889403     O
O       0.7896  0.27216 0.34929999999999994     O
O       0.7896   0.3493 0.272159     O
C     0.7902779999999999 0.07912090000000005 0.879839     C
C     0.7902790000000001 0.7507590000000001 0.879839     C
C     0.7902789999999997 0.879839  0.75076     C
C     0.790279  0.87984 0.0791193     C
C     0.7902799999999999 0.07911989999999997  0.75076     C
C      0.79028 0.7507599999999999 0.0791193     C
C     0.793738 0.04792049999999998   0.8646     C
C     0.793738 0.7937399999999999   0.8646     C
C     0.793739 0.864599 0.0479199     C
C     0.793739 0.8646000000000003 0.793739     C
C     0.7937400000000001 0.047919500000000004 0.793739     C
C     0.7937399999999999 0.793739 0.0479199     C
Cr    0.794109 0.010429999999999995  0.84773    Cr
Cr     0.79411 0.847729 0.0104291    Cr
Cr    0.7941100000000001 0.847729  0.84773    Cr
C     0.7991290000000002 0.8395489999999999 0.9418699999999999     C
C     0.7991289999999999 0.9418690000000002  0.83955     C
C     0.7991299999999999  0.83955 0.9194489999999998     C
C      0.79913 0.9194489999999998  0.83955     C
C     0.7991300000000001 0.919449 0.9418699999999999     C
C     0.799131 0.9418689999999998 0.9194489999999998     C
O     0.8011299999999997 0.838149 0.981489     O
O     0.8011299999999998 0.8381500000000001 0.879229     O
O     0.8011299999999997 0.879229 0.981489     O
O     0.8011299999999998 0.8792300000000001 0.838149     O
O      0.80113 0.9814899999999999 0.838149     O
O     0.8011299999999998 0.9814900000000001 0.879229     O
C     0.803689  0.14831  0.23697     C
C     0.8036889999999999 0.23696900000000004 0.148311     C
C      0.80369 0.148309  0.31103     C
C      0.80369 0.23697000000000004  0.31103     C
C      0.80369 0.311029 0.148311     C
C     0.8036899999999999 0.311029  0.23697     C
O     0.8038889999999999  0.10405 0.296031     O
O     0.8038890000000001 0.296029 0.104051     O
O     0.8038889999999999  0.29603 0.296031     O
C     0.8040790000000001 0.4369200000000001 0.34769999999999995     C
C     0.8040800000000001 0.3476989999999999   0.9113     C
C     0.8040799999999999   0.3477 0.43691899999999995     C
C     0.8040800000000004 0.436919   0.9113     C
C     0.8040800000000002 0.9112999999999999 0.34769999999999995     C
C     0.8040810000000002 0.911299 0.43691899999999995     C
C     0.804308 0.21449000000000001  0.31041     C
C     0.804309  0.17079 0.21449099999999996     C
C     0.8043090000000003  0.17079  0.31041     C
C     0.8043090000000002 0.31040900000000005 0.21449099999999996     C
C     0.804309  0.31041  0.17079     C
C      0.80431 0.214489  0.17079     C
C     0.806209 0.320789 0.447571     C
C     0.8062089999999997  0.32079  0.92543     C
C     0.806209  0.44757 0.320791     C
C     0.8062089999999997 0.4475699999999999  0.92543     C
C     0.8062089999999997 0.9254290000000001 0.447571     C
C     0.8062099999999999  0.92543 0.320791     C
C     0.8081600000000001 0.21937900000000002   0.6868     C
C     0.8081599999999999 0.21937999999999996 0.7856599999999999     C
C     0.8081600000000001 0.6867989999999999 0.219381     C
C     0.8081599999999999 0.6867989999999999 0.7856599999999999     C
C      0.80816 0.7856599999999999 0.219381     C
C     0.8081600000000001 0.7856600000000001   0.6868     C
H     0.8095379999999999 0.684769 0.769063     H
H     0.8095379999999999 0.769062 0.684769     H
H     0.809539 0.23662899999999995 0.684769     H
H     0.809539 0.23662899999999992 0.769063     H
H     0.8095390000000002 0.684769 0.236629     H
H     0.8095390000000002 0.769062 0.236629     H
C     0.8101500000000001 0.177209  0.83267     C
C     0.8101499999999999 0.17721000000000003  0.67997     C
C     0.8101500000000001  0.67997  0.83267     C
C     0.8101499999999998 0.832669  0.17721     C
C     0.8101499999999999 0.8326689999999999  0.67997     C
C     0.8101509999999998 0.679969  0.17721     C
H     0.810896 0.07152439999999999 0.741849     H
H     0.8108959999999997 0.875729 0.0715241     H
H     0.8108969999999998 0.07152390000000003 0.875729     H
H     0.8108969999999998 0.7418480000000001 0.875729     H
H     0.8108969999999996 0.7418490000000001 0.0715241     H
H     0.8108969999999996 0.8757290000000001 0.741849     H
H     0.810905 0.673187 0.164181     H
H     0.8109059999999999 0.16418100000000002 0.673188     H
H     0.8109059999999999 0.16418099999999997 0.851723     H
H     0.8109060000000001 0.851723 0.164181     H
H     0.8109060000000001 0.8517249999999998 0.673188     H
H     0.810907 0.673187 0.851723     H
O     0.816058  0.23226  0.12638     O
O     0.8160590000000001  0.12638 0.232259     O
O      0.81606  0.12638   0.3253     O
O     0.8160599999999999 0.232259   0.3253     O
O     0.8160599999999998 0.32530000000000003  0.12638     O
O     0.8160599999999999   0.3253 0.232259     O
C     0.8161389999999998 0.8161390000000001  0.97703     C
C     0.8161389999999996  0.81614  0.89069     C
C      0.81614 0.890689  0.97703     C
C     0.8161399999999999  0.89069 0.816139     C
C     0.8161399999999999 0.9770299999999998 0.816139     C
C     0.8161399999999998 0.9770299999999997  0.89069     C
C     0.8167990000000002  0.91166 0.8167989999999999     C
C     0.8168000000000001 0.8167999999999999 0.9116589999999999     C
C       0.8168   0.8168 0.9547389999999999     C
C     0.8168000000000001 0.9547389999999999 0.8167989999999999     C
C     0.8168010000000001 0.911659 0.9547389999999999     C
C     0.816801 0.9547390000000001 0.9116589999999999     C
O     0.816929 0.03780889999999998  0.86079     O
O     0.8169289999999998  0.78447  0.86079     O
O     0.8169290000000002 0.860789 0.7844689999999999     O
O     0.8169290000000002  0.86079 0.0378105     O
O     0.8169299999999999 0.03781040000000008 0.7844689999999999     O
O     0.8169299999999999  0.78447 0.0378105     O
C     0.8227890000000001 0.16732999999999998  0.32003     C
C     0.822789 0.189851  0.32003     C
C     0.8227890000000001 0.320029 0.167331     C
C     0.8227890000000001 0.32003099999999995 0.189849     C
C     0.8227900000000001  0.16733 0.189849     C
C     0.8227899999999999 0.189849 0.167331     C
Cr    0.823718  0.32188 0.0932008    Cr
Cr    0.823719 0.0931993  0.32188    Cr
Cr    0.8237190000000001 0.321881   0.2612    Cr
Cr     0.82372 0.09320029999999999   0.2612    Cr
Cr     0.82372 0.261199 0.0932008    Cr
Cr     0.82372 0.261199  0.32188    Cr
H     0.8249979999999999 0.4448110000000001 0.924123     H
H     0.8249979999999998 0.924122 0.444811     H
H     0.8249979999999999 0.9241230000000001 0.306068     H
H     0.824999 0.306066 0.924123     H
H     0.8249990000000001 0.306068 0.444811     H
H     0.8249989999999999 0.44481099999999996 0.306068     H
O     0.8276190000000001 0.37616000000000005 0.421339     O
O     0.8276190000000001 0.3761609999999999 0.874879     O
O     0.8276189999999999 0.42133999999999994 0.37615899999999997     O
O      0.82762  0.42134 0.874879     O
O     0.8276199999999998 0.874879 0.37615899999999997     O
O      0.82762  0.87488 0.421339     O
C     0.8279190000000002 0.42590000000000006   0.3535     C
C     0.8279189999999998  0.89268   0.3535     C
C      0.82792   0.3535 0.892679     C
C     0.8279199999999999 0.353501   0.4259     C
C     0.8279200000000002 0.4259009999999999 0.892679     C
C      0.82792 0.8926789999999999   0.4259     C
O     0.829155 0.012531000000000014 0.8291559999999999     O
O     0.829155 0.8291569999999999 0.0125301     O
O     0.829157 0.8291559999999999 0.8291559999999999     O
C     0.8292089999999998 0.7855099999999999 0.195691     C
C     0.8292100000000002 0.19568900000000006  0.78551     C
C      0.82921  0.19569 0.689591     C
C      0.82921 0.6895889999999999 0.195691     C
C      0.82921 0.6895889999999999  0.78551     C
C      0.82921 0.7855080000000001 0.689591     C
O     0.8307789999999999 0.0564597  0.32532     O
O     0.8307790000000002 0.056461 0.287439     O
O     0.8307789999999999 0.287441 0.05646040000000001     O
O     0.830779 0.28744100000000006  0.32532     O
O     0.8307789999999999 0.325319 0.05646040000000001     O
O     0.8307800000000001 0.32532099999999997 0.287439     O
F      0.83144 0.25572000000000006  0.70642     F
F     0.8314400000000001  0.70642 0.255719     F
F     0.8323689999999999 0.417629 0.41762999999999995     F
C     0.8326680000000002 0.8101499999999999  0.67997     C
C     0.8326689999999999 0.17721000000000003  0.67997     C
C     0.8326690000000001  0.67997 0.810149     C
C      0.83267 0.17720999999999998 0.810149     C
C      0.83267 0.679969  0.17721     C
C     0.832671 0.810149  0.17721     C
H     0.835817 0.14827599999999996 0.3268130000000001     H
H     0.8358169999999998 0.326812 0.148275     H
H     0.8358179999999997 0.14827500000000002 0.18909299999999998     H
H     0.8358179999999997 0.189093 0.148275     H
H     0.8358189999999999 0.189093 0.3268130000000001     H
H     0.8358190000000001 0.326811 0.18909299999999998     H
O     0.8381490000000001 0.8011290000000001 0.879229     O
O     0.8381489999999996 0.8011300000000001 0.981489     O
O     0.838149 0.879229 0.981489     O
O     0.8381489999999997 0.981489 0.8011289999999999     O
O     0.8381489999999997 0.9814900000000001 0.879229     O
O     0.8381499999999998 0.8792289999999999 0.8011289999999999     O
C     0.8395490000000001 0.799129 0.9418699999999999     C
C     0.8395489999999999 0.9418700000000002  0.79913     C
C     0.8395499999999998 0.7991300000000001 0.9194489999999998     C
C     0.8395499999999998 0.919449 0.9418699999999999     C
C     0.8395500000000002 0.9194499999999999  0.79913     C
C     0.8395509999999999 0.9418689999999998 0.9194489999999998     C
C       0.8415 0.04790000000000001   0.3053     C
C     0.8415000000000001 0.305299 0.047900399999999996     C
C     0.841501 0.30529900000000004   0.3053     C
F     0.843748 0.23370999999999997 0.34455099999999994     F
F     0.8437489999999999 0.0779908  0.23371     F
F     0.8437490000000001  0.34455 0.0779909     F
H     0.845925 0.350609 0.284956     H
H     0.845927 0.0185086 0.350608     H
H     0.845927 0.350609 0.0185076     H
Cr    0.8477290000000001 0.010429999999999995 0.794109    Cr
Cr    0.847729  0.79411 0.0104291    Cr
Cr    0.847729 0.7941099999999999  0.84773    Cr
Cr    0.8477290000000001 0.8477289999999998 0.794109    Cr
Cr    0.8477300000000001 0.010429999999999995  0.84773    Cr
Cr    0.8477309999999999 0.847729 0.0104291    Cr
O     0.8495489999999999  0.21519 0.740909     O
O     0.849549 0.21519099999999997  0.69435     O
O     0.8495490000000001  0.69435  0.21519     O
O     0.8495489999999999 0.740909  0.21519     O
O      0.84955  0.69435 0.740909     O
O     0.8495500000000004 0.740909  0.69435     O
O     0.8496789999999999  0.33646   0.4177     O
O     0.8496789999999999 0.3364599999999999  0.89616     O
O     0.8496790000000001 0.41769900000000004  0.33646     O
O     0.8496790000000001 0.8961589999999999  0.33646     O
O     0.8496790000000001 0.8961600000000001   0.4177     O
O     0.8496799999999998 0.417699  0.89616     O
C     0.851579 0.007439650000000006 0.301981     C
C     0.8515790000000001 0.007440769999999999    0.339     C
C     0.8515790000000001  0.30198 0.0074393     C
C     0.8515790000000002  0.30198    0.339     C
C     0.851579 0.338999 0.301981     C
C     0.8515789999999996 0.339001 0.0074393     C
C     0.8516889999999998 0.19631000000000007 0.688969     C
C     0.8516889999999999 0.19630999999999998 0.763031     C
C     0.851689 0.688969 0.19630999999999998     C
C     0.8516889999999999 0.6889699999999999 0.763031     C
C      0.85169 0.7630289999999998 0.19630999999999998     C
C      0.85169 0.763029 0.688969     C
H     0.8517229999999998 0.164182 0.810906     H
H     0.851723 0.673187 0.164181     H
H     0.8517229999999998 0.810906 0.164181     H
H     0.8517239999999999 0.16418100000000002 0.673188     H
H     0.8517239999999999 0.6731880000000001 0.810906     H
H     0.8517239999999999 0.8109060000000001 0.673188     H
C      0.85411 0.020389800000000013 0.31274899999999994     C
C     0.8541099999999999 0.31274900000000005 0.020390399999999996     C
C     0.8541100000000001  0.31275 0.31274899999999994     C
Cr    0.8542090000000001  0.39579 0.3957899999999999    Cr
Cr    0.8542100000000004 0.39579000000000003  0.85421    Cr
Cr    0.8542109999999999 0.8542089999999999 0.3957899999999999    Cr
H     0.8553060000000001 0.7868919999999999 0.949444     H
H     0.8553060000000001 0.9083570000000001 0.786892     H
H     0.8553059999999999 0.949444 0.786892     H
H     0.8553069999999999  0.78689 0.908357     H
H     0.8553069999999998 0.9083559999999999 0.949444     H
H     0.8553069999999999 0.9494430000000001 0.908357     H
O     0.8562289999999999 0.255511 0.291569     O
O     0.8562300000000002 0.09668960000000003 0.291569     O
O     0.8562299999999999 0.0966904 0.255509     O
O     0.8562300000000002  0.25551 0.0966895     O
O     0.8562299999999999 0.29156899999999997 0.255509     O
O     0.8562300000000002  0.29157 0.0966895     O
C     0.8564079999999998 0.9796099999999999 0.313291     C
C     0.8564089999999998 0.31329000000000007  0.97961     C
C     0.856409 0.3132910000000001  0.35069     C
C     0.856409 0.35068999999999995  0.97961     C
C     0.856409 0.979609  0.35069     C
C     0.8564100000000001 0.35068900000000003 0.313291     C
C     0.857919  0.33816  0.33816     C
C     0.8579200000000002 0.3381609999999999 0.965759     C
C     0.8579199999999997 0.9657600000000001  0.33816     C
H     0.8588879999999999  0.30238 0.369369     H
H     0.8588879999999999 0.302382 0.969361     H
H     0.8588879999999999 0.36936899999999995  0.30238     H
H     0.8588879999999999 0.9693610000000001  0.30238     H
H     0.858889 0.369369 0.969361     H
H     0.858889 0.9693609999999999 0.369369     H
O     0.8607889999999998 0.03781040000000008 0.7844689999999999     O
O     0.8607890000000002  0.78447 0.0378105     O
O     0.860789  0.81693 0.0378105     O
O     0.8607899999999999 0.0378096  0.81693     O
O     0.8607900000000002 0.7844690000000001  0.81693     O
O     0.8607900000000004 0.816929 0.7844689999999999     O
F     0.8618490000000003 0.016110199999999963 0.760189     F
F     0.8618490000000001 0.7601899999999999 0.0161104     F
C     0.8645990000000001 0.047919500000000004 0.793739     C
C     0.8645989999999999 0.793739 0.0479199     C
C     0.864601 0.7937390000000002 0.793739     C
C     0.8650790000000002 0.10163999999999998  0.26664     C
C     0.8650789999999999 0.266639  0.26664     C
C     0.8650789999999998  0.26664 0.10163999999999998     C
Cr    0.866679 0.23195900000000005  0.70068    Cr
Cr    0.866679 0.7006790000000002  0.70068    Cr
Cr    0.866679 0.7006799999999999 0.231959    Cr
C     0.8701289999999998 0.346391 0.937089     C
C     0.8701289999999999 0.9370889999999998 0.34639099999999995     C
C     0.8701300000000001 0.34639000000000003 0.34639099999999995     C
O     0.872729  0.33483 0.368391     O
O     0.8727289999999998 0.3683900000000001  0.92405     O
O     0.8727289999999998  0.92405 0.368391     O
O     0.8727299999999997 0.33482900000000004  0.92405     O
O     0.8727299999999998 0.9240499999999999 0.33482900000000004     O
O     0.872731 0.36838899999999997 0.33482900000000004     O
O     0.8736189999999999 0.18394099999999997   0.6747     O
O     0.8736190000000001 0.6746989999999999 0.767739     O
O     0.8736190000000001 0.7677400000000001   0.6747     O
O     0.8736200000000003 0.18393999999999988 0.767739     O
O     0.8736200000000001 0.6746990000000002  0.18394     O
O     0.8736200000000002 0.7677390000000001  0.18394     O
O     0.8748779999999998 0.3761600000000001  0.82762     O
O     0.8748789999999999 0.37616000000000005 0.421339     O
O     0.8748789999999997 0.42133999999999994 0.37615899999999997     O
O     0.8748789999999997  0.82762 0.37615899999999997     O
O     0.8748800000000001 0.4213399999999999  0.82762     O
O     0.8748800000000002  0.82762 0.421339     O
H     0.8757290000000002 0.07152380000000003 0.810896     H
H     0.8757289999999999 0.8108960000000001 0.0715241     H
H     0.8757289999999996 0.810896 0.741849     H
O     0.876328 0.37367000000000006 0.373671     O
O     0.8763289999999999  0.87633 0.373671     O
O     0.8763299999999998 0.373671 0.876329     O
C     0.8767889999999999 0.06751040000000003 0.777849     C
C     0.8767889999999999  0.77785 0.0675092     C
C     0.8767909999999998 0.7778490000000001 0.777849     C
O     0.879229 0.8011300000000001 0.981489     O
O     0.8792299999999997 0.838149 0.981489     O
O     0.8792299999999998 0.981489 0.8011289999999999     O
O     0.8792300000000001 0.9814899999999999 0.838149     O
O     0.879231 0.8011290000000001 0.838149     O
O     0.879231 0.8381489999999999 0.8011289999999999     O
C     0.8798389999999998 0.07911989999999997  0.75076     C
C     0.8798389999999998 0.07911989999999997 0.790279     C
C     0.879839 0.7507600000000001 0.790279     C
C     0.8798389999999998 0.7902799999999999  0.75076     C
C     0.8798399999999998 0.7507599999999999 0.0791193     C
C     0.8798399999999997 0.790279 0.0791193     C
O     0.8847379999999998 0.24480000000000002  0.66278     O
O     0.884739 0.244801 0.707679     O
O     0.8847389999999999 0.662779 0.244799     O
O     0.8847400000000002 0.662779 0.707679     O
O     0.8847400000000001 0.707679 0.244799     O
O     0.8847400000000001 0.7076790000000001  0.66278     O
Cr    0.886179 0.336399 0.391241    Cr
Cr    0.8861790000000003 0.33640000000000003 0.8861800000000001    Cr
Cr    0.8861790000000002 0.39123899999999995   0.3364    Cr
Cr    0.8861799999999997 0.3912389999999999 0.8861800000000001    Cr
Cr    0.8861799999999997 0.8861780000000001 0.391241    Cr
Cr    0.8861799999999999 0.886179   0.3364    Cr
C     0.888559 0.735439 0.101301     C
C     0.8885599999999999 0.10129899999999997 0.735439     C
C     0.8885600000000001 0.735439 0.774699     C
C     0.8885600000000001 0.7746990000000001 0.101301     C
C     0.8885600000000001 0.7746999999999998 0.735439     C
C     0.888561 0.10129899999999997 0.774699     C
H     0.8888769999999998 0.11046799999999998 0.284522     H
H     0.8888769999999999 0.28452299999999997 0.110467     H
H     0.8888769999999999 0.2845230000000001 0.216132     H
H     0.8895309999999998 0.11112300000000008 0.715477     H
H     0.8895309999999996 0.11112299999999997 0.783867     H
H     0.8895309999999998 0.783868 0.715477     H
H     0.889532 0.715476 0.783867     H
H     0.8895320000000002 0.7154769999999999 0.111122     H
H     0.889532 0.783868 0.111122     H
C     0.8899190000000001 0.252981 0.104119     C
C      0.88992 0.104119 0.252979     C
C     0.8899199999999997 0.25297900000000006 0.252979     C
C     0.890689 0.8161390000000001  0.97703     C
C      0.89069 0.9770299999999998 0.816139     C
C     0.8906909999999999 0.8161400000000001 0.816139     C
C     0.892679 0.35349900000000006  0.82792     C
C     0.8926789999999999 0.353501   0.4259     C
C     0.8926789999999999 0.42590000000000006   0.3535     C
C     0.8926789999999998   0.4259  0.82792     C
C     0.8926789999999999 0.827919   0.4259     C
C     0.8926790000000003  0.82792   0.3535     C
C     0.8958790000000002  0.74702  0.74702     C
C     0.8958799999999999 0.11007900000000004  0.74702     C
C     0.8958800000000001  0.74702 0.110079     C
O     0.8959489999999999 0.19610899999999998 0.7039699999999999     O
O     0.895949  0.70397  0.19611     O
O      0.89595 0.7039689999999998 0.7039699999999999     O
O     0.8961589999999999  0.33646   0.4177     O
O     0.8961589999999999 0.41769900000000004  0.33646     O
O     0.8961590000000001  0.84968  0.33646     O
O     0.8961599999999998  0.33646 0.849679     O
O     0.8961599999999996 0.41770000000000007 0.849679     O
O     0.8961599999999998  0.84968   0.4177     O
C      0.89836 0.13491899999999998 0.733359     C
C     0.8983600000000003  0.73336 0.134919     C
C      0.89836  0.73336 0.733359     C
C     0.8986989999999999 0.11144000000000003   0.2253     C
C     0.8986990000000001 0.11143999999999998  0.26456     C
C     0.8986989999999999   0.2253 0.111439     C
C       0.8987 0.22529899999999997  0.26456     C
C     0.8986999999999998 0.2645600000000001   0.2253     C
C     0.8987000000000003 0.264561 0.111439     C
C     0.903179   0.6461  0.23422     C
C     0.9031789999999997 0.6460999999999999   0.7165     C
C     0.9031799999999999 0.23421999999999998 0.646099     C
C     0.9031799999999996 0.23421999999999998   0.7165     C
C      0.90318 0.7164990000000001  0.23422     C
C     0.9031799999999999 0.716499 0.646099     C
O     0.9033079999999999 0.14377000000000004  0.74449     O
O     0.9033089999999999 0.14376900000000006 0.7084299999999999     O
O     0.903309 0.708429 0.143769     O
O     0.9033089999999998 0.7084300000000001  0.74449     O
O     0.903309  0.74449 0.143769     O
O     0.9033090000000001 0.7444900000000001 0.7084299999999999     O
F     0.9036890000000002 0.392891 0.903689     F
F     0.903689 0.9036900000000001 0.39288999999999996     F
Cr    0.906799 0.17628100000000002 0.7387989999999999    Cr
Cr    0.9067990000000002  0.67812 0.17628100000000002    Cr
Cr    0.9067989999999998  0.67812 0.7387989999999999    Cr
Cr    0.9067990000000001 0.738798 0.17628100000000002    Cr
Cr    0.906799   0.7388 0.678119    Cr
Cr    0.9068000000000002 0.17627999999999996 0.678119    Cr
H     0.9083560000000002 0.949444 0.786892     H
H     0.9083569999999999 0.855305 0.786892     H
H     0.9083569999999999 0.8553059999999999 0.949444     H
C     0.9104489999999997 0.7789900000000001  0.36721     C
C     0.9104489999999998 0.7789910000000001 0.443349     C
C     0.9104500000000002 0.36721000000000004 0.443349     C
C      0.91045 0.3672100000000001 0.778989     C
C     0.9104499999999999 0.44334899999999994  0.36721     C
C      0.91045 0.44334900000000005 0.778989     C
C     0.910779 0.27509900000000004  0.61632     C
C     0.9107789999999999   0.2751   0.6978     C
C     0.9107790000000001  0.61632   0.2751     C
C     0.9107789999999999 0.697799   0.2751     C
C     0.9107799999999998 0.6163200000000001   0.6978     C
C     0.9107799999999999   0.6978  0.61632     C
O     0.9110589999999997   0.2104 0.6506999999999998     O
O     0.9110590000000003 0.21040000000000003  0.72784     O
O     0.9110589999999998 0.6506990000000001  0.72784     O
O     0.911059 0.7278389999999999 0.6506999999999998     O
O     0.9110600000000001   0.6507   0.2104     O
O      0.91106 0.7278389999999999   0.2104     O
C     0.9112989999999996 0.34769900000000004  0.80408     C
C     0.911299 0.4369200000000001 0.34769999999999995     C
C     0.911299  0.80408 0.34769999999999995     C
C     0.9112999999999999   0.3477 0.43691899999999995     C
C     0.9112999999999998 0.4369190000000001  0.80408     C
C     0.9112999999999999 0.804079 0.43691899999999995     C
C      0.91166 0.8167990000000002 0.8167989999999999     C
C     0.9116600000000001   0.8168 0.9547389999999999     C
C     0.9116610000000002 0.9547389999999999 0.8167989999999999     C
C     0.9149979999999999 0.24922099999999997  0.62114     C
C     0.9149990000000001 0.621139  0.24922     C
C        0.915 0.24922099999999997 0.714639     C
C        0.915  0.62114 0.714639     C
C     0.9150000000000001 0.714639  0.62114     C
C     0.9149999999999998  0.71464  0.24922     C
H     0.9164070000000001 0.310694 0.586789     H
H     0.9164069999999999 0.586788 0.6861099999999999     H
H     0.9164069999999999 0.5867890000000001 0.310695     H
H     0.9164069999999996 0.686108 0.586789     H
H     0.916408 0.310694 0.6861099999999999     H
H     0.916408 0.6861090000000001 0.310695     H
C     0.919449 0.799129 0.9418699999999999     C
C     0.9194489999999998  0.79913  0.83955     C
C     0.919449 0.8395490000000001  0.79913     C
C     0.919449 0.8395489999999999 0.9418699999999999     C
C     0.9194489999999998 0.9418690000000002  0.83955     C
C     0.919449 0.9418700000000002  0.79913     C
C     0.9208800000000001  0.12016 0.20971899999999996     C
C     0.9208799999999999  0.12016 0.24923899999999996     C
C     0.9208800000000001 0.20972000000000002 0.12015899999999999     C
C     0.9208800000000001 0.24923999999999996 0.12015899999999999     C
C     0.9208799999999998 0.24924099999999993 0.20971899999999996     C
C     0.9208809999999998 0.209719 0.24923899999999996     C
C     0.921189 0.6972900000000001 0.290371     C
C     0.9211899999999997 0.290371 0.697289     C
C      0.92119 0.5911490000000001 0.290371     C
C      0.92119 0.5911500000000001 0.697289     C
C     0.9211910000000002 0.290369 0.591149     C
C     0.921191  0.69729 0.591149     C
F     0.9220110000000004 0.655449 0.766289     F
O     0.9240489999999999 0.3348289999999999 0.8727299999999999     O
O     0.9240489999999999  0.33483 0.368391     O
O     0.9240489999999998 0.8727299999999999 0.33482900000000004     O
O     0.9240490000000001  0.87273 0.368391     O
O     0.9240499999999999 0.36838899999999997 0.33482900000000004     O
O      0.92405 0.36838999999999994 0.8727299999999999     O
H     0.924121 0.30606699999999987 0.824999     H
H     0.9241210000000001 0.824997 0.306068     H
H     0.924122 0.306068 0.444811     H
H     0.924122 0.44481099999999996 0.306068     H
H     0.9241219999999999 0.44481100000000007 0.824999     H
H     0.924122 0.824998 0.444811     H
C     0.9254289999999998 0.320789 0.447571     C
C     0.9254290000000001  0.44757 0.320791     C
C     0.925429  0.44757  0.80621     C
C     0.9254299999999999  0.32079  0.80621     C
C      0.92543 0.806208 0.447571     C
C     0.9254300000000002 0.806209 0.320791     C
C     0.927349 0.359589 0.756729     C
C     0.9273489999999999 0.3595900000000001 0.456329     C
C     0.9273490000000002 0.45632999999999996 0.756729     C
C     0.9273489999999998 0.45633099999999993 0.359589     C
C     0.927349  0.75673 0.359589     C
C      0.92735  0.75673 0.456329     C
H     0.9284760000000001  0.12427 0.189103     H
H     0.9284759999999999 0.124272  0.25815     H
H     0.9284759999999999 0.18910300000000002  0.25815     H
H     0.9284759999999999 0.189104  0.12427     H
H     0.928476 0.25815099999999996  0.12427     H
H     0.9284760000000001 0.258151 0.189103     H
H     0.9323690000000001 0.3736289999999999 0.737828     H
H     0.9323690000000001  0.37363 0.45617099999999994     H
H     0.9323689999999999 0.456171 0.737828     H
H     0.9323690000000001 0.45617200000000013  0.37363     H
H     0.9323690000000001 0.737827  0.37363     H
H     0.9323689999999997 0.7378280000000002 0.45617099999999994     H
C     0.9324890000000001 0.12321000000000001 0.22214999999999996     C
C     0.9324889999999997 0.22215000000000001 0.22214999999999996     C
C     0.932489 0.222151 0.123209     C
F      0.93304 0.378559  0.67196     F
F     0.9330400000000001  0.67196  0.51644     F
C     0.933939 0.23638100000000004 0.602979     C
C     0.933939 0.6029800000000001 0.726699     C
C     0.9339399999999999 0.23637999999999998 0.726699     C
C     0.9339399999999999 0.6029790000000002  0.23638     C
C     0.9339400000000001 0.7266989999999999 0.602979     C
C     0.9339400000000001 0.7267000000000001  0.23638     C
C     0.9370890000000001 0.34639000000000003 0.34639099999999995     C
C     0.9370890000000001 0.8701290000000002 0.34639099999999995     C
C     0.9370899999999998 0.34639000000000003  0.87013     C
C     0.937919 0.27858000000000005  0.57186     C
C     0.9379189999999998  0.57186 0.278579     C
C      0.93792 0.278579 0.7116389999999999     C
C      0.93792 0.5718590000000001 0.7116389999999999     C
C     0.9379199999999998 0.7116390000000001 0.278579     C
C     0.9379200000000001 0.711639  0.57186     C
C     0.9379889999999999  0.33209  0.75983     C
C     0.937989 0.470089 0.33209099999999997     C
C     0.937989 0.7598300000000001 0.33209099999999997     C
C     0.9379899999999999  0.33209 0.470089     C
C     0.9379900000000002 0.4700900000000001  0.75983     C
C     0.9379900000000001 0.7598290000000001 0.470089     C
H     0.9390880000000003  0.21579 0.7365869999999999     H
H     0.9390879999999999 0.7365860000000001  0.21579     H
H     0.939089  0.21579 0.608534     H
H     0.9390889999999998 0.608534  0.21579     H
H     0.939089 0.6085340000000001 0.7365869999999999     H
H     0.9390900000000001 0.7365860000000001 0.608534     H
C     0.9413389999999999 0.31357900000000005 0.7831399999999998     C
C     0.9413389999999999 0.46194000000000013 0.7831399999999998     C
C     0.9413389999999998 0.783139 0.313579     C
C     0.9413389999999999 0.783139  0.46194     C
C     0.9413400000000001 0.31357899999999994  0.46194     C
C     0.9413409999999999 0.46193900000000004 0.313579     C
C     0.9418680000000001 0.9194499999999999  0.79913     C
C     0.9418690000000002  0.79913  0.83955     C
C     0.9418689999999998 0.7991300000000001 0.9194489999999998     C
C     0.9418689999999996  0.83955 0.9194489999999998     C
C     0.9418689999999997 0.9194489999999998  0.83955     C
C      0.94187 0.8395490000000001  0.79913     C
O     0.943539 0.16922100000000004 0.712559     O
O     0.9435390000000002  0.67468 0.712559     O
O     0.9435390000000001  0.71256 0.674679     O
O     0.9435400000000003 0.16922000000000006 0.674679     O
O      0.94354  0.67468 0.169219     O
O     0.9435400000000002  0.71256 0.169219     O
C     0.945549 0.251289  0.72529     C
C     0.945549  0.25129  0.57787     C
C     0.945549 0.5778690000000001  0.72529     C
C     0.945549  0.72529  0.57787     C
C     0.9455499999999999  0.57787 0.251289     C
C     0.9455499999999997 0.7252890000000001 0.251289     C
O     0.9492179999999998 0.696341 0.31693899999999997     O
O     0.949219  0.31694 0.537499     O
O     0.9492189999999998  0.31694  0.69634     O
O     0.949219 0.5374999999999999  0.69634     O
O     0.949219  0.69634 0.537499     O
O     0.9492199999999998 0.5374989999999998 0.31693899999999997     O
H     0.9494439999999998 0.786892 0.855306     H
H     0.949444 0.855305 0.786892     H
H     0.9494439999999997 0.9083570000000001 0.786892     H
H     0.949445  0.78689 0.908357     H
H     0.949445 0.8553049999999999 0.908357     H
H     0.949445 0.908356 0.855306     H
C     0.952079 0.13539999999999996  0.20626     C
C     0.952079  0.20626  0.20626     C
C     0.9520789999999998 0.206261   0.1354     C
C     0.952099   0.1585 0.6946989999999998     C
C     0.9521000000000002 0.694699   0.1585     C
C     0.9520999999999997 0.6947000000000001 0.6946989999999998     C
C     0.9542290000000001 0.32264899999999996  0.73919     C
C     0.9542290000000001 0.48392900000000005  0.73919     C
C     0.9542290000000002  0.73919  0.32265     C
C     0.9542299999999999 0.48392999999999997  0.32265     C
C     0.9542299999999999 0.739189 0.483929     C
C     0.954231 0.322649 0.483929     C
C     0.9542989999999999  0.29076 0.547601     C
C     0.954299 0.29075999999999996  0.70734     C
C     0.9542990000000001 0.5476000000000001  0.29076     C
C     0.9542990000000002 0.5475999999999999  0.70734     C
C     0.9542989999999999 0.707339 0.547601     C
C     0.9542990000000001 0.7073400000000001  0.29076     C
C     0.9547389999999997 0.8167990000000002 0.8167989999999999     C
C     0.9547390000000001 0.8167999999999999 0.9116589999999999     C
C     0.9547390000000001  0.91166 0.8167989999999999     C
H     0.9554280000000002 0.294589 0.783608     H
H     0.9554289999999999 0.294589 0.466374     H
H     0.9554290000000001 0.46637400000000007 0.783608     H
H     0.9554289999999999 0.7836069999999999 0.466374     H
H     0.9554289999999998 0.7836079999999999 0.294588     H
H     0.9554300000000001 0.466373 0.294588     H
H     0.957806 0.338561 0.582108     H
H     0.9578069999999999  0.33856 0.621524     H
H     0.957807 0.582107 0.338559     H
H     0.9578069999999997 0.621524 0.338559     H
H     0.957808 0.5821080000000001 0.621524     H
H     0.9578079999999999 0.6215230000000002 0.582108     H
O     0.9591290000000001 0.4864509999999999  0.33839     O
O     0.959129 0.4864510000000001 0.716029     O
O     0.9591290000000001 0.7160290000000001  0.33839     O
O     0.959129 0.716031 0.486449     O
O     0.9591299999999999 0.33838899999999994 0.486449     O
O     0.9591299999999999 0.33838999999999997 0.716029     O
H     0.9599470000000001 0.24215199999999998   0.5635     H
H     0.9599469999999999 0.24215199999999998   0.7344     H
H     0.9599469999999999 0.563499 0.242153     H
H     0.9599469999999999 0.563499   0.7344     H
H     0.9599469999999999 0.7343999999999999   0.5635     H
H     0.9599479999999998 0.734399 0.242153     H
H     0.9609700000000002 0.41450699999999996 0.455133     H
H     0.9609700000000001 0.45513299999999995 0.669389     H
H      0.96097 0.4551339999999999 0.414506     H
H     0.960971 0.41450499999999996 0.669389     H
H     0.9609710000000001 0.669388 0.414506     H
H     0.9609709999999999 0.669388 0.455133     H
O     0.9621889999999998 0.13921000000000003 0.183071     O
O     0.962189  0.21553 0.139211     O
O     0.9621890000000001 0.21553000000000003 0.183071     O
O      0.96219  0.13921 0.215529     O
O     0.9621899999999999 0.183069 0.139211     O
O      0.96219 0.18307000000000007 0.215529     O
Cr    0.964369 0.34617000000000003  0.50981    Cr
Cr    0.9643689999999999  0.50981  0.34617    Cr
Cr    0.964369 0.5098099999999999 0.679649    Cr
Cr    0.9643690000000003 0.6796499999999999  0.50981    Cr
Cr    0.9643699999999998 0.6796490000000001  0.34617    Cr
Cr    0.9643710000000001 0.346169 0.679649    Cr
C     0.9657599999999998  0.33816  0.33816     C
C     0.9657599999999997  0.33816 0.857919     C
C     0.9657599999999998 0.857919  0.33816     C
H      0.96936 0.8588880000000001 0.369369     H
H     0.9693609999999999  0.30238 0.369369     H
H     0.9693609999999997 0.302382 0.858888     H
H     0.9693609999999999 0.36936899999999995  0.30238     H
H     0.9693609999999997 0.369369 0.858888     H
H     0.9693620000000001 0.8588880000000001  0.30238     H
O     0.9697189999999999   0.2993 0.48521899999999996     O
O     0.969719 0.29929999999999995 0.745761     O
O     0.9697189999999998 0.48521999999999993 0.299299     O
O     0.9697199999999997 0.485219 0.745761     O
O     0.9697199999999999 0.7457590000000001 0.299299     O
O     0.9697199999999998  0.74576 0.48521899999999996     O
O     0.9721589999999997 0.274899  0.71834     O
O     0.9721589999999998   0.2749 0.534599     O
O     0.9721589999999999   0.5346   0.2749     O
O     0.9721590000000003  0.71834   0.2749     O
O     0.9721600000000002 0.5345990000000002  0.71834     O
O     0.9721599999999999 0.7183389999999998 0.534599     O
C     0.9744600000000001 0.33973899999999996 0.604199     C
C     0.9744600000000002 0.33974100000000007 0.581599     C
C      0.97446 0.5816000000000001 0.339741     C
C     0.9744599999999999 0.5816000000000001 0.604199     C
C      0.97446 0.6041990000000002 0.339741     C
C      0.97446   0.6042 0.581599     C
O     0.9752880000000002 0.6446500000000001  0.53087     O
O     0.9752889999999999  0.34919  0.53087     O
O     0.975289  0.53087 0.644649     O
O     0.9752900000000001  0.34919 0.644649     O
O     0.9752899999999998 0.5308690000000001 0.34918899999999997     O
O      0.97529 0.6446510000000001 0.34918899999999997     O
C     0.977029  0.81614  0.89069     C
C     0.9770289999999999  0.89069 0.816139     C
C     0.9770309999999998 0.8161400000000001 0.816139     C
C     0.9787589999999999 0.43969900000000006  0.66492     C
C     0.9787589999999999 0.6649180000000001   0.4397     C
C     0.9787599999999999 0.41661900000000013   0.4397     C
C     0.9787599999999996 0.4166199999999999  0.66492     C
C      0.97876   0.4397 0.41662099999999996     C
C     0.9787599999999997  0.66492 0.41662099999999996     C
C     0.979609 0.3132910000000001  0.35069     C
C     0.9796099999999999 0.14589000000000008 0.6872499999999999     C
C     0.9796100000000001 0.31329100000000015 0.856409     C
C     0.9796099999999999 0.35068900000000003 0.313291     C
C     0.9796099999999999  0.35069 0.856409     C
C     0.9796099999999999 0.6872499999999999  0.14589     C
C     0.9796100000000001 0.6872500000000001 0.6872499999999999     C
C     0.9796099999999999 0.856409 0.313291     C
C     0.9796099999999999 0.856409  0.35069     C
H      0.98149 0.6493910000000002 0.715044     H
H     0.9814899999999999 0.715044 0.649391     H
O     0.9814900000000001 0.8011290000000001 0.879229     O
O     0.9814899999999999 0.8381489999999999 0.8011289999999999     O
O     0.9814899999999999 0.8381500000000001 0.879229     O
O     0.9814900000000001 0.8792289999999999 0.8011289999999999     O
O     0.9814899999999999 0.8792300000000001 0.838149     O
H     0.9814909999999999 0.15407200000000001 0.715044     H
H     0.9814909999999998 0.15407399999999993 0.649391     H
H     0.9814909999999997 0.649391 0.154074     H
H     0.9814909999999997 0.715044 0.154074     H
O     0.9814909999999998 0.8011290000000001 0.838149     O
O     0.9830589999999998 0.368159 0.6709600000000001     O
O     0.9830589999999998 0.4778190000000001 0.6709600000000001     O
O     0.9830589999999998  0.67096 0.368159     O
O     0.9830590000000001 0.670961 0.477819     O
O     0.9830600000000003 0.36815999999999993 0.477819     O
O     0.9830600000000002 0.477819 0.368159     O
F     0.9838889999999999  0.13815  0.23981     F
O     0.9874699999999998 0.17084300000000002 0.17084299999999997     O
Cr    0.9895689999999999  0.15227 0.20588999999999996    Cr
Cr    0.989569 0.205889 0.152271    Cr
Cr     0.98957 0.15226999999999996 0.152271    Cr
C     0.9925580000000002 0.148421  0.69802     C
C     0.9925589999999999 0.6980200000000001  0.14842     C
C     0.9925600000000001  0.14842 0.660999     C
C      0.99256 0.660999  0.14842     C
C      0.99256 0.6609989999999999  0.69802     C
C     0.992561 0.698019 0.660999     C
C     0.996478 0.6038799999999999  0.55834     C
C     0.9964790000000001 0.558339  0.60388     C
C     0.996479 0.5583399999999998   0.3413     C
C     0.9964799999999998 0.341299  0.60388     C
C      0.99648 0.34129999999999994  0.55834     C
C     0.9964800000000001  0.60388   0.3413     C
C     0.9965190000000002 0.3430400000000001 0.534359     C
C     0.996519 0.534359  0.34304     C
C     0.9965189999999999 0.6260800000000001 0.534359     C
C     0.9965200000000001 0.534359 0.6260789999999999     C
C     0.9965199999999997 0.6260800000000001  0.34304     C
C     0.9965210000000002 0.343039 0.6260789999999999     C
N     1.0234175334689943 0.8436777166536583 0.27826985407440624     N
O     1.0163714440974965 0.8545908858349078 0.258798537208138     O
O     1.0448680875619552 0.8256405646753704 0.27636534976739313     O
N     0.023417083894133717 0.2782705633799453 0.8436755211266483     N
O     0.021060091252549262 0.27555734160442313 0.8266453720399352     O
O     0.040177928614049785 0.25960860342780373 0.8535806096374736     O
N     1.0234191145392768 0.3546341646818399 0.2782710497392911     N
O     1.0210633153514077 0.37673410456697765 0.2755577625608346     O
O     1.040180181756854 0.34662947288393475 0.25960959364761066     O
N     0.03538738126083472 0.7012581940641629 0.14002831544185382     N
O     0.027515302771943376 0.7136897913247243 0.15454826134708893     O
O     0.05677983023233583 0.7019419306506286 0.12229747739207703     O
N     0.03538859884343612 0.6233274108607247 0.7012590912262662     N
O     0.02751775430147735 0.6042470412958625 0.7136920180360169     O
O     0.056780550926412904 0.6189842318209411 0.7019423070636212     O
N     1.035390162328824 0.14002418887587104 0.7012578193362359     N
O     1.032379616012812 0.12593552128383634 0.7245997136363057     O
O     1.0519229552298202 0.15089914569470958 0.6910309210624409     O
N     0.0462220991528374 0.3288039281914015 0.5389896082640494     N
O     0.06604286773471435 0.3100747392544554 0.5432980883743099     O
O     0.048923288642008206 0.34187517933519895 0.5154696094735142     O
N     1.0462232386608423 0.538990247013182 0.3288058281724976     N
O     1.0635213868119389 0.5304938909559058 0.33821107684255236     O
O     1.0514479857070405 0.5282756602285372 0.3137434530507211     O
N     0.04622340991435528 0.5859840782491157 0.5389911535756214     N
O     0.06352390417210435 0.5677781404959075 0.5304941310076047     O
O     0.05144551448585116 0.6065376170482205 0.5282780505762867     O
N     1.0487372398491468 0.37165245696754384 0.4177067590176546     N
O     1.0715227678193686 0.37192906521342317 0.40793369705348514     O
O     1.0468648729450318 0.34960661145005845 0.42685485771285697     O
N     1.0487379036755156 0.6619034060663078 0.4177068197489546     N
O     1.060074328898305 0.6776101849187175 0.3991610685517732     O
O     1.058314336455141 0.6476781732470891 0.43562766242700757     O
N     1.0487388396167674 0.3716519345265099 0.661904571082204     N
O     1.060073910464077 0.36315601404319975 0.6776120818792221     O
O     1.058317200078896 0.3583790482621167 0.6476796565911705     O
N     0.0344239884590804 0.7615944240859006 0.4420087067998446     N
O     0.01639643311728728 0.7825223093870417 0.43708047195912486     O
O     0.03439907791464106 0.7522819683403451 0.46485778287881635     O
N     0.03442299889102601 0.4420067547493804 0.7615940984993755     N
O     0.037244729322854164 0.4453584915167292 0.7779124786718721     O
O     0.013547099109584182 0.4565750009378304 0.7568917558725579     O
N     0.034423696201440784 0.7615925114944294 0.261973235021502     N
O     0.03724601077180689 0.7779095810501993 0.23948071817345631     O
O     0.013547840913361614 0.756890048784446 0.2729834383887547     O
N     0.03442465130836786 0.26197234357332777 0.7615923604792689     N
O     0.01639727028021737 0.26399946624896903 0.7825205445146767     O
O     0.03439917235480561 0.24846210376797617 0.7522786471480594     O
N     0.034424406553457576 0.44200721228622203 0.26197270684544816     N
O     0.016397069736557565 0.43707816643077735 0.2640012708562258     O
O     0.03439839228696703 0.46485665357123407 0.24846135319819507     O
N     0.034427053568090865 0.2619687669128832 0.4420094259459323     N
O     0.037252017058299586 0.23947598052338284 0.44536060862797383     O
O     0.013551035152150614 0.27297611328903587 0.4565797328191075     O
N     0.04862304649795969 0.13780833880371918 0.2184564026699319     N
O     0.04704531360714749 0.12711252154947306 0.2419015466321006     O
O     0.04163053195022416 0.12809158392257686 0.21086646771177714     O
N     0.04862437174899473 0.095111637308369 0.13780774353604117     N
O     0.04704699811124789 0.08394051087628386 0.12711118908987962     O
O     0.04163224191976765 0.11941084785522085 0.1280911892074011     O
N     0.048626328900687084 0.1378048528899884 0.09511103217150689     N
O     0.06356792472393089 0.114743082141425 0.10045639303288915     O
O     0.02511654324643181 0.14045271193795267 0.10289266898267     O
N     0.03892636723788692 0.216614133595181 0.5316879623417706     N
O     0.023384293944604895 0.2043379664139728 0.5480650227291499     O
O     0.03667892580872184 0.22866864989884736 0.5095664500447639     O
N     0.03892737311135318 0.5316859673560722 0.2166141347316279     N
O     0.04356298897126937 0.523217384316304 0.19994544439407577     O
O     0.016502878880561983 0.5344092014972434 0.23306117521615596     O
N     0.03892823995061445 0.7127716317375443 0.5316872492454304     N
O     0.0435646711436119 0.7332728391043031 0.5232185883618571     O
O     0.016503351246729636 0.716026668350453 0.5344108153563155     O
N     0.038928225807556255 0.2166141084880895 0.7127713736930739     N
O     0.0435644795836872 0.19994599090787846 0.7332729047471664     O
O     0.016503411619496783 0.23306055255647948 0.7160258539891308     O
N     0.038927441461134596 0.7127700529288177 0.2166141114812241     N
O     0.023385632351309193 0.7242116758888666 0.20433757372338143     O
O     0.03667998306335138 0.7250841521469231 0.22866897842558456     O
N     0.03892883439293174 0.5316881703727555 0.7127720594971418     N
O     0.023388195864207817 0.5480653639404206 0.7242132761581258     O
O     0.0366812808532872 0.5095667124373537 0.7250874724451283     O
N     0.06826694911744152 0.8190333938685204 0.8740183140580328     N
O     0.0823884450164486 0.8329949979998658 0.8611377424295723     O
O     0.04436177647554429 0.8309941463878572 0.8816514825372832     O
N     0.06826651347548307 0.8740161924094006 0.8190337321249458     N
O     0.0646832884835557 0.8887116550186493 0.8293021511698498     O
O     0.062065668989194966 0.8540714139647362 0.8346879746720741     O
N     0.0682683103478588 0.7386791926755845 0.8190335388474577     N
O     0.08239021729614521 0.7234772359710981 0.8329947789163149     O
O     0.04436323261118419 0.7429901878969809 0.8309947861291591     O
N     0.10998930206881657 0.21278734167808955 0.29237724232859785     N
O     0.12784697751357457 0.19320530374426648 0.2998549181390509     O
O     0.09082471029747131 0.22109000190028227 0.30997707223701093     O
N     0.1099892465109254 0.2923772743292469 0.8848446169756674     N
O     0.12784694857616885 0.2998548073552256 0.8790915109769021     O
O     0.09082457803313254 0.309977275871021 0.8781069647991488     O
N     0.10998930027814917 0.8848451308323267 0.2923772766884652     N
O     0.10047788557820632 0.8966510617227165 0.30794662135180556     O
O     0.1181937970372012 0.8605489050132672 0.3018854687197349     O
N     0.1400251427895509 1.03538896065687 0.7012583045246527     N
O     0.15454387385558702 1.027518092668248 0.7136907665330438     O
O     0.1222935609124774 1.0567811722137845 0.7019412759444591     O
N     0.1400249058863801 0.6233270887285829 0.7012592716059002     N
O     0.12593646102050465 0.6170850724622088 0.7246013409601951     O
O     0.1509002863707803 0.6061452659851541 0.6910335075126484     O
N     0.14002530999957247 0.7012576219433482 1.0353895442555636     N
O     0.12593688954784032 0.7245995584968873 1.0323792110582914     O
O     0.15090103038167435 0.6910305034645386 1.0519217471408422     O
N     0.1378061076528993 0.04862487841537971 0.21845503981070977     N
O     0.11474426268379305 0.0635661554478467 0.22122948415343677     O
O     0.14045427059256796 0.02511491528421657 0.23153457584158338     O
N     0.13780607010661494 0.04862562193648687 0.09511089249214547     N
O     0.12710980645670888 0.04704945020206079 0.08393861049346187     O
O     0.12808861787875458 0.04163332710878637 0.11941004624111577     O
N     0.13780514292740736 0.21845578905031238 0.048627364051488854     N
O     0.1271083527791408 0.24190043683414095 0.04705146948224061     O
O     0.1280873813371273 0.21086579708663672 0.04163600198791409     O
N     0.14122101295937275 0.18772264787529172 0.32969701956548364     N
O     0.133721887982934 0.1705635820294305 0.35029308020587474     O
O     0.12518354194310527 0.20296298425298182 0.3178158680298163     O
N     0.14122235336363692 0.18772251177582616 0.8413595070323475     N
O     0.1373747291832868 0.17421391596212188 0.864928276395233     O
O     0.12153368842892848 0.19931225542641057 0.8345322245071836     O
N     0.14122273363563614 0.32969812970329304 0.8413585217531593     N
O     0.13372504168298915 0.35029440213542984 0.8454196227321179     O
O     0.1251844792920101 0.31781776717556176 0.8540380193734632     O
N     0.14122404266142047 0.329701659485238 0.1877147023330584     N
O     0.13737765011786893 0.32349130101648305 0.17420343621294218     O
O     0.12153566900776112 0.3446302084806273 0.19930187902273294     O
N     0.14122338684617286 0.8413597768229233 0.3296972550344439     N
O     0.13737692794533596 0.8649281822852211 0.32348501176802275     O
O     0.12153448832618224 0.8345331014170905 0.34462461968307234     O
N     0.14122572367687736 0.8413609705286147 0.18771442936132154     N
O     0.13373055181393478 0.8454225256692433 0.1705526739752147     O
O     0.12518674328445148 0.8540422215813646 0.20295184923039716     O
N     0.15863829649486028 0.6703048340538937 0.8122771652431494     N
O     0.1350693872433122 0.6765180231260863 0.8257852074414915     O
O     0.16546554178661538 0.6553784069322883 0.8006876840374939     O
N     0.158637898559278 0.8122782156667512 0.8587772588265788     N
O     0.13506914963544914 0.8257866924170514 0.8626242584922803     O
O     0.1654646247806419 0.8006892468758997 0.8784661986617673     O
N     0.15863749436100638 0.8122832813803473 0.6703024068957494     N
O     0.15457597413477922 0.8294442969918366 0.6497067658781602     O
O     0.1459566274962232 0.7970454390073718 0.6821826217580191     O
N     0.16758808214349297 0.07641890928398293 0.5562984872368885     N
O     0.16220215683329373 0.05688321358935697 0.5628358765505727     O
O     0.14935363345599317 0.09762186485101987 0.5532485755696385     O
N     0.16758794773927366 0.5562983535873568 0.07642026519036367     N
O     0.1618801060563243 0.5382501846867812 0.07961267450750541     O
O     0.14967529425785592 0.5778338796480568 0.07489552674952536     O
N     0.16758978824725723 0.5562950311662775 0.6996943501817292     N
O     0.16220415534575805 0.5628311337478351 0.7180793574641462     O
O     0.14935568371024519 0.553244192060387 0.6997761773454231     O
N     0.16758963995401727 0.6996941068899193 0.07642043653435801     N
O     0.16220389470138927 0.7180793188985148 0.05688510399225199     O
O     0.149355514080383 0.6997755099975791 0.09762359442099068     O
N     0.1675895747666821 0.6996937041470099 0.5562990285853312     N
O     0.16188216348516452 0.7202581546300748 0.5382513739560506     O
O     0.14967705615494084 0.6975955057036779 0.5778346488917611     O
N     0.16759056007700796 0.07641690547166952 0.6996937156315164     N
O     0.1618832221173531 0.0796079075596979 0.7202579299985822     O
O     0.14967795490052502 0.07489189770604207 0.6975957636575734     O
N     0.18096558004156452 0.12598089903832077 0.26132018869187995     N
O     0.16700414500620933 0.1388614673302071 0.27652271924316785     O
O     0.16900463490593415 0.11834792600401199 0.25700896343004054     O
N     0.18096567706739458 0.1259818793969032 0.93172821577892     N
O     0.17070064831640858 0.1112844782406816 0.9353093419073859     O
O     0.1653084131170941 0.14592685810377948 0.9379277597660309     O
N     0.1809655800415645 0.26132118869188 0.12597989903832085     N
O     0.17069915854743395 0.28270160476893075 0.11128268862257448     O
O     0.1653096213647093 0.2508320779042775 0.14592470471164476     O
N     0.18096563867212523 0.9317325617778118 0.12597947155506944     N
O     0.16700401604245932 0.9176110847635558 0.13886003702965433     O
O     0.16900493398680785 0.9556377253571313 0.11834611595788826     O
N     0.18096646716176384 0.2613226941221508 0.931728682341991     N
O     0.16700690768930088 0.2765246487154918 0.9176051047193021     O
O     0.1690035447010384 0.2570134019778136 0.9556333506912552     O
N     0.1809664348169115 0.9317297212018018 0.26132068105807565     N
O     0.17069964893555467 0.9353126413272347 0.2827012917139655     O
O     0.16531070960589198 0.9379288283448399 0.25083181956439243     O
N     0.20771020821547953 0.6101606274032217 0.7406129505817852     N
O     0.19770682948543733 0.5957795879781379 0.7624795388716747     O
O     0.19186840137907912 0.6310150700018551 0.7312899196713427     O
N     0.20771137550101448 0.6101600699195661 0.9415136823856599     N
O     0.19330453769538497 0.604124147245737 0.964743261300453     O
O     0.1962731785496863 0.6226688931901827 0.9251118494097226     O
N     0.20771139634550756 0.7406138620764814 0.6101569984933845     N
O     0.19330616586258564 0.7378266453278158 0.6041193629418792     O
O     0.19627161086297773 0.7559454579256397 0.6226656672314833     O
N     0.20771155292265753 0.7406148191759208 0.9415136355143783     N
O     0.19770984930580232 0.7624815349751266 0.944030757802782     O
O     0.19186838172983456 0.7312933453113579 0.9458242169099289     O
N     0.20771189749764243 0.941511511399722 0.6101568730157257     N
O     0.19771166790418318 0.9440276536368735 0.5957739658501615     O
O     0.19186756291901527 0.9458220594465847 0.6310107002485935     O
N     0.2077126213630925 0.9415113698789017 0.740615257320089     N
O     0.1933050621692386 0.9647405733764829 0.7378299613084555     O
O     0.1962753674469641 0.925108729082984 0.7559461902574569     O
N     0.25938418335023933 0.05848514931197352 0.7922874418731147     N
O     0.2621711248286701 0.03525544130558389 0.8066938760990097     O
O     0.24405200221452228 0.07488668920051667 0.8037258777652373     O
N     0.25938585409889064 0.05848805919542849 0.3898362056982393     N
O     0.23751877475657973 0.05597106598917545 0.40421606290237805     O
O     0.26870919997954595 0.05417896666550581 0.36898099184112737     O
N     0.2593832288335238 0.3898410494517228 0.7922872799992365     N
O     0.23751639978443262 0.40422341904697834 0.8022884911583653     O
O     0.2687039577195278 0.36898678838342924 0.8081307930273002     O
N     0.2593837189513641 0.7922873654653756 0.058485936305061895     N
O     0.2375171438587719 0.8022888382736681 0.05596857203613038     O
O     0.2687046357267139 0.8081306938928037 0.05417602223970379     O
N     0.2593851128284016 0.7922886553576256 0.38983582303778125     N
O     0.2621707053143242 0.806697786256471 0.39586988637399995     O
O     0.2440551186185023 0.8037245870350922 0.37732605807658576     O
N     0.2593858034577199 0.3898387627166946 0.05848596426506246     N
O     0.262172178434713 0.3958746320537723 0.035256534132852534     O
O     0.24405474785616926 0.3773298419028427 0.07488814126918639     O
N     0.27826987147530774 1.0234208793908603 0.3546346460961027     N
O     0.2755568298872991 1.0210650167084012 0.37673451993320434     O
O     0.25960891059593005 1.040182961061656 0.3466295528363118     O
N     0.27826957174882433 0.023418528003900152 0.8436755239162745     N
O     0.2587978736369868 0.01637316170213443 0.8545880525648828     O
O     0.276366095677621 0.0448687868248126 0.8256379372066526     O
N     0.27826975560780176 0.3546346504871609 0.8436752272418776     N
O     0.275555839541011 0.3767347109919958 0.8266445900721724     O
O     0.2596086632421498 0.34662937451821707 0.8535805388958086     O
N     0.2782709143954125 0.35463918169571107 1.0234159528122728     N
O     0.25879991975246947 0.3702447585469097 1.0163696683615684     O
O     0.2763679452638486 0.35313157279814006 1.0448653401131913     O
N     0.27826902571451945 0.8436764157714276 1.0234165018847032     N
O     0.27555539866632645 0.8266463213780848 1.0210598329177092     O
O     0.25960698632460755 0.8535822561195698 1.0401767686958734     O
N     0.27826956492545885 0.8436755216418194 0.35463621581161237     N
O     0.2587983117960558 0.8545882114778977 0.3702408678919876     O
O     0.2763656377204932 0.8256377716942843 0.3531277594218505     O
N     0.31605621721401206 0.23724487974647535 0.7563418522955706     N
O     0.30376899850952965 0.24620521411236482 0.7413533934248838     O
O     0.33091924412327717 0.24893351000644498 0.7494433325538808     O
N     0.31605627657218405 0.7563423727695596 0.23724535559121698     N
O     0.33263514255088333 0.7348753616504906 0.2350133888838869     O
O     0.30205327231021817 0.7559228744884513 0.26012671590291897     O
N     0.3160601983061817 0.19035404960803903 0.23724413190367696     N
O     0.3037748920404758 0.20866858039417002 0.24620538014522195     O
O     0.3309240002593129 0.17069992056079492 0.24893117410067178     O
N     0.2872287190256511 0.46831316150791086 0.7833859097687935     N
O     0.266727109027231 0.47678221697055406 0.8000543449013452     O
O     0.28397440126072476 0.46558957111595894 0.7669391646068152     O
N     0.2872288829153319 0.4683126262934151 0.9610726016738217     N
O     0.275787274286338 0.4519359230466219 0.9766146961547143     O
O     0.27491471152906877 0.49043431210999444 0.9633196332852252     O
N     0.2872291217701447 0.7833858964491303 0.9610731900426531     N
O     0.26672710912028375 0.8000541322650929 0.9564380748990627     O
O     0.2839755697346089 0.7669393385959384 0.9834979616985777     O
N     0.28722841504786667 0.9610709274725168 0.4683127394402128     N
O     0.26672713909277423 0.9564343151655483 0.47678218183186183     O
O     0.28397348920077903 0.9834960580729604 0.4655883816212528     O
N     0.28722920370957544 0.9610723859778332 0.783385886124016     N
O     0.2757881639290524 0.9766140584944176 0.7956624755863103     O
O     0.2749147526738693 0.9633205466109915 0.7713309653163052     O
N     0.28722925112589065 0.7833859387774579 0.46831327467131817     N
O     0.2757868648315903 0.7956632589109318 0.4519371160665303     O
O     0.274915287840807 0.7713312362755507 0.49043500036467275     O
N     0.32880109847755623 1.046221956074525 0.5389902474840889     N
O     0.3382041038785317 1.0635223479942368 0.5304920653969465     O
O     0.31373850577918416 1.0514434833903572 0.5282774871538378     O
N     0.32880244420730553 0.5389893817878958 0.5859830403383945     N
O     0.3382059697145525 0.5304928261471713 0.567776527709251     O
O     0.3137405445906935 0.5282751160873718 0.6065362183271527     O
N     0.32880428971700026 0.5389888268670053 1.0462229761878414     N
O     0.31007538044677746 0.5432975417634707 1.066043802184598     O
O     0.3418755871128045 0.5154687903628868 1.0489244481627369     O
N     0.3621782669041289 0.31944966188691437 0.7136921935232854     N
O     0.3645081328117564 0.3220797810019679 0.6916325878363382     O
O     0.3404652877891503 0.33237117679126105 0.7256478562062629     O
N     0.36217998110816785 0.10467292340729184 0.7136914643526563     N
O     0.3592911268195831 0.09749834312507052 0.7002717238010058     O
O     0.3456863660510637 0.12577945121320544 0.7170066045461541     O
N     0.36218107288846735 0.3194550775226318 0.10467392897860528     N
O     0.35929304987834926 0.34293790003144037 0.09750003035375875     O
O     0.3456876108031105 0.3115269682609638 0.12578059150820445     O
N     0.36218177652350336 0.7136876801546719 0.31944913479405557     N
O     0.3592920672723273 0.7002649787198072 0.3429318258247901     O
O     0.3456906350128103 0.7170032712507016 0.31151760260354927     O
N     0.36218134657798273 0.7136895124349595 0.10467449171510589     N
O     0.364512640246672 0.6916291350045302 0.12177282499643612     O
O     0.3404688145474919 0.7256435298350642 0.10150942965077878     O
N     0.36218210356640845 0.10467636298070673 0.31945137042157     N
O     0.3645134521678326 0.12177524662688885 0.3220811937627319     O
O     0.3404692975259609 0.1015118966094298 0.332374721359878     O
N     0.37165282249293735 0.4177016146542613 0.6619044388590604     N
O     0.3631579993186991 0.3991542035154836 0.6776118008097104     O
O     0.3583796394295621 0.4356203263414754 0.6476795540139867     O
N     0.37165116556119593 0.6619034264778172 0.41770681113948466     N
O     0.3719271852439247 0.6486139454754762 0.4079346067650671     O
O     0.34960564590129684 0.6766744719145171 0.4268540992332556     O
N     0.37165164293687153 0.661906572694586 0.048737455297330666     N
O     0.3631557925311075 0.6776147896199619 0.06007169310143547     O
O     0.358378423724129 0.647681855038182 0.058316302335075086     O
N     0.3716531115134343 1.0487377074725583 0.6619046307835212     N
O     0.37193029678895373 1.0715231070546463 0.6486160171429352     O
O     0.34960727904558864 1.046865890523484 0.6766758945513914     O
N     0.3716522143257686 0.04873735532349405 0.41770681253932274     N
O     0.36315457514534055 0.06007362230207791 0.3991612131834742     O
O     0.3583803974907481 0.05831399290846381 0.4356274968764921     O
N     0.3716526048050361 0.4177046864958479 0.04873749192977825     N
O     0.371929087951683 0.4079310007910425 0.07152312772440705     O
O     0.34960701766367436 0.42685154053377544 0.046864974001494725     O
N     0.43673074020971336 0.39461336326472374 0.8925204958367546     N
O     0.4525641174737254 0.40676689149464074 0.8793429806025034     O
O     0.4149309394670796 0.4071651263924072 0.8895343943516023     O
N     0.4367320877506656 0.7761295161688506 0.8925214101014084     N
O     0.42695328288684375 0.7595027872671049 0.8997798609439249     O
O     0.4405456839567147 0.7901783934891354 0.8691001667576774     O
N     0.43673199744708646 0.8925191553477693 0.39461434991041006     N
O     0.4269536283862735 0.8997759760338995 0.41376243776651195     O
O     0.44054507644060026 0.8690984109882112 0.4001715413728696     O
N     0.43673506249884986 0.776131506622652 0.3946141638942901     N
O     0.452570597281545 0.7613217380450779 0.40676519658233806     O
O     0.41493609931245234 0.7883643165221879 0.4071682428295212     O
N     0.43673389561686793 0.892519862167845 0.7761294287773054     N
O     0.45256866981705085 0.8793438547293295 0.7613188127878554     O
O     0.41493464105789557 0.889532583137882 0.7883621144009944     O
N     0.4367383968536487 0.3946138717835368 0.7761296324259476     N
O     0.4269614181360676 0.41376262767070593 0.7595024339652718     O
O     0.4405540516103448 0.4001699641790536 0.7901790841120292     O
N     0.5316860208707515 0.03892673391870048 0.21661413679617106     N
O     0.5480626031400393 0.023384381304678376 0.20433818790965877     O
O     0.5095641379468534 0.0366801728293025 0.22866843769086423     O
N     0.531686429590693 0.21660901492285034 0.03893052288016376     N
O     0.5232180318078546 0.19993888987079061 0.043569162121129476     O
O     0.5344098951837941 0.2330537760755055 0.01650485315419431     O
N     0.5316852715858663 0.21661410788950458 0.7127714378414267     N
O     0.5480611787310491 0.20433744272596657 0.7242140423315061     O
O     0.5095633882986987 0.22866909900159166 0.7250849025318411     O
N     0.5316841694492747 0.7127707585606967 0.21661410489678973     N
O     0.5232144730796902 0.7332719021729585 0.1999457167202305     O
O     0.5344068960903656 0.7160259732603684 0.2330608163239373     O
N     0.5316881477493716 0.038928569251033746 0.7127721530609674     N
O     0.5232198794172274 0.04356589835015284 0.7332727591339333     O
O     0.5344121313185852 0.016503169659394412 0.7160282609456411     O
N     0.5316896399899874 0.7127703830428647 0.03892784905310905     N
O     0.5480676666565933 0.7242105820202628 0.023387129276689615     O
O     0.5095686738294084 0.7250862038445417 0.036679127864273964     O
N     0.5389883193972211 1.046223392766489 0.3288064463275881     N
O     0.5432964068977905 1.06604482555704 0.3100782283293208     O
O     0.515468452800214 1.0489241827424551 0.34187809514676504     O
N     0.5389877235829337 0.3288045590439734 1.0462219040283391     N
O     0.5304894218504085 0.33820884224404646 1.0635213350389119     O
O     0.5282737090868344 0.3137429067702819 1.0514438044275374     O
N     0.538988186346026 0.3288051100746143 0.5859831863655723     N
O     0.543296133049923 0.31007661412877086 0.5805823954840694     O
O     0.5154683405987865 0.3418767337061474 0.593730774251565     O
N     0.5389890422875789 0.5859800639166054 0.3288063621034258     N
O     0.530492945977035 0.5677727946395946 0.3382117898536596     O
O     0.5282740111941443 0.6065322167903897 0.3137442892452264     O
N     0.5389881223989142 0.5859830709312946 1.0462226192390989     N
O     0.5432959408744933 0.5805830004252317 1.066043786926076     O
O     0.5154683472310688 0.5937298343767595 1.048923427731124     O
N     0.5389908044380018 1.0462233165676333 0.5859831119578578     N
O     0.5304940956155467 1.0635230047185151 0.5677767402193094     O
O     0.5282770729422566 1.05144632339493 0.6065362136216415     O
N     0.5579904255205631 0.2384039871404688 0.7380303543676909     N
O     0.5546395001552364 0.2220875265340707 0.7605232418110962     O
O     0.5434206289357304 0.24310448740631302 0.7270230162732115     O
N     0.5579908276631746 0.7380259745683683 0.23840424780366323     N
O     0.5629202989765573 0.7359981630646287 0.21747589867946088     O
O     0.5351409969349815 0.7515362885001404 0.2477168715776345     O
N     0.5579906166619053 0.23840654435148573 0.9655750884670055     N
O     0.562918294994877 0.21747887810518496 0.9836030432520034     O
O     0.5351414871850829 0.24771965409761776 0.9655999393706536     O
N     0.5579915287122976 0.7380268329890152 0.9655752181176267     N
O     0.5546400228253516 0.7605190350718931 0.962752245804088     O
O     0.5434224056774046 0.7270179072084614 0.9864511130010665     O
N     0.5579914255205631 0.9655732329712777 0.23840398714046854     N
O     0.554640690490269 0.9627478548567749 0.22208731931247286     O
O     0.5434214386006984 0.9864497440275657 0.24310469462791007     O
N     0.5579926364123148 0.9655740945580984 0.7380295782964472     N
O     0.5629222097340759 0.9836004602079288 0.73600229431284     O
O     0.5351434327707043 0.9655996385786807 0.7515417119934514     O
N     0.6053841065442099 0.10747882936902098 0.2238684641191172     N
O     0.5932309242664442 0.12065531579321873 0.23867878682039717     O
O     0.5928315194921393 0.11046508087806087 0.2116350737193055     O
N     0.6053843957374778 0.5632673078703936 0.107479657789092     N
O     0.5932317235107879 0.5474332036871318 0.12065667990393676     O
O     0.5928315593447834 0.5850669773675361 0.11046603028503309     O
N     0.6053858647857515 0.10747991483797353 0.5632684486683531     N
O     0.5862373978107676 0.10022326587565683 0.5730481995911116     O
O     0.5998292459927836 0.13090055074682583 0.5594552914995709     O
N     0.6053855253531287 0.223865610921539 0.10747957298901945     N
O     0.5862375935702047 0.24049133960788963 0.10022216141920712     O
O     0.5998280653663981 0.20981514386160122 0.1309003027215541     O
N     0.6053848946659908 0.22386869694416686 0.5632684390028908     N
O     0.5932314534554902 0.23867897450631312 0.5474350356976775     O
O     0.5928323755364464 0.2116355615774622 0.5850684273485747     O
N     0.6053854516214906 0.5632662842565143 0.22386863884670777     N
O     0.5862376937655004 0.5730443380248723 0.24049556750807366     O
O     0.5998277512380603 0.5594528730044923 0.20981880000537714     O
N     0.6233253199417133 1.0353885435857684 0.7012578999740071     N
O     0.6170817292657558 1.032377810836689 0.7246000402383354     O
O     0.6061443785392708 1.0519202439096167 0.6910308284316631     O
N     0.6233264920248629 0.14002403555054363 0.701258445049376     N
O     0.604245619241409 0.15454249205967982 0.7136909074173226     O
O     0.6189838893739052 0.12229173004398597 0.7019415427939878     O
N     0.6233254680518345 0.14002733497378886 0.03538974541703722     N
O     0.6170815168592275 0.12593898632743006 0.03238017279116296     O
O     0.6061450206887093 0.15090390757441927 0.0519213690798792     O
N     0.6233253551400648 0.7012572796608689 0.03538919134948094     N
O     0.6042451475075729 0.7136889805423312 0.027518218052036025     O
O     0.6189810624258018 0.7019400882832599 0.0567817161867779     O
N     0.6233250547032474 0.7012586491399367 0.14002820403033778     N
O     0.6170816511230809 0.7246009611270158 0.12594074115447362     O
O     0.6061436870900409 0.691032081254977 0.15090467432313015     O
N     0.6233260815386873 0.03538945142753954 0.1400282077088538     N
O     0.6042455335263223 0.027519043571239916 0.15454804866394722     O
O     0.6189818825500805 0.05678218619215446 0.12229737748690543     O
N     0.6619014053996537 0.04873785980815806 0.417706797464418     N
O     0.6486117884617373 0.0715232505789341 0.4079341607852457     O
O     0.6766716662603567 0.04686582839860734 0.42685450553474297     O
N     0.6619004091295181 0.37165295426923034 0.048738168316699255     N
O     0.648610003659412 0.37193033978012535 0.07152331256213619     O
O     0.6766705603755081 0.3496067798088797 0.046866751706781645     O
N     0.6619035722890365 0.37165213021492866 0.41770674963706034     N
O     0.6776110067077761 0.36315427082393265 0.39916136415416764     O
O     0.6476778337548419 0.3583804577637617 0.4356271633942923     O
N     0.6703014634623867 0.8122782495502758 0.8587776742875237     N
O     0.6497056443241183 0.8294379931834099 0.8662759004739851     O
O     0.6821819074406916 0.7970380444229066 0.8748157621439022     O
N     0.6703048057450327 0.15863723729966067 0.8587767758740581     N
O     0.6765185332404358 0.13506861503622797 0.8626229459609134     O
O     0.655377814679512 0.1654632407288611 0.8784661099018503     O
N     0.6703042410345558 0.8122783006807129 0.15863916192531846     N
O     0.6765174212165624 0.825786685457626 0.13507037262205973     O
O     0.6553772881906231 0.8006895005041343 0.16546616595307645     O
N     0.6817445925980539 0.31867649035135487 0.9145773184719934     N
O     0.6590050356301874 0.327186705955259 0.9145990090649547     O
O     0.6904707200205358 0.33568484216264566 0.9085951347657572     O
N     0.6817460010027037 0.5849966500604249 0.3186778763030836     N
O     0.659006597114704 0.5992035500741517 0.32718975677251366     O
O     0.6904732450353641 0.5652433486826938 0.3356849111879637     O
N     0.6817445062507199 0.5850001965846556 0.9145768368109555     N
O     0.682065919802848 0.5929482357912568 0.89181548334472     O
O     0.6674095853102733 0.5715080517296076 0.9313772629419583     O
N     0.6817450975058668 0.9145764872775783 0.31867761686284424     N
O     0.6820668685627232 0.8918150206446578 0.3331694031408608     O
O     0.6674103520827704 0.9313767114676371 0.32970451205132106     O
N     0.681746815193067 0.3186758406037682 0.5849957483487431     N
O     0.6820678597314356 0.33316943182545183 0.5929420140761995     O
O     0.6674134432902226 0.32970113255312605 0.5715022683557165     O
N     0.681747825007946 0.9145769332262244 0.5849961481152741     N
O     0.6590084574992107 0.914597180013068 0.5992026861556753     O
O     0.690475775509822 0.9085958460234205 0.5652427562025926     O
N     0.6813222363285643 0.085423021920909 0.4150006880894292     N
O     0.6728111628173655 0.08540294452938069 0.40079276917244067     O
O     0.6643144960239433 0.09140453034970378 0.43475351019687714     O
N     0.6813219306454358 0.3182511616521973 0.4150007545103594     N
O     0.666830922955319 0.3179279556139206 0.4070529793916356     O
O     0.6702938489435157 0.332585772671328 0.42849349269863657     O
N     0.681324177021312 0.08542317248217526 0.3182568103444052     N
O     0.6668332337172274 0.10818454736961644 0.3179361317288449     O
O     0.6702971545529404 0.06862309391157594 0.33259308478058874     O
N     0.6813231799426077 0.3182531735249913 0.08542167774259057     N
O     0.672811771543129 0.3409926212547441 0.08540075063442379     O
O     0.6643157236937963 0.3095260429889372 0.09140354530614908     O
N     0.6813238576425347 0.4149976882770579 0.08542127509234412     N
O     0.6668319668036498 0.4070492080114829 0.10818248887781585     O
O     0.67029749478599 0.4284892688834214 0.06862063876927813     O
N     0.6813240223347755 0.4149976525024462 0.3182563207709003     N
O     0.6728156039513976 0.40078858333735073 0.34099566385821617     O
O     0.6643143354943291 0.4347497897571808 0.30953213214908626     O
N     0.7076226491739291 0.7872092233530832 0.11516026777070143     N
O     0.6920500429257529 0.8050727486836304 0.10335804338469812     O
O     0.698118553401155 0.7806237820962657 0.13945675246739572     O
N     0.7076224560755942 0.8900077011707869 0.11516139441634078     N
O     0.7001449454841173 0.8721491029452632 0.12091688304169937     O
O     0.6900230905661554 0.909171415624611 0.1219011817833184     O
N     0.7076230451815311 0.1151553574596878 0.7872108902691048     N
O     0.7001460246724788 0.12090837425559658 0.806792933515642     O
O     0.6900228191648045 0.1218939773017047 0.778908433836777     O
N     0.7076235854074592 0.11515660349345297 0.8900057679386927     N
O     0.6920533279622538 0.10335213415141636 0.8995156449506985     O
O     0.6981170833456432 0.13945293127517028 0.8818001658374729     O
N     0.7076245523908381 0.7872120576897396 0.8900058772384446     N
O     0.7001491710395695 0.8067936047348886 0.8721466286993718     O
O     0.6900231444702902 0.778911149899487 0.9091694992230581     O
N     0.7076245843725497 0.8900058217817153 0.7872115780821849     N
O     0.6920540353516679 0.8995156597955563 0.8050764188618397     O
O     0.6981183729534282 0.8818003072186527 0.7806269441867031     O
N     0.7308312578215027 0.4555303867114795 0.93374299128662     N
O     0.727476456200884 0.43502131629995416 0.9395614105410243     O
O     0.7108390011710248 0.4753194997284703 0.9336879138350102     O
N     0.7308300690133618 0.9337438017786106 0.45553245545642607     N
O     0.7233048163946827 0.9167993554920157 0.45915794191170134     O
O     0.715007191639218 0.9564523205341564 0.45118887659965223     O
N     0.7308316960038074 0.37989156270763946 0.9337433820891302     N
O     0.7233070999206102 0.4007358522372146 0.9167986444411058     O
O     0.7150087273319695 0.37735022450566735 0.9564518138520897     O
N     0.7308310690133619 0.3798916737516018 0.45553245545642607     N
O     0.7274741912879356 0.39793735244733963 0.43502421345356873     O
O     0.7108398167459656 0.3801481449812345 0.47532260505778484     O
N     0.7308296728509922 0.45553846633014033 0.3798895048399379     N
O     0.7233046010650626 0.45916522105060337 0.4007329818106968     O
O     0.715005355990585 0.45119723504857456 0.3773471240096845     O
N     0.7308302725993102 0.9337424813489617 0.37988983526730186     N
O     0.7274718015167427 0.939561995942124 0.39793617251365837     O
O     0.7108398957142932 0.9336867503544064 0.38014489204482904     O
N     0.7563406201821021 0.19035404960803903 0.2372441319036768     N
O     0.7348746668282572 0.1974733995850146 0.23501040909119753     O
O     0.755919385671095 0.18189510136995035 0.2601261451546955     O
N     0.7563403318780811 0.31605615785420227 0.23724440388860227     N
O     0.7413516605221063 0.3037695607984289 0.24620346128429754     O
O     0.7494415554604159 0.3309185096013313 0.24893388212841597     O
N     0.7563413894621224 0.1903569598100871 0.3160574171889965     N
O     0.7413525954506097 0.20867209159069372 0.30377048315044936     O
O     0.7494427876125502 0.17070395183348858 0.33092124122106653     O
N     0.7627535647844264 0.6839429691579716 0.8096438772202651     N
O     0.7649854107263114 0.6673642033548495 0.802523713309869     O
O     0.7398722534560627 0.6979460947724081 0.8181026719173917     O
N     0.7627538767189441 0.8096479978078879 0.6839398058665194     N
O     0.753791308463732 0.7913344286053856 0.6962249615046665     O
O     0.7510672607995823 0.8293030110362278 0.6690761583026763     O
N     0.7627549165559818 0.2436563387787622 0.6839396828683555     N
O     0.7649874459148053 0.26512263324730045 0.6673592076130925     O
O     0.7398732389360477 0.24407629366849926 0.6979415553139202     O
N     0.7627541177094417 0.24365622197039888 0.8096441055277201     N
O     0.7537933005845288 0.2586448788870503 0.7913291149888593     O
O     0.7510650664055706 0.250553709108184 0.8292979326746311     O
N     0.7627553015891867 0.6839397557688514 0.2436589554967413     N
O     0.7537936897313157 0.6962258909408331 0.2586487687771212     O
O     0.7510681122970032 0.6690759850170643 0.2505559475516982     O
N     0.7627559079746143 0.8096450142931144 0.2436593990371551     N
O     0.7649896351257339 0.8025264720955857 0.2651251493608485     O
O     0.7398739263356091 0.8181032123592472 0.24408085390465542     O
N     0.7815394214978044 0.862190904242188 0.9513774498558721     N
O     0.758094440223402 0.8728852644007217 0.9529546682901301     O
O     0.789127232234932 0.8719084338178057 0.9583712869315762     O
N     0.7815404097714055 0.9513739251178747 0.8621936179431156     N
O     0.7787648594226833 0.936432873962908 0.8852556392965916     O
O     0.768459680520805 0.9748837557077403 0.8595450312413018     O
N     0.7815415799189622 0.9048881927464014 0.9513768237106199     N
O     0.7787650550357502 0.8995419777657593 0.936437029531656     O
O     0.7684619785924744 0.8971077029710508 0.9748871089237084     O
N     0.8436749289358726 0.023419082798734295 0.2782709346530157     N
O     0.8266435790794433 0.021064133574402885 0.2755575925090665     O
O     0.8535806843508569 0.04017964105723415 0.25960942977546786     O
N     0.8436743264220691 0.2782702747008354 0.023416383878166115     N
O     0.8545860969014779 0.2587994309153925 0.016369851685576687     O
O     0.8256364183293521 0.27636657802109055 0.04486640753092821     O
N     0.8436749276613784 0.27826993053809024 0.3546352665837087     N
O     0.8266440030402831 0.2755566776735563 0.37673516430409454     O
O     0.8535802566920594 0.25960833267148253 0.34663070881604935     O
N     0.8740169633974898 0.06826879824124732 0.7386785810724152     N
O     0.8887137838631515 0.064685624588844 0.7172980919453501     O
O     0.8540715221494299 0.06206960154950758 0.749167557350378     O
N     0.8740151514960397 0.7386790817566347 0.8190338028549176     N
O     0.8887104214566313 0.7172978955749301 0.8293017956954609     O
O     0.8540696273068424 0.7491692064607718 0.8346885353701418     O
N     0.8740211300259418 0.7386777345228136 0.06826630673645834     N
O     0.8611410235062114 0.7234747759772562 0.08238742382840157     O
O     0.8816554705086206 0.7429884170468362 0.044361114091005405     O
N     0.8848399612755299 0.1099932909136299 0.2127894306455284     N
O     0.8966424064874708 0.10048327128119795 0.19492491594255035     O
O     0.8605434622402314 0.1181990886911986 0.21937554935126935     O
N     0.884842378982771 0.21278757772334264 0.10999140135630772     N
O     0.8790895206581181 0.1932056792052439 0.12785002004446808     O
O     0.8781033630698946 0.22108940981741781 0.09082775886898754     O
N     0.8848432380031158 0.21278748442934786 0.2923769249488993     N
O     0.8966475712749005 0.19492395021151954 0.3079477361855821     O
O     0.8605469033993164 0.21937176962714838 0.30188333331029843     O
N     0.8925199226866969 0.7761314485184994 0.3946147209344905     N
O     0.8997776423981205 0.7595046717473086 0.413762223144242     O
O     0.8690989710651099 0.7901812142302108 0.40017283252500047     O
N     0.8925173526465364 0.7761353912196806 0.43673271506505273     N
O     0.8793393875804333 0.7613265754995467 0.4525672051197216     O
O     0.8895297688870881 0.788369848753141 0.41493358188243396     O
N     0.8925211421222881 0.3946149193882676 0.43673262617054354     N
O     0.8997792657538799 0.4137620915553097 0.42695449633073446     O
O     0.8690999844037829 0.4001735399294347 0.4405460327431663     O
N     0.8925230659687324 0.3946155428294095 0.7761294580661192     N
O     0.8793466619597509 0.4067692275229726 0.7613189970096516     O
O     0.8895381702564742 0.4071682128821115 0.7883620151609669     O
N     0.8925225785792308 0.4367297531794965 0.39461527780971756     N
O     0.8793456699603792 0.4525628043938569 0.40676913985593033     O
O     0.8895377480906206 0.41492938866948637 0.40716753159202407     O
N     0.8925216900756543 0.4367318182819095 0.7761293997185296     N
O     0.8997802344925376 0.42695357156723257 0.7595021884208899     O
O     0.8691006055569738 0.44054461341019424 0.790178654453648     O
N     0.8953212286955601 0.28630643886251805 0.6378209981420722     N
O     0.8782218598470619 0.3083661902551973 0.6354912854667741     O
O     0.8984852712558196 0.2743502990661506 0.6595340629663652     O
N     0.8953207090030113 0.28630704967851617 0.68054993333797     N
O     0.9024910142654383 0.2997280796933344 0.6570665789581617     O
O     0.8742146089446231 0.2829892804069696 0.6884821902992129     O
N     0.8953222048081722 0.6378206968590038 0.286307787587322     N
O     0.9024942812020993 0.6407117234530445 0.29972805573519584     O
O     0.874215682100711 0.6543127508044373 0.28299144541445215     O
N     0.8953233302887852 0.6805464541915408 0.28630697149656753     N
O     0.8782234032867211 0.6779153274104656 0.3083663791961844     O
O     0.8984898256086786 0.6676242485802147 0.2743507540584606     O
N     0.8953227484362523 0.637820688265363 0.6805487352335704     N
O     0.8782229780155943 0.6354911167550623 0.67791856282547     O
O     0.8984876611197967 0.6595333325678896 0.6676267301207144     O
N     0.8953226420216849 0.6805487390863315 0.6378204232257988     N
O     0.9024940564831478 0.6570655583096301 0.6407111754875373     O
O     0.874216273889374 0.6884797458153771 0.6543125048206248     O
N     0.9048876769832888 0.7815411590901982 0.9513765106592591     N
O     0.9160597319083792 0.7580962257832962 0.9529534788978169     O
O     0.8805884523369051 0.7891304883157194 0.9583697512360788     O
N     0.904886629384178 0.781543879679383 0.8621942822691921     N
O     0.8995402239891462 0.7787702171213632 0.8852559480863971     O
O     0.89710492063746 0.768463489283363 0.8595466499998593     O
N     0.9048859443212377 0.9513740014852504 0.8621937998733944     N
O     0.9160564807947642 0.9529504471596106 0.8728916325416575     O
O     0.8805866761152759 0.9583664040916968 0.8719095658686522     O
