# Generated by pormake.
# Topology fcu, (12)-cn, num edge types: 1
# Building blocks:
#     Node 0, Type 0, BuildingBlock: MOF-804_sbu_0, # of connection points: 12
#     Node 1, Type 0, BuildingBlock: MOF-804_sbu_0, # of connection points: 12
#     Node 2, Type 0, BuildingBlock: MOF-804_sbu_0, # of connection points: 12
#     Node 3, Type 0, BuildingBlock: MOF-804_sbu_0, # of connection points: 12
#     Edge 4, Type (0, 0), BuildingBlock: H2NDC-(OH)2_final, # of connection points: 2
#     Edge 5, Type (0, 0), BuildingBlock: H2NDC-(OH)2_final, # of connection points: 2
#     Edge 6, Type (0, 0), BuildingBlock: H2NDC-(OH)2_final, # of connection points: 2
#     Edge 7, Type (0, 0), BuildingBlock: H2NDC-(OH)2_final, # of connection points: 2
#     Edge 8, Type (0, 0), BuildingBlock: H2NDC-(OH)2_final, # of connection points: 2
#     Edge 9, Type (0, 0), BuildingBlock: H2NDC-(OH)2_final, # of connection points: 2
#     Edge 10, Type (0, 0), BuildingBlock: H2NDC-(OH)2_final, # of connection points: 2
#     Edge 11, Type (0, 0), BuildingBlock: H2NDC-(OH)2_final, # of connection points: 2
#     Edge 12, Type (0, 0), BuildingBlock: H2NDC-(OH)2_final, # of connection points: 2
#     Edge 13, Type (0, 0), BuildingBlock: H2NDC-(OH)2_final, # of connection points: 2
#     Edge 14, Type (0, 0), BuildingBlock: H2NDC-(OH)2_final, # of connection points: 2
#     Edge 15, Type (0, 0), BuildingBlock: H2NDC-(OH)2_final, # of connection points: 2
#     Edge 16, Type (0, 0), BuildingBlock: H2NDC-(OH)2_final, # of connection points: 2
#     Edge 17, Type (0, 0), BuildingBlock: H2NDC-(OH)2_final, # of connection points: 2
#     Edge 18, Type (0, 0), BuildingBlock: H2NDC-(OH)2_final, # of connection points: 2
#     Edge 19, Type (0, 0), BuildingBlock: H2NDC-(OH)2_final, # of connection points: 2
#     Edge 20, Type (0, 0), BuildingBlock: H2NDC-(OH)2_final, # of connection points: 2
#     Edge 21, Type (0, 0), BuildingBlock: H2NDC-(OH)2_final, # of connection points: 2
#     Edge 22, Type (0, 0), BuildingBlock: H2NDC-(OH)2_final, # of connection points: 2
#     Edge 23, Type (0, 0), BuildingBlock: H2NDC-(OH)2_final, # of connection points: 2
#     Edge 24, Type (0, 0), BuildingBlock: H2NDC-(OH)2_final, # of connection points: 2
#     Edge 25, Type (0, 0), BuildingBlock: H2NDC-(OH)2_final, # of connection points: 2
#     Edge 26, Type (0, 0), BuildingBlock: H2NDC-(OH)2_final, # of connection points: 2
#     Edge 27, Type (0, 0), BuildingBlock: H2NDC-(OH)2_final, # of connection points: 2
# Relax obj value: 0.001
# Max RMSD: 0.020
# Mean RMSD: 0.020
data_MOF-805
_symmetry_space_group_name_H-M    P1
_symmetry_Int_Tables_number       1
_symmetry_cell_setting            triclinic
loop_
_symmetry_equiv_pos_as_xyz
'x, y, z'
_cell_length_a     23.981
_cell_length_b     23.981
_cell_length_c     23.981
_cell_angle_alpha  90.000
_cell_angle_beta   90.000
_cell_angle_gamma  90.000
loop_
_atom_site_label
_atom_site_type_symbol
_atom_site_fract_x
_atom_site_fract_y
_atom_site_fract_z
_atom_type_partial_charge
Zr0 Zr 0.10376 0.00010 0.00010 0.0
O1 O 0.05834 0.94186 0.05834 0.0
Zr2 Zr 0.00010 0.89644 0.00010 0.0
O3 O 0.04373 0.04373 0.04373 0.0
Zr4 Zr 0.00010 0.00010 0.10376 0.0
Zr5 Zr 0.00010 0.00010 0.89644 0.0
Zr6 Zr 0.00010 0.10376 0.00010 0.0
H7 H 0.08178 0.08178 0.91842 0.0
H8 H 0.08178 0.91842 0.08178 0.0
O9 O 0.04373 0.95647 0.95647 0.0
O10 O 0.05834 0.05834 0.94186 0.0
O11 O 0.94186 0.94186 0.94186 0.0
O12 O 0.95647 0.95647 0.04373 0.0
O13 O 0.95647 0.04373 0.95647 0.0
Zr14 Zr 0.89644 0.00010 0.00010 0.0
O15 O 0.94186 0.05834 0.05834 0.0
H16 H 0.91842 0.91842 0.91842 0.0
H17 H 0.91842 0.08178 0.08178 0.0
C18 C 0.13196 0.99660 0.86824 0.0
C19 C 0.13196 0.86824 0.99660 0.0
C20 C 0.00360 0.86824 0.86824 0.0
C21 C 0.99660 0.86824 0.13196 0.0
C22 C 0.86824 0.00360 0.86824 0.0
C23 C 0.86824 0.86824 0.00360 0.0
C24 C 0.99660 0.13196 0.86824 0.0
C25 C 0.13196 0.13196 0.00360 0.0
C26 C 0.13196 0.00360 0.13196 0.0
C27 C 0.00360 0.13196 0.13196 0.0
C28 C 0.86824 0.13196 0.99660 0.0
C29 C 0.86824 0.99660 0.13196 0.0
O30 O 0.14805 0.99786 0.91904 0.0
O31 O 0.14805 0.91904 0.99786 0.0
O32 O 0.08116 0.99787 0.85215 0.0
O33 O 0.08116 0.85215 0.99786 0.0
O34 O 0.00233 0.91904 0.85215 0.0
O35 O 0.00234 0.85215 0.91904 0.0
O36 O 0.99787 0.85215 0.08116 0.0
O37 O 0.91904 0.00233 0.85215 0.0
O38 O 0.91904 0.85215 0.00234 0.0
O39 O 0.14805 0.08116 0.00234 0.0
O40 O 0.14805 0.00233 0.08116 0.0
O41 O 0.99787 0.08116 0.85215 0.0
O42 O 0.99787 0.91904 0.14805 0.0
O43 O 0.85215 0.00233 0.91904 0.0
O44 O 0.85215 0.91904 0.00234 0.0
O45 O 0.08116 0.14805 0.00234 0.0
O46 O 0.08116 0.00233 0.14805 0.0
O47 O 0.99787 0.14805 0.91904 0.0
O48 O 0.00234 0.14805 0.08116 0.0
O49 O 0.00233 0.08116 0.14805 0.0
O50 O 0.91904 0.14805 0.99787 0.0
O51 O 0.91904 0.99787 0.14805 0.0
O52 O 0.85215 0.08116 0.99787 0.0
O53 O 0.85215 0.99786 0.08116 0.0
Zr54 Zr 0.89644 0.50000 0.50000 0.0
O55 O 0.94186 0.55824 0.44176 0.0
Zr56 Zr 0.00010 0.50000 0.39634 0.0
O57 O 0.95647 0.54363 0.54363 0.0
Zr58 Zr 0.00010 0.60366 0.50000 0.0
Zr59 Zr 0.00010 0.39634 0.50000 0.0
Zr60 Zr 0.00010 0.50000 0.60366 0.0
H61 H 0.91842 0.41832 0.58168 0.0
H62 H 0.91842 0.58168 0.41832 0.0
O63 O 0.95647 0.45637 0.45638 0.0
O64 O 0.94186 0.44176 0.55824 0.0
O65 O 0.05834 0.44176 0.44176 0.0
O66 O 0.04373 0.54363 0.45638 0.0
O67 O 0.04373 0.45637 0.54363 0.0
Zr68 Zr 0.10376 0.50000 0.50000 0.0
O69 O 0.05834 0.55824 0.55824 0.0
H70 H 0.08178 0.41832 0.41832 0.0
H71 H 0.08178 0.58168 0.58168 0.0
C72 C 0.86824 0.36815 0.49650 0.0
C73 C 0.86824 0.49650 0.36815 0.0
C74 C 0.99660 0.36815 0.36815 0.0
C75 C 0.00360 0.63186 0.36815 0.0
C76 C 0.13196 0.36815 0.50350 0.0
C77 C 0.13196 0.50350 0.36815 0.0
C78 C 0.00360 0.36815 0.63186 0.0
C79 C 0.86824 0.50350 0.63186 0.0
C80 C 0.86824 0.63186 0.50350 0.0
C81 C 0.99660 0.63186 0.63186 0.0
C82 C 0.13196 0.49650 0.63186 0.0
C83 C 0.13196 0.63186 0.49650 0.0
O84 O 0.85215 0.41894 0.49777 0.0
O85 O 0.85215 0.49777 0.41894 0.0
O86 O 0.91904 0.35205 0.49777 0.0
O87 O 0.91904 0.49777 0.35205 0.0
O88 O 0.99787 0.35205 0.41894 0.0
O89 O 0.99786 0.41894 0.35205 0.0
O90 O 0.00233 0.58106 0.35205 0.0
O91 O 0.08116 0.35205 0.50224 0.0
O92 O 0.08116 0.50224 0.35205 0.0
O93 O 0.85215 0.50224 0.58106 0.0
O94 O 0.85215 0.58106 0.50224 0.0
O95 O 0.00233 0.35205 0.58106 0.0
O96 O 0.00233 0.64795 0.41894 0.0
O97 O 0.14805 0.41894 0.50224 0.0
O98 O 0.14805 0.50224 0.41894 0.0
O99 O 0.91904 0.50224 0.64795 0.0
O100 O 0.91904 0.64795 0.50224 0.0
O101 O 0.00233 0.41894 0.64795 0.0
O102 O 0.99786 0.58106 0.64795 0.0
O103 O 0.99787 0.64795 0.58106 0.0
O104 O 0.08116 0.49777 0.64795 0.0
O105 O 0.08116 0.64795 0.49777 0.0
O106 O 0.14805 0.49777 0.58106 0.0
O107 O 0.14805 0.58106 0.49777 0.0
Zr108 Zr 0.60366 0.00010 0.50000 0.0
O109 O 0.55824 0.94186 0.55824 0.0
Zr110 Zr 0.50000 0.89644 0.50000 0.0
O111 O 0.54363 0.04373 0.54363 0.0
Zr112 Zr 0.50000 0.00010 0.60366 0.0
Zr113 Zr 0.50000 0.00010 0.39634 0.0
Zr114 Zr 0.50000 0.10376 0.50000 0.0
H115 H 0.58168 0.08178 0.41832 0.0
H116 H 0.58168 0.91842 0.58168 0.0
O117 O 0.54363 0.95647 0.45637 0.0
O118 O 0.55824 0.05834 0.44176 0.0
O119 O 0.44176 0.94186 0.44176 0.0
O120 O 0.45637 0.95647 0.54363 0.0
O121 O 0.45637 0.04373 0.45637 0.0
Zr122 Zr 0.39634 0.00010 0.50000 0.0
O123 O 0.44176 0.05834 0.55824 0.0
H124 H 0.41832 0.91842 0.41832 0.0
H125 H 0.41832 0.08178 0.58168 0.0
C126 C 0.63186 0.99660 0.36815 0.0
C127 C 0.63186 0.86824 0.49650 0.0
C128 C 0.50350 0.86824 0.36815 0.0
C129 C 0.49650 0.86824 0.63186 0.0
C130 C 0.36814 0.00360 0.36815 0.0
C131 C 0.36814 0.86824 0.50350 0.0
C132 C 0.49650 0.13196 0.36815 0.0
C133 C 0.63186 0.13196 0.50350 0.0
C134 C 0.63186 0.00360 0.63186 0.0
C135 C 0.50350 0.13196 0.63186 0.0
C136 C 0.36814 0.13196 0.49650 0.0
C137 C 0.36814 0.99660 0.63186 0.0
O138 O 0.64795 0.99786 0.41894 0.0
O139 O 0.64795 0.91904 0.49777 0.0
O140 O 0.58106 0.99787 0.35205 0.0
O141 O 0.58106 0.85215 0.49777 0.0
O142 O 0.50224 0.91904 0.35205 0.0
O143 O 0.50224 0.85215 0.41894 0.0
O144 O 0.49777 0.85215 0.58106 0.0
O145 O 0.41894 0.00233 0.35205 0.0
O146 O 0.41894 0.85215 0.50224 0.0
O147 O 0.64795 0.08116 0.50224 0.0
O148 O 0.64795 0.00233 0.58106 0.0
O149 O 0.49777 0.08116 0.35205 0.0
O150 O 0.49777 0.91904 0.64795 0.0
O151 O 0.35205 0.00233 0.41894 0.0
O152 O 0.35205 0.91904 0.50224 0.0
O153 O 0.58106 0.14805 0.50224 0.0
O154 O 0.58106 0.00233 0.64795 0.0
O155 O 0.49777 0.14805 0.41894 0.0
O156 O 0.50224 0.14805 0.58106 0.0
O157 O 0.50224 0.08116 0.64795 0.0
O158 O 0.41894 0.14805 0.49777 0.0
O159 O 0.41894 0.99787 0.64795 0.0
O160 O 0.35205 0.08116 0.49777 0.0
O161 O 0.35205 0.99786 0.58106 0.0
Zr162 Zr 0.60366 0.50000 0.00010 0.0
O163 O 0.55824 0.44176 0.05834 0.0
Zr164 Zr 0.50000 0.39634 0.00010 0.0
O165 O 0.54363 0.54363 0.04373 0.0
Zr166 Zr 0.50000 0.50000 0.10376 0.0
Zr167 Zr 0.50000 0.50000 0.89644 0.0
Zr168 Zr 0.50000 0.60366 0.00010 0.0
H169 H 0.58168 0.58168 0.91842 0.0
H170 H 0.58168 0.41832 0.08178 0.0
O171 O 0.54363 0.45637 0.95647 0.0
O172 O 0.55824 0.55824 0.94186 0.0
O173 O 0.44176 0.44176 0.94186 0.0
O174 O 0.45637 0.45637 0.04373 0.0
O175 O 0.45637 0.54363 0.95647 0.0
Zr176 Zr 0.39634 0.50000 0.00010 0.0
O177 O 0.44176 0.55824 0.05834 0.0
H178 H 0.41832 0.41832 0.91842 0.0
H179 H 0.41832 0.58168 0.08178 0.0
C180 C 0.63186 0.49650 0.86824 0.0
C181 C 0.63186 0.36815 0.99660 0.0
C182 C 0.50350 0.36815 0.86824 0.0
C183 C 0.49650 0.36815 0.13196 0.0
C184 C 0.36814 0.50350 0.86824 0.0
C185 C 0.36814 0.36815 0.00360 0.0
C186 C 0.49650 0.63186 0.86824 0.0
C187 C 0.63186 0.63186 0.00360 0.0
C188 C 0.63186 0.50350 0.13196 0.0
C189 C 0.50350 0.63186 0.13196 0.0
C190 C 0.36814 0.63186 0.99660 0.0
C191 C 0.36814 0.49650 0.13196 0.0
O192 O 0.64795 0.49777 0.91904 0.0
O193 O 0.64795 0.41894 0.99786 0.0
O194 O 0.58106 0.49777 0.85215 0.0
O195 O 0.58106 0.35205 0.99786 0.0
O196 O 0.50224 0.41894 0.85215 0.0
O197 O 0.50224 0.35205 0.91904 0.0
O198 O 0.49777 0.35205 0.08116 0.0
O199 O 0.41894 0.50224 0.85215 0.0
O200 O 0.41894 0.35205 0.00234 0.0
O201 O 0.64795 0.58106 0.00234 0.0
O202 O 0.64795 0.50224 0.08116 0.0
O203 O 0.49777 0.58106 0.85215 0.0
O204 O 0.49777 0.41894 0.14805 0.0
O205 O 0.35205 0.50224 0.91904 0.0
O206 O 0.35205 0.41894 0.00234 0.0
O207 O 0.58106 0.64795 0.00234 0.0
O208 O 0.58106 0.50224 0.14805 0.0
O209 O 0.49777 0.64795 0.91904 0.0
O210 O 0.50224 0.64795 0.08116 0.0
O211 O 0.50224 0.58106 0.14805 0.0
O212 O 0.41894 0.64795 0.99787 0.0
O213 O 0.41894 0.49777 0.14805 0.0
O214 O 0.35205 0.58106 0.99787 0.0
O215 O 0.35205 0.49777 0.08116 0.0
C216 C 0.00221 0.17753 0.17135 0.0
C217 C 0.01445 0.17527 0.22909 0.0
C218 C 0.00904 0.22424 0.26251 0.0
C219 C 0.99139 0.27499 0.23761 0.0
C220 C 0.98488 0.22818 0.14787 0.0
C221 C 0.97956 0.27592 0.18023 0.0
O222 O 0.03112 0.12588 0.25083 0.0
C223 C 0.02066 0.22418 0.31994 0.0
C224 C 0.01510 0.27237 0.35168 0.0
C225 C 0.99771 0.32318 0.32813 0.0
C226 C 0.98565 0.32429 0.26984 0.0
O227 O 0.96861 0.37093 0.24287 0.0
H228 H 0.04066 0.11872 0.28919 0.0
H229 H 0.96270 0.40734 0.25841 0.0
H230 H 0.97524 0.23113 0.10384 0.0
H231 H 0.96599 0.31377 0.15967 0.0
H232 H 0.03425 0.18741 0.34192 0.0
H233 H 0.02475 0.26939 0.39571 0.0
C234 C 0.82868 0.99363 0.17735 0.0
C235 C 0.77298 0.01325 0.17652 0.0
C236 C 0.73900 0.00816 0.22514 0.0
C237 C 0.76131 0.98343 0.27410 0.0
C238 C 0.84962 0.96939 0.22624 0.0
C239 C 0.81671 0.96436 0.27364 0.0
O240 O 0.75367 0.03651 0.12881 0.0
C241 C 0.68352 0.02696 0.22646 0.0
C242 C 0.65120 0.02158 0.27428 0.0
C243 C 0.67219 0.99727 0.32334 0.0
C244 C 0.72848 0.97784 0.32303 0.0
O245 O 0.75293 0.95377 0.36792 0.0
H246 H 0.71686 0.05139 0.12273 0.0
H247 H 0.73666 0.94695 0.40385 0.0
H248 H 0.89206 0.95402 0.22807 0.0
H249 H 0.83527 0.94526 0.31011 0.0
H250 H 0.66355 0.04617 0.19108 0.0
H251 H 0.60876 0.03696 0.27243 0.0
C252 C 0.00111 0.82637 0.17491 0.0
C253 C 0.95851 0.79268 0.19811 0.0
C254 C 0.97179 0.75303 0.24048 0.0
C255 C 0.02773 0.74760 0.25913 0.0
C256 C 0.05598 0.82014 0.19410 0.0
C257 C 0.06908 0.78161 0.23532 0.0
O258 O 0.90582 0.79945 0.17890 0.0
C259 C 0.93106 0.71864 0.26481 0.0
C260 C 0.94495 0.68031 0.30602 0.0
C261 C 0.99990 0.67405 0.32528 0.0
C262 C 0.04212 0.70853 0.30119 0.0
O263 O 0.09642 0.70600 0.31659 0.0
H264 H 0.87324 0.77934 0.19105 0.0
H265 H 0.11289 0.68209 0.34415 0.0
H266 H 0.08940 0.84534 0.17712 0.0
H267 H 0.11222 0.77876 0.24839 0.0
H268 H 0.88774 0.72021 0.25297 0.0
H269 H 0.91151 0.65513 0.32298 0.0
C270 C 0.32804 0.00767 0.32329 0.0
C271 C 0.27753 0.97738 0.31892 0.0
C272 C 0.24221 0.98523 0.27165 0.0
C273 C 0.25797 0.02342 0.22923 0.0
C274 C 0.34258 0.04511 0.28081 0.0
C275 C 0.30833 0.05287 0.23474 0.0
O276 O 0.26438 0.94145 0.36048 0.0
C277 C 0.19170 0.95620 0.26535 0.0
C278 C 0.15796 0.96450 0.21896 0.0
C279 C 0.17252 0.00205 0.17633 0.0
C280 C 0.22366 0.03205 0.18179 0.0
O281 O 0.24175 0.06922 0.14326 0.0
H282 H 0.23150 0.91847 0.36262 0.0
H283 H 0.22367 0.07976 0.10914 0.0
H284 H 0.38094 0.06883 0.28304 0.0
H285 H 0.32184 0.08236 0.20332 0.0
H286 H 0.17682 0.92653 0.29565 0.0
H287 H 0.11959 0.94076 0.21675 0.0
C288 C 0.00010 0.82360 0.82801 0.0
C289 C 0.03159 0.81684 0.77841 0.0
C290 C 0.02122 0.77021 0.74288 0.0
C291 C 0.97949 0.73083 0.75752 0.0
C292 C 0.95930 0.78409 0.84145 0.0
C293 C 0.94909 0.73866 0.80700 0.0
O294 O 0.07091 0.85554 0.76630 0.0
C295 C 0.05115 0.76163 0.69324 0.0
C296 C 0.04036 0.71591 0.65927 0.0
C297 C 0.99990 0.67627 0.67274 0.0
C298 C 0.96831 0.68409 0.72298 0.0
O299 O 0.92783 0.64852 0.73997 0.0
H300 H 0.09494 0.85586 0.73412 0.0
H301 H 0.91528 0.61525 0.72160 0.0
H302 H 0.93471 0.78820 0.87911 0.0
H303 H 0.91692 0.70959 0.81964 0.0
H304 H 0.08344 0.78956 0.67923 0.0
H305 H 0.06497 0.71182 0.62162 0.0
C306 C 0.17683 0.99255 0.82816 0.0
C307 C 0.18104 0.02261 0.77749 0.0
C308 C 0.22835 0.01482 0.74221 0.0
C309 C 0.27097 0.97693 0.75817 0.0
C310 C 0.21950 0.95541 0.84288 0.0
C311 C 0.26561 0.94771 0.80868 0.0
O312 O 0.13929 0.05825 0.76415 0.0
C313 C 0.23450 0.04362 0.69155 0.0
C314 C 0.28094 0.03538 0.65785 0.0
C315 C 0.32376 0.99813 0.67261 0.0
C316 C 0.31846 0.96837 0.72391 0.0
O317 O 0.35718 0.93149 0.74218 0.0
H318 H 0.13704 0.08105 0.73116 0.0
H319 H 0.39135 0.92104 0.72416 0.0
H320 H 0.21739 0.93188 0.88138 0.0
H321 H 0.29718 0.91845 0.82234 0.0
H322 H 0.20405 0.07305 0.67652 0.0
H323 H 0.28303 0.05893 0.61936 0.0
C324 C 0.00363 0.32238 0.67113 0.0
C325 C 0.00210 0.32645 0.73004 0.0
C326 C 0.00010 0.27701 0.76316 0.0
C327 C 0.99990 0.22399 0.73679 0.0
C328 C 0.00331 0.26950 0.64621 0.0
C329 C 0.00152 0.22130 0.67827 0.0
O330 O 0.00244 0.37798 0.75316 0.0
C331 C 0.99868 0.27880 0.82170 0.0
C332 C 0.99690 0.23012 0.85312 0.0
C333 C 0.99658 0.17707 0.82813 0.0
C334 C 0.99815 0.17417 0.76868 0.0
O335 O 0.99800 0.12532 0.74028 0.0
H336 H 0.00153 0.38651 0.79241 0.0
H337 H 0.99688 0.08829 0.75542 0.0
H338 H 0.00446 0.26514 0.60127 0.0
H339 H 0.00136 0.18170 0.65658 0.0
H340 H 0.99878 0.31733 0.84482 0.0
H341 H 0.99575 0.23451 0.89806 0.0
C342 C 0.67354 0.00900 0.67513 0.0
C343 C 0.70867 0.96582 0.69488 0.0
C344 C 0.74798 0.97701 0.73817 0.0
C345 C 0.75161 0.03145 0.76119 0.0
C346 C 0.67802 0.06235 0.69860 0.0
C347 C 0.71620 0.07341 0.74073 0.0
O348 O 0.70359 0.91463 0.67156 0.0
C349 C 0.78375 0.93564 0.75920 0.0
C350 C 0.82170 0.94748 0.80138 0.0
C351 C 0.82621 0.00010 0.82494 0.0
C352 C 0.79030 0.04374 0.80426 0.0
O353 O 0.79109 0.09671 0.82391 0.0
H354 H 0.72479 0.88187 0.68109 0.0
H355 H 0.81451 0.11173 0.85268 0.0
H356 H 0.65169 0.09616 0.68432 0.0
H357 H 0.71767 0.11545 0.75717 0.0
H358 H 0.78357 0.89336 0.74397 0.0
H359 H 0.84802 0.91365 0.81564 0.0
C360 C 0.32329 0.32804 0.00767 0.0
C361 C 0.31892 0.27753 0.97738 0.0
C362 C 0.27165 0.24221 0.98523 0.0
C363 C 0.22923 0.25797 0.02342 0.0
C364 C 0.28081 0.34258 0.04511 0.0
C365 C 0.23474 0.30833 0.05287 0.0
O366 O 0.36048 0.26438 0.94145 0.0
C367 C 0.26535 0.19170 0.95620 0.0
C368 C 0.21896 0.15796 0.96450 0.0
C369 C 0.17633 0.17252 0.00205 0.0
C370 C 0.18178 0.22367 0.03205 0.0
O371 O 0.14326 0.24175 0.06922 0.0
H372 H 0.36262 0.23151 0.91847 0.0
H373 H 0.10914 0.22367 0.07976 0.0
H374 H 0.28304 0.38095 0.06883 0.0
H375 H 0.20332 0.32184 0.08236 0.0
H376 H 0.29565 0.17682 0.92653 0.0
H377 H 0.21674 0.11959 0.94076 0.0
C378 C 0.32804 0.67671 0.99877 0.0
C379 C 0.27753 0.68108 0.96847 0.0
C380 C 0.24221 0.72835 0.97632 0.0
C381 C 0.25797 0.77077 0.01452 0.0
C382 C 0.34258 0.71919 0.03620 0.0
C383 C 0.30833 0.76526 0.04397 0.0
O384 O 0.26438 0.63952 0.93255 0.0
C385 C 0.19170 0.73465 0.94729 0.0
C386 C 0.15796 0.78104 0.95560 0.0
C387 C 0.17252 0.82367 0.99315 0.0
C388 C 0.22366 0.81822 0.02315 0.0
O389 O 0.24175 0.85674 0.06032 0.0
H390 H 0.23150 0.63739 0.90956 0.0
H391 H 0.22367 0.89087 0.07085 0.0
H392 H 0.38094 0.71696 0.05993 0.0
H393 H 0.32184 0.79668 0.07346 0.0
H394 H 0.17682 0.70435 0.91763 0.0
H395 H 0.11959 0.78326 0.93186 0.0
C396 C 0.67246 0.32379 0.99990 0.0
C397 C 0.71810 0.31455 0.96306 0.0
C398 C 0.75468 0.26854 0.97247 0.0
C399 C 0.74506 0.23226 0.01828 0.0
C400 C 0.66394 0.28733 0.04428 0.0
C401 C 0.69943 0.24251 0.05359 0.0
O402 O 0.72548 0.35034 0.91998 0.0
C403 C 0.80052 0.25758 0.93766 0.0
C404 C 0.83560 0.21252 0.94762 0.0
C405 C 0.82707 0.17593 0.99265 0.0
C406 C 0.78076 0.18621 0.02862 0.0
O407 O 0.76865 0.15365 0.07319 0.0
H408 H 0.75466 0.34878 0.89242 0.0
H409 H 0.78842 0.12122 0.08583 0.0
H410 H 0.62939 0.29338 0.07273 0.0
H411 H 0.69067 0.21583 0.08896 0.0
H412 H 0.81064 0.28311 0.90209 0.0
H413 H 0.87015 0.20649 0.91916 0.0
C414 C 0.82656 0.82497 0.00010 0.0
C415 C 0.79143 0.80522 0.04328 0.0
C416 C 0.75212 0.76193 0.03209 0.0
C417 C 0.74849 0.73891 0.97766 0.0
C418 C 0.82208 0.80150 0.94675 0.0
C419 C 0.78390 0.75937 0.93569 0.0
O420 O 0.79651 0.82854 0.09448 0.0
C421 C 0.71635 0.74090 0.07346 0.0
C422 C 0.67840 0.69872 0.06163 0.0
C423 C 0.67389 0.67516 0.00811 0.0
C424 C 0.70980 0.69585 0.96536 0.0
O425 O 0.70901 0.67619 0.91239 0.0
H426 H 0.77531 0.81901 0.12723 0.0
H427 H 0.68559 0.64742 0.89738 0.0
H428 H 0.84841 0.81578 0.91294 0.0
H429 H 0.78243 0.74293 0.89366 0.0
H430 H 0.71653 0.75614 0.11574 0.0
H431 H 0.65208 0.68446 0.09546 0.0
C432 C 0.67196 0.49354 0.82317 0.0
C433 C 0.72281 0.52347 0.82051 0.0
C434 C 0.75802 0.51796 0.77282 0.0
C435 C 0.74180 0.48245 0.72828 0.0
C436 C 0.65698 0.45879 0.77862 0.0
C437 C 0.69111 0.45331 0.73215 0.0
O438 O 0.73639 0.55678 0.86405 0.0
C439 C 0.80885 0.54673 0.76815 0.0
C440 C 0.84247 0.54073 0.72131 0.0
C441 C 0.82747 0.50586 0.67661 0.0
C442 C 0.77599 0.47619 0.68038 0.0
O443 O 0.75746 0.44151 0.63980 0.0
H444 H 0.76953 0.57923 0.86747 0.0
H445 H 0.77540 0.43275 0.60510 0.0
H446 H 0.61835 0.43541 0.77953 0.0
H447 H 0.67726 0.42583 0.69909 0.0
H448 H 0.82409 0.57442 0.80009 0.0
H449 H 0.88111 0.56411 0.72043 0.0
C450 C 0.17682 0.49955 0.67189 0.0
C451 C 0.18145 0.47118 0.72348 0.0
C452 C 0.22863 0.48077 0.75850 0.0
C453 C 0.27070 0.51876 0.74134 0.0
C454 C 0.21896 0.53681 0.65598 0.0
C455 C 0.26494 0.54627 0.68992 0.0
O456 O 0.14022 0.43539 0.73795 0.0
C457 C 0.23517 0.45369 0.81004 0.0
C458 C 0.28147 0.46368 0.84346 0.0
C459 C 0.32375 0.50106 0.82753 0.0
C460 C 0.31804 0.52909 0.77531 0.0
O461 O 0.35623 0.56592 0.75587 0.0
H462 H 0.13828 0.41361 0.77165 0.0
H463 H 0.39025 0.57744 0.77355 0.0
H464 H 0.21653 0.55908 0.61676 0.0
H465 H 0.29609 0.57553 0.67534 0.0
H466 H 0.20514 0.42432 0.82601 0.0
H467 H 0.28388 0.44140 0.88269 0.0
C468 C 0.17207 0.50648 0.32309 0.0
C469 C 0.22280 0.47636 0.32030 0.0
C470 C 0.25804 0.48192 0.27264 0.0
C471 C 0.24198 0.51768 0.22826 0.0
C472 C 0.15725 0.54148 0.27867 0.0
C473 C 0.19141 0.54701 0.23223 0.0
O474 O 0.23624 0.44281 0.36372 0.0
C475 C 0.30875 0.45296 0.26787 0.0
C476 C 0.34241 0.45901 0.22107 0.0
C477 C 0.32756 0.49412 0.17650 0.0
C478 C 0.27620 0.52399 0.18039 0.0
O479 O 0.25783 0.55892 0.13994 0.0
H480 H 0.26928 0.42021 0.36705 0.0
H481 H 0.27581 0.56774 0.10529 0.0
H482 H 0.11871 0.56501 0.27967 0.0
H483 H 0.17767 0.57468 0.19929 0.0
H484 H 0.32387 0.42507 0.29970 0.0
H485 H 0.38095 0.43547 0.22009 0.0
C486 C 0.67755 0.50274 0.17126 0.0
C487 C 0.67411 0.50894 0.22989 0.0
C488 C 0.72339 0.50509 0.26308 0.0
C489 C 0.77562 0.49505 0.23705 0.0
C490 C 0.72966 0.49285 0.14666 0.0
C491 C 0.77770 0.48908 0.17880 0.0
O492 O 0.62332 0.51846 0.25270 0.0
C493 C 0.72220 0.51094 0.32137 0.0
C494 C 0.77071 0.50703 0.35286 0.0
C495 C 0.82299 0.49712 0.32821 0.0
C496 C 0.82526 0.49103 0.26902 0.0
O497 O 0.87334 0.48138 0.24095 0.0
H498 H 0.61527 0.52342 0.29174 0.0
H499 H 0.91016 0.47757 0.25618 0.0
H500 H 0.73353 0.48794 0.10193 0.0
H501 H 0.81670 0.48138 0.15737 0.0
H502 H 0.68428 0.51861 0.34423 0.0
H503 H 0.76681 0.51195 0.39760 0.0
C504 C 0.32791 0.82330 0.50666 0.0
C505 C 0.27834 0.81944 0.47478 0.0
C506 C 0.24280 0.77206 0.48080 0.0
C507 C 0.25740 0.72903 0.51877 0.0
C508 C 0.34130 0.78022 0.54383 0.0
C509 C 0.30684 0.73405 0.54982 0.0
O510 O 0.26628 0.86157 0.43914 0.0
C511 C 0.19320 0.76625 0.45015 0.0
C512 C 0.15922 0.71974 0.45669 0.0
C513 C 0.17264 0.67651 0.49398 0.0
C514 C 0.22285 0.68146 0.52559 0.0
O515 O 0.23980 0.64234 0.56267 0.0
H516 H 0.23412 0.86408 0.41521 0.0
H517 H 0.22142 0.60806 0.57211 0.0
H518 H 0.37893 0.78206 0.56874 0.0
H519 H 0.31945 0.70216 0.57920 0.0
H520 H 0.17922 0.79702 0.42054 0.0
H521 H 0.12159 0.71792 0.43176 0.0
C522 C 0.17132 0.32243 0.50442 0.0
C523 C 0.22939 0.32606 0.49431 0.0
C524 C 0.26273 0.27674 0.49468 0.0
C525 C 0.23740 0.22425 0.50521 0.0
C526 C 0.14741 0.27008 0.51469 0.0
C527 C 0.17969 0.22199 0.51510 0.0
O528 O 0.25154 0.37709 0.48448 0.0
C529 C 0.32048 0.27812 0.48490 0.0
C530 C 0.35213 0.22955 0.48547 0.0
C531 C 0.32816 0.17703 0.49577 0.0
C532 C 0.26953 0.17456 0.50583 0.0
O533 O 0.24214 0.12623 0.51620 0.0
H534 H 0.29016 0.38529 0.47707 0.0
H535 H 0.25757 0.08935 0.51807 0.0
H536 H 0.10312 0.26605 0.52255 0.0
H537 H 0.15880 0.18279 0.52329 0.0
H538 H 0.34279 0.31623 0.47660 0.0
H539 H 0.39642 0.23361 0.47760 0.0
C540 C 0.82345 0.67196 0.50034 0.0
C541 C 0.81809 0.72287 0.52979 0.0
C542 C 0.77110 0.75806 0.51992 0.0
C543 C 0.72996 0.74176 0.48057 0.0
C544 C 0.78222 0.65690 0.46174 0.0
C545 C 0.73643 0.69101 0.45200 0.0
O546 O 0.85845 0.73653 0.56687 0.0
C547 C 0.76386 0.80895 0.54804 0.0
C548 C 0.71776 0.84256 0.53776 0.0
C549 C 0.67639 0.82747 0.49903 0.0
C550 C 0.68282 0.77593 0.46993 0.0
O551 O 0.64553 0.75733 0.43177 0.0
H552 H 0.85983 0.76971 0.58947 0.0
H553 H 0.61177 0.77524 0.41987 0.0
H554 H 0.78523 0.61821 0.43862 0.0
H555 H 0.70600 0.67709 0.42168 0.0
H556 H 0.79317 0.82425 0.57847 0.0
H557 H 0.71477 0.88125 0.56089 0.0
C558 C 0.67756 0.17134 0.50453 0.0
C559 C 0.67407 0.22921 0.49327 0.0
C560 C 0.72336 0.26260 0.49395 0.0
C561 C 0.77565 0.23753 0.50593 0.0
C562 C 0.72972 0.14768 0.51623 0.0
C563 C 0.77777 0.18001 0.51693 0.0
O564 O 0.62322 0.25112 0.48208 0.0
C565 C 0.72212 0.32016 0.48306 0.0
C566 C 0.77065 0.35186 0.48394 0.0
C567 C 0.82298 0.32814 0.49568 0.0
C568 C 0.82531 0.26971 0.50688 0.0
O569 O 0.87345 0.24258 0.51867 0.0
H570 H 0.61513 0.28958 0.47379 0.0
H571 H 0.91028 0.25807 0.52093 0.0
H572 H 0.73363 0.10355 0.52500 0.0
H573 H 0.81682 0.15932 0.52625 0.0
H574 H 0.68416 0.34227 0.47363 0.0
H575 H 0.76671 0.39600 0.47517 0.0
C576 C 0.50074 0.32376 0.82767 0.0
C577 C 0.53678 0.31481 0.78174 0.0
C578 C 0.52744 0.26872 0.74523 0.0
C579 C 0.48200 0.23208 0.75522 0.0
C580 C 0.45621 0.28694 0.83654 0.0
C581 C 0.44697 0.24205 0.80112 0.0
O582 O 0.57951 0.35094 0.77402 0.0
C583 C 0.56197 0.25804 0.69912 0.0
C584 C 0.55209 0.21290 0.66412 0.0
C585 C 0.50742 0.17595 0.67300 0.0
C586 C 0.47174 0.18595 0.71960 0.0
O587 O 0.42753 0.15304 0.73206 0.0
H588 H 0.60685 0.34959 0.74463 0.0
H589 H 0.41499 0.12051 0.71240 0.0
H590 H 0.42799 0.29277 0.87132 0.0
H591 H 0.41189 0.21509 0.81016 0.0
H592 H 0.59726 0.28385 0.68872 0.0
H593 H 0.58033 0.20709 0.62934 0.0
C594 C 0.49100 0.82533 0.67390 0.0
C595 C 0.53512 0.80215 0.70560 0.0
C596 C 0.52369 0.75975 0.74579 0.0
C597 C 0.46807 0.74104 0.75374 0.0
C598 C 0.43650 0.80608 0.68260 0.0
C599 C 0.42519 0.76483 0.72166 0.0
O600 O 0.58743 0.82141 0.69646 0.0
C601 C 0.56596 0.73544 0.77828 0.0
C602 C 0.55386 0.69420 0.81718 0.0
C603 C 0.49919 0.67488 0.82593 0.0
C604 C 0.45551 0.69895 0.79341 0.0
O605 O 0.40139 0.68350 0.79839 0.0
H606 H 0.62089 0.80928 0.71506 0.0
H607 H 0.38605 0.65592 0.82301 0.0
H608 H 0.40195 0.82304 0.65896 0.0
H609 H 0.38224 0.75172 0.72647 0.0
H610 H 0.60915 0.74732 0.77475 0.0
H611 H 0.58843 0.67725 0.84082 0.0
C612 C 0.50237 0.67722 0.17155 0.0
C613 C 0.52262 0.67662 0.22702 0.0
C614 C 0.51737 0.72519 0.26106 0.0
C615 C 0.49183 0.77387 0.23903 0.0
C616 C 0.47734 0.72584 0.15088 0.0
C617 C 0.47215 0.77318 0.18385 0.0
O618 O 0.54664 0.62918 0.24606 0.0
C619 C 0.53678 0.72672 0.31632 0.0
C620 C 0.53123 0.77448 0.34870 0.0
C621 C 0.50612 0.82326 0.32798 0.0
C622 C 0.48607 0.82272 0.27193 0.0
O623 O 0.46122 0.86734 0.24775 0.0
H624 H 0.56200 0.62328 0.28271 0.0
H625 H 0.45418 0.90319 0.26410 0.0
H626 H 0.46148 0.72749 0.10862 0.0
H627 H 0.45243 0.80943 0.16551 0.0
H628 H 0.55661 0.69156 0.33607 0.0
H629 H 0.54710 0.77280 0.39096 0.0
C630 C 0.49523 0.17767 0.32890 0.0
C631 C 0.49830 0.17370 0.27005 0.0
C632 C 0.49751 0.22314 0.23689 0.0
C633 C 0.49364 0.27607 0.26317 0.0
C634 C 0.49144 0.23045 0.35374 0.0
C635 C 0.49065 0.27866 0.32163 0.0
O636 O 0.50194 0.12225 0.24701 0.0
C637 C 0.50045 0.22144 0.17840 0.0
C638 C 0.49961 0.27012 0.14694 0.0
C639 C 0.49580 0.32308 0.17184 0.0
C640 C 0.49276 0.32588 0.23123 0.0
O641 O 0.48900 0.37464 0.25955 0.0
H642 H 0.50427 0.11380 0.20782 0.0
H643 H 0.48793 0.41166 0.24437 0.0
H644 H 0.48904 0.23475 0.39864 0.0
H645 H 0.48766 0.31819 0.34325 0.0
H646 H 0.50345 0.18298 0.15535 0.0
H647 H 0.50201 0.26580 0.10204 0.0
loop_
_geom_bond_atom_site_label_1
_geom_bond_atom_site_label_2
_geom_bond_distance
_geom_bond_site_symmetry_2
_ccdc_geom_bond_type
Zr0 O1 2.256 1_545 S
Zr0 O3 2.064 . S
Zr0 O9 2.064 1_544 S
Zr0 O10 2.256 1_554 S
Zr0 O30 2.216 1_544 S
Zr0 O31 2.216 1_544 S
Zr0 O39 2.216 . S
Zr0 O40 2.216 . S
O1 Zr0 2.256 1_565 S
O1 Zr2 2.256 . S
O1 Zr4 2.256 1_565 S
O1 H8 0.974 . S
Zr2 O1 2.256 . S
Zr2 O9 2.064 1_554 S
Zr2 O11 2.256 1_454 S
Zr2 O12 2.064 1_455 S
Zr2 O33 2.216 1_554 S
Zr2 O35 2.216 1_554 S
Zr2 O36 2.216 1_455 S
Zr2 O38 2.216 1_455 S
O3 Zr0 2.064 . S
O3 Zr4 2.064 . S
O3 Zr6 2.064 . S
Zr4 O1 2.256 1_545 S
Zr4 O3 2.064 . S
Zr4 O12 2.064 1_445 S
Zr4 O15 2.256 1_455 S
Zr4 O42 2.216 1_445 S
Zr4 O46 2.216 . S
Zr4 O49 2.216 . S
Zr4 O51 2.216 1_445 S
Zr5 O9 2.064 1_545 S
Zr5 O10 2.256 . S
Zr5 O11 2.256 1_445 S
Zr5 O13 2.064 1_455 S
Zr5 O32 2.216 1_545 S
Zr5 O34 2.216 1_545 S
Zr5 O37 2.216 1_455 S
Zr5 O41 2.216 1_455 S
Zr6 O3 2.064 . S
Zr6 O10 2.256 1_554 S
Zr6 O13 2.064 1_454 S
Zr6 O15 2.256 1_455 S
Zr6 O45 2.216 . S
Zr6 O47 2.216 1_454 S
Zr6 O48 2.216 . S
Zr6 O50 2.216 1_454 S
H7 O10 0.974 . S
H8 O1 0.974 . S
O9 Zr0 2.064 1_566 S
O9 Zr2 2.064 1_556 S
O9 Zr5 2.064 1_565 S
O10 Zr0 2.256 1_556 S
O10 Zr5 2.256 . S
O10 Zr6 2.256 1_556 S
O10 H7 0.974 . S
O11 Zr2 2.256 1_656 S
O11 Zr5 2.256 1_665 S
O11 Zr14 2.256 1_566 S
O11 H16 0.974 . S
O12 Zr2 2.064 1_655 S
O12 Zr4 2.064 1_665 S
O12 Zr14 2.064 1_565 S
O13 Zr5 2.064 1_655 S
O13 Zr6 2.064 1_656 S
O13 Zr14 2.064 1_556 S
Zr14 O11 2.256 1_544 S
Zr14 O12 2.064 1_545 S
Zr14 O13 2.064 1_554 S
Zr14 O15 2.256 . S
Zr14 O43 2.216 1_554 S
Zr14 O44 2.216 1_545 S
Zr14 O52 2.216 1_554 S
Zr14 O53 2.216 1_545 S
O15 Zr4 2.256 1_655 S
O15 Zr6 2.256 1_655 S
O15 Zr14 2.256 . S
O15 H17 0.974 . S
H16 O11 0.974 . S
H17 O15 0.974 . S
C18 O30 1.278 . S
C18 O32 1.278 . S
C19 O31 1.278 . S
C19 O33 1.278 . S
C20 O34 1.278 . S
C20 O35 1.278 . S
C21 O36 1.278 . S
C21 O42 1.278 . S
C22 O37 1.278 . S
C22 O43 1.278 . S
C23 O38 1.278 . S
C23 O44 1.278 . S
C24 O41 1.278 . S
C24 O47 1.278 . S
C25 O39 1.278 . S
C25 O45 1.278 . S
C26 O40 1.278 . S
C26 O46 1.278 . S
C27 O48 1.278 . S
C27 O49 1.278 . S
C28 O50 1.278 . S
C28 O52 1.278 . S
C29 O51 1.278 . S
C29 O53 1.278 . S
O30 Zr0 2.216 1_566 S
O30 C18 1.278 . S
O31 Zr0 2.216 1_566 S
O31 C19 1.278 . S
O32 Zr5 2.216 1_565 S
O32 C18 1.278 . S
O33 Zr2 2.216 1_556 S
O33 C19 1.278 . S
O34 Zr5 2.216 1_565 S
O34 C20 1.278 . S
O35 Zr2 2.216 1_556 S
O35 C20 1.278 . S
O36 Zr2 2.216 1_655 S
O36 C21 1.278 . S
O37 Zr5 2.216 1_655 S
O37 C22 1.278 . S
O38 Zr2 2.216 1_655 S
O38 C23 1.278 . S
O39 Zr0 2.216 . S
O39 C25 1.278 . S
O40 Zr0 2.216 . S
O40 C26 1.278 . S
O41 Zr5 2.216 1_655 S
O41 C24 1.278 . S
O42 Zr4 2.216 1_665 S
O42 C21 1.278 . S
O43 Zr14 2.216 1_556 S
O43 C22 1.278 . S
O44 Zr14 2.216 1_565 S
O44 C23 1.278 . S
O45 Zr6 2.216 . S
O45 C25 1.278 . S
O46 Zr4 2.216 . S
O46 C26 1.278 . S
O47 Zr6 2.216 1_656 S
O47 C24 1.278 . S
O48 Zr6 2.216 . S
O48 C27 1.278 . S
O49 Zr4 2.216 . S
O49 C27 1.278 . S
O50 Zr6 2.216 1_656 S
O50 C28 1.278 . S
O51 Zr4 2.216 1_665 S
O51 C29 1.278 . S
O52 Zr14 2.216 1_556 S
O52 C28 1.278 . S
O53 Zr14 2.216 1_565 S
O53 C29 1.278 . S
Zr54 O55 2.256 . S
Zr54 O57 2.064 . S
Zr54 O63 2.064 . S
Zr54 O64 2.256 . S
Zr54 O84 2.216 . S
Zr54 O85 2.216 . S
Zr54 O93 2.216 . S
Zr54 O94 2.216 . S
O55 Zr54 2.256 . S
O55 Zr56 2.256 1_655 S
O55 Zr58 2.256 1_655 S
O55 H62 0.974 . S
Zr56 O55 2.256 1_455 S
Zr56 O63 2.064 1_455 S
Zr56 O65 2.256 . S
Zr56 O66 2.064 . S
Zr56 O87 2.216 1_455 S
Zr56 O89 2.216 1_455 S
Zr56 O90 2.216 . S
Zr56 O92 2.216 . S
O57 Zr54 2.064 . S
O57 Zr58 2.064 1_655 S
O57 Zr60 2.064 1_655 S
Zr58 O55 2.256 1_455 S
Zr58 O57 2.064 1_455 S
Zr58 O66 2.064 . S
Zr58 O69 2.256 . S
Zr58 O96 2.216 . S
Zr58 O100 2.216 1_455 S
Zr58 O103 2.216 1_455 S
Zr58 O105 2.216 . S
Zr59 O63 2.064 1_455 S
Zr59 O64 2.256 1_455 S
Zr59 O65 2.256 . S
Zr59 O67 2.064 . S
Zr59 O86 2.216 1_455 S
Zr59 O88 2.216 1_455 S
Zr59 O91 2.216 . S
Zr59 O95 2.216 . S
Zr60 O57 2.064 1_455 S
Zr60 O64 2.256 1_455 S
Zr60 O67 2.064 . S
Zr60 O69 2.256 . S
Zr60 O99 2.216 1_455 S
Zr60 O101 2.216 . S
Zr60 O102 2.216 1_455 S
Zr60 O104 2.216 . S
H61 O64 0.974 . S
H62 O55 0.974 . S
O63 Zr54 2.064 . S
O63 Zr56 2.064 1_655 S
O63 Zr59 2.064 1_655 S
O64 Zr54 2.256 . S
O64 Zr59 2.256 1_655 S
O64 Zr60 2.256 1_655 S
O64 H61 0.974 . S
O65 Zr56 2.256 . S
O65 Zr59 2.256 . S
O65 Zr68 2.256 . S
O65 H70 0.974 . S
O66 Zr56 2.064 . S
O66 Zr58 2.064 . S
O66 Zr68 2.064 . S
O67 Zr59 2.064 . S
O67 Zr60 2.064 . S
O67 Zr68 2.064 . S
Zr68 O65 2.256 . S
Zr68 O66 2.064 . S
Zr68 O67 2.064 . S
Zr68 O69 2.256 . S
Zr68 O97 2.216 . S
Zr68 O98 2.216 . S
Zr68 O106 2.216 . S
Zr68 O107 2.216 . S
O69 Zr58 2.256 . S
O69 Zr60 2.256 . S
O69 Zr68 2.256 . S
O69 H71 0.974 . S
H70 O65 0.974 . S
H71 O69 0.974 . S
C72 O84 1.278 . S
C72 O86 1.278 . S
C73 O85 1.278 . S
C73 O87 1.278 . S
C74 O88 1.278 . S
C74 O89 1.278 . S
C75 O90 1.278 . S
C75 O96 1.278 . S
C76 O91 1.278 . S
C76 O97 1.278 . S
C77 O92 1.278 . S
C77 O98 1.278 . S
C78 O95 1.278 . S
C78 O101 1.278 . S
C79 O93 1.278 . S
C79 O99 1.278 . S
C80 O94 1.278 . S
C80 O100 1.278 . S
C81 O102 1.278 . S
C81 O103 1.278 . S
C82 O104 1.278 . S
C82 O106 1.278 . S
C83 O105 1.278 . S
C83 O107 1.278 . S
O84 Zr54 2.216 . S
O84 C72 1.278 . S
O85 Zr54 2.216 . S
O85 C73 1.278 . S
O86 Zr59 2.216 1_655 S
O86 C72 1.278 . S
O87 Zr56 2.216 1_655 S
O87 C73 1.278 . S
O88 Zr59 2.216 1_655 S
O88 C74 1.278 . S
O89 Zr56 2.216 1_655 S
O89 C74 1.278 . S
O90 Zr56 2.216 . S
O90 C75 1.278 . S
O91 Zr59 2.216 . S
O91 C76 1.278 . S
O92 Zr56 2.216 . S
O92 C77 1.278 . S
O93 Zr54 2.216 . S
O93 C79 1.278 . S
O94 Zr54 2.216 . S
O94 C80 1.278 . S
O95 Zr59 2.216 . S
O95 C78 1.278 . S
O96 Zr58 2.216 . S
O96 C75 1.278 . S
O97 Zr68 2.216 . S
O97 C76 1.278 . S
O98 Zr68 2.216 . S
O98 C77 1.278 . S
O99 Zr60 2.216 1_655 S
O99 C79 1.278 . S
O100 Zr58 2.216 1_655 S
O100 C80 1.278 . S
O101 Zr60 2.216 . S
O101 C78 1.278 . S
O102 Zr60 2.216 1_655 S
O102 C81 1.278 . S
O103 Zr58 2.216 1_655 S
O103 C81 1.278 . S
O104 Zr60 2.216 . S
O104 C82 1.278 . S
O105 Zr58 2.216 . S
O105 C83 1.278 . S
O106 Zr68 2.216 . S
O106 C82 1.278 . S
O107 Zr68 2.216 . S
O107 C83 1.278 . S
Zr108 O109 2.256 1_545 S
Zr108 O111 2.064 . S
Zr108 O117 2.064 1_545 S
Zr108 O118 2.256 . S
Zr108 O138 2.216 1_545 S
Zr108 O139 2.216 1_545 S
Zr108 O147 2.216 . S
Zr108 O148 2.216 . S
O109 Zr108 2.256 1_565 S
O109 Zr110 2.256 . S
O109 Zr112 2.256 1_565 S
O109 H116 0.974 . S
Zr110 O109 2.256 . S
Zr110 O117 2.064 . S
Zr110 O119 2.256 . S
Zr110 O120 2.064 . S
Zr110 O141 2.216 . S
Zr110 O143 2.216 . S
Zr110 O144 2.216 . S
Zr110 O146 2.216 . S
O111 Zr108 2.064 . S
O111 Zr112 2.064 . S
O111 Zr114 2.064 . S
Zr112 O109 2.256 1_545 S
Zr112 O111 2.064 . S
Zr112 O120 2.064 1_545 S
Zr112 O123 2.256 . S
Zr112 O150 2.216 1_545 S
Zr112 O154 2.216 . S
Zr112 O157 2.216 . S
Zr112 O159 2.216 1_545 S
Zr113 O117 2.064 1_545 S
Zr113 O118 2.256 . S
Zr113 O119 2.256 1_545 S
Zr113 O121 2.064 . S
Zr113 O140 2.216 1_545 S
Zr113 O142 2.216 1_545 S
Zr113 O145 2.216 . S
Zr113 O149 2.216 . S
Zr114 O111 2.064 . S
Zr114 O118 2.256 . S
Zr114 O121 2.064 . S
Zr114 O123 2.256 . S
Zr114 O153 2.216 . S
Zr114 O155 2.216 . S
Zr114 O156 2.216 . S
Zr114 O158 2.216 . S
H115 O118 0.974 . S
H116 O109 0.974 . S
O117 Zr108 2.064 1_565 S
O117 Zr110 2.064 . S
O117 Zr113 2.064 1_565 S
O118 Zr108 2.256 . S
O118 Zr113 2.256 . S
O118 Zr114 2.256 . S
O118 H115 0.974 . S
O119 Zr110 2.256 . S
O119 Zr113 2.256 1_565 S
O119 Zr122 2.256 1_565 S
O119 H124 0.974 . S
O120 Zr110 2.064 . S
O120 Zr112 2.064 1_565 S
O120 Zr122 2.064 1_565 S
O121 Zr113 2.064 . S
O121 Zr114 2.064 . S
O121 Zr122 2.064 . S
Zr122 O119 2.256 1_545 S
Zr122 O120 2.064 1_545 S
Zr122 O121 2.064 . S
Zr122 O123 2.256 . S
Zr122 O151 2.216 . S
Zr122 O152 2.216 1_545 S
Zr122 O160 2.216 . S
Zr122 O161 2.216 1_545 S
O123 Zr112 2.256 . S
O123 Zr114 2.256 . S
O123 Zr122 2.256 . S
O123 H125 0.974 . S
H124 O119 0.974 . S
H125 O123 0.974 . S
C126 O138 1.278 . S
C126 O140 1.278 . S
C127 O139 1.278 . S
C127 O141 1.278 . S
C128 O142 1.278 . S
C128 O143 1.278 . S
C129 O144 1.278 . S
C129 O150 1.278 . S
C130 O145 1.278 . S
C130 O151 1.278 . S
C131 O146 1.278 . S
C131 O152 1.278 . S
C132 O149 1.278 . S
C132 O155 1.278 . S
C133 O147 1.278 . S
C133 O153 1.278 . S
C134 O148 1.278 . S
C134 O154 1.278 . S
C135 O156 1.278 . S
C135 O157 1.278 . S
C136 O158 1.278 . S
C136 O160 1.278 . S
C137 O159 1.278 . S
C137 O161 1.278 . S
O138 Zr108 2.216 1_565 S
O138 C126 1.278 . S
O139 Zr108 2.216 1_565 S
O139 C127 1.278 . S
O140 Zr113 2.216 1_565 S
O140 C126 1.278 . S
O141 Zr110 2.216 . S
O141 C127 1.278 . S
O142 Zr113 2.216 1_565 S
O142 C128 1.278 . S
O143 Zr110 2.216 . S
O143 C128 1.278 . S
O144 Zr110 2.216 . S
O144 C129 1.278 . S
O145 Zr113 2.216 . S
O145 C130 1.278 . S
O146 Zr110 2.216 . S
O146 C131 1.278 . S
O147 Zr108 2.216 . S
O147 C133 1.278 . S
O148 Zr108 2.216 . S
O148 C134 1.278 . S
O149 Zr113 2.216 . S
O149 C132 1.278 . S
O150 Zr112 2.216 1_565 S
O150 C129 1.278 . S
O151 Zr122 2.216 . S
O151 C130 1.278 . S
O152 Zr122 2.216 1_565 S
O152 C131 1.278 . S
O153 Zr114 2.216 . S
O153 C133 1.278 . S
O154 Zr112 2.216 . S
O154 C134 1.278 . S
O155 Zr114 2.216 . S
O155 C132 1.278 . S
O156 Zr114 2.216 . S
O156 C135 1.278 . S
O157 Zr112 2.216 . S
O157 C135 1.278 . S
O158 Zr114 2.216 . S
O158 C136 1.278 . S
O159 Zr112 2.216 1_565 S
O159 C137 1.278 . S
O160 Zr122 2.216 . S
O160 C136 1.278 . S
O161 Zr122 2.216 1_565 S
O161 C137 1.278 . S
Zr162 O163 2.256 . S
Zr162 O165 2.064 . S
Zr162 O171 2.064 1_554 S
Zr162 O172 2.256 1_554 S
Zr162 O192 2.216 1_554 S
Zr162 O193 2.216 1_554 S
Zr162 O201 2.216 . S
Zr162 O202 2.216 . S
O163 Zr162 2.256 . S
O163 Zr164 2.256 . S
O163 Zr166 2.256 . S
O163 H170 0.974 . S
Zr164 O163 2.256 . S
Zr164 O171 2.064 1_554 S
Zr164 O173 2.256 1_554 S
Zr164 O174 2.064 . S
Zr164 O195 2.216 1_554 S
Zr164 O197 2.216 1_554 S
Zr164 O198 2.216 . S
Zr164 O200 2.216 . S
O165 Zr162 2.064 . S
O165 Zr166 2.064 . S
O165 Zr168 2.064 . S
Zr166 O163 2.256 . S
Zr166 O165 2.064 . S
Zr166 O174 2.064 . S
Zr166 O177 2.256 . S
Zr166 O204 2.216 . S
Zr166 O208 2.216 . S
Zr166 O211 2.216 . S
Zr166 O213 2.216 . S
Zr167 O171 2.064 . S
Zr167 O172 2.256 . S
Zr167 O173 2.256 . S
Zr167 O175 2.064 . S
Zr167 O194 2.216 . S
Zr167 O196 2.216 . S
Zr167 O199 2.216 . S
Zr167 O203 2.216 . S
Zr168 O165 2.064 . S
Zr168 O172 2.256 1_554 S
Zr168 O175 2.064 1_554 S
Zr168 O177 2.256 . S
Zr168 O207 2.216 . S
Zr168 O209 2.216 1_554 S
Zr168 O210 2.216 . S
Zr168 O212 2.216 1_554 S
H169 O172 0.974 . S
H170 O163 0.974 . S
O171 Zr162 2.064 1_556 S
O171 Zr164 2.064 1_556 S
O171 Zr167 2.064 . S
O172 Zr162 2.256 1_556 S
O172 Zr167 2.256 . S
O172 Zr168 2.256 1_556 S
O172 H169 0.974 . S
O173 Zr164 2.256 1_556 S
O173 Zr167 2.256 . S
O173 Zr176 2.256 1_556 S
O173 H178 0.974 . S
O174 Zr164 2.064 . S
O174 Zr166 2.064 . S
O174 Zr176 2.064 . S
O175 Zr167 2.064 . S
O175 Zr168 2.064 1_556 S
O175 Zr176 2.064 1_556 S
Zr176 O173 2.256 1_554 S
Zr176 O174 2.064 . S
Zr176 O175 2.064 1_554 S
Zr176 O177 2.256 . S
Zr176 O205 2.216 1_554 S
Zr176 O206 2.216 . S
Zr176 O214 2.216 1_554 S
Zr176 O215 2.216 . S
O177 Zr166 2.256 . S
O177 Zr168 2.256 . S
O177 Zr176 2.256 . S
O177 H179 0.974 . S
H178 O173 0.974 . S
H179 O177 0.974 . S
C180 O192 1.278 . S
C180 O194 1.278 . S
C181 O193 1.278 . S
C181 O195 1.278 . S
C182 O196 1.278 . S
C182 O197 1.278 . S
C183 O198 1.278 . S
C183 O204 1.278 . S
C184 O199 1.278 . S
C184 O205 1.278 . S
C185 O200 1.278 . S
C185 O206 1.278 . S
C186 O203 1.278 . S
C186 O209 1.278 . S
C187 O201 1.278 . S
C187 O207 1.278 . S
C188 O202 1.278 . S
C188 O208 1.278 . S
C189 O210 1.278 . S
C189 O211 1.278 . S
C190 O212 1.278 . S
C190 O214 1.278 . S
C191 O213 1.278 . S
C191 O215 1.278 . S
O192 Zr162 2.216 1_556 S
O192 C180 1.278 . S
O193 Zr162 2.216 1_556 S
O193 C181 1.278 . S
O194 Zr167 2.216 . S
O194 C180 1.278 . S
O195 Zr164 2.216 1_556 S
O195 C181 1.278 . S
O196 Zr167 2.216 . S
O196 C182 1.278 . S
O197 Zr164 2.216 1_556 S
O197 C182 1.278 . S
O198 Zr164 2.216 . S
O198 C183 1.278 . S
O199 Zr167 2.216 . S
O199 C184 1.278 . S
O200 Zr164 2.216 . S
O200 C185 1.278 . S
O201 Zr162 2.216 . S
O201 C187 1.278 . S
O202 Zr162 2.216 . S
O202 C188 1.278 . S
O203 Zr167 2.216 . S
O203 C186 1.278 . S
O204 Zr166 2.216 . S
O204 C183 1.278 . S
O205 Zr176 2.216 1_556 S
O205 C184 1.278 . S
O206 Zr176 2.216 . S
O206 C185 1.278 . S
O207 Zr168 2.216 . S
O207 C187 1.278 . S
O208 Zr166 2.216 . S
O208 C188 1.278 . S
O209 Zr168 2.216 1_556 S
O209 C186 1.278 . S
O210 Zr168 2.216 . S
O210 C189 1.278 . S
O211 Zr166 2.216 . S
O211 C189 1.278 . S
O212 Zr168 2.216 1_556 S
O212 C190 1.278 . S
O213 Zr166 2.216 . S
O213 C191 1.278 . S
O214 Zr176 2.216 1_556 S
O214 C190 1.278 . S
O215 Zr176 2.216 . S
O215 C191 1.278 . S
C216 C217 1.416 . S
C216 C220 1.402 1_455 S
C217 C218 1.428 . S
C217 O222 1.355 . S
C218 C219 1.420 1_455 S
C218 C223 1.405 . S
C219 C221 1.405 . S
C219 C226 1.419 . S
C220 C221 1.389 . S
C220 H230 1.083 . S
C221 H231 1.083 . S
O222 H228 0.963 . S
C223 C224 1.390 . S
C223 H232 1.078 . S
C224 C225 1.406 1_455 S
C224 H233 1.083 . S
C225 C226 1.428 . S
C226 O227 1.355 . S
O227 H229 0.960 . S
C234 C235 1.416 1_565 S
C234 C238 1.402 . S
C235 C236 1.428 . S
C235 O240 1.355 . S
C236 C237 1.420 1_545 S
C236 C241 1.405 . S
C237 C239 1.405 . S
C237 C244 1.419 . S
C238 C239 1.389 . S
C238 H248 1.083 . S
C239 H249 1.083 . S
O240 H246 0.963 . S
C241 C242 1.390 . S
C241 H250 1.078 . S
C242 C243 1.406 1_545 S
C242 H251 1.083 . S
C243 C244 1.428 . S
C244 O245 1.355 . S
O245 H247 0.960 . S
C252 C253 1.416 1_455 S
C252 C256 1.402 . S
C253 C254 1.428 . S
C253 O258 1.355 . S
C254 C255 1.420 1_655 S
C254 C259 1.405 . S
C255 C257 1.405 . S
C255 C262 1.419 . S
C256 C257 1.389 . S
C256 H266 1.083 . S
C257 H267 1.083 . S
O258 H264 0.963 . S
C259 C260 1.390 . S
C259 H268 1.078 . S
C260 C261 1.405 . S
C260 H269 1.083 . S
C261 C262 1.429 1_655 S
C262 O263 1.355 . S
O263 H265 0.960 . S
C270 C271 1.416 1_545 S
C270 C274 1.402 . S
C271 C272 1.428 . S
C271 O276 1.355 . S
C272 C273 1.420 1_565 S
C272 C277 1.405 . S
C273 C275 1.405 . S
C273 C280 1.419 . S
C274 C275 1.389 . S
C274 H284 1.083 . S
C275 H285 1.083 . S
O276 H282 0.963 . S
C277 C278 1.390 . S
C277 H286 1.078 . S
C278 C279 1.406 1_565 S
C278 H287 1.083 . S
C279 C280 1.428 . S
C280 O281 1.355 . S
O281 H283 0.960 . S
C288 C289 1.418 . S
C288 C292 1.399 1_455 S
C289 C290 1.428 . S
C289 O294 1.355 . S
C290 C291 1.420 1_455 S
C290 C295 1.405 . S
C291 C293 1.405 . S
C291 C298 1.419 . S
C292 C293 1.389 . S
C292 H302 1.083 . S
C293 H303 1.083 . S
O294 H300 0.963 . S
C295 C296 1.390 . S
C295 H304 1.078 . S
C296 C297 1.396 1_455 S
C296 H305 1.083 . S
C297 C298 1.435 . S
C298 O299 1.355 . S
O299 H301 0.960 . S
C306 C307 1.416 1_565 S
C306 C310 1.402 . S
C307 C308 1.428 . S
C307 O312 1.355 . S
C308 C309 1.420 1_545 S
C308 C313 1.405 . S
C309 C311 1.405 . S
C309 C316 1.419 . S
C310 C311 1.389 . S
C310 H320 1.083 . S
C311 H321 1.083 . S
O312 H318 0.963 . S
C313 C314 1.390 . S
C313 H322 1.078 . S
C314 C315 1.406 1_545 S
C314 H323 1.083 . S
C315 C316 1.428 . S
C316 O317 1.355 . S
O317 H319 0.960 . S
C324 C325 1.416 . S
C324 C328 1.402 . S
C325 C326 1.428 . S
C325 O330 1.355 . S
C326 C327 1.420 1_455 S
C326 C331 1.405 1_455 S
C327 C329 1.405 1_655 S
C327 C334 1.419 . S
C328 C329 1.389 . S
C328 H338 1.083 . S
C329 H339 1.083 . S
O330 H336 0.963 . S
C331 C332 1.390 . S
C331 H340 1.078 . S
C332 C333 1.406 . S
C332 H341 1.083 . S
C333 C334 1.428 . S
C334 O335 1.355 . S
O335 H337 0.960 . S
C342 C343 1.416 1_545 S
C342 C346 1.402 . S
C343 C344 1.428 . S
C343 O348 1.355 . S
C344 C345 1.420 1_565 S
C344 C349 1.405 . S
C345 C347 1.405 . S
C345 C352 1.419 . S
C346 C347 1.389 . S
C346 H356 1.083 . S
C347 H357 1.083 . S
O348 H354 0.963 . S
C349 C350 1.390 . S
C349 H358 1.078 . S
C350 C351 1.387 1_565 S
C350 H359 1.083 . S
C351 C352 1.443 . S
C352 O353 1.355 . S
O353 H355 0.960 . S
C360 C361 1.416 1_554 S
C360 C364 1.402 . S
C361 C362 1.428 . S
C361 O366 1.355 . S
C362 C363 1.420 1_556 S
C362 C367 1.405 . S
C363 C365 1.405 . S
C363 C370 1.419 . S
C364 C365 1.389 . S
C364 H374 1.083 . S
C365 H375 1.083 . S
O366 H372 0.963 . S
C367 C368 1.390 . S
C367 H376 1.078 . S
C368 C369 1.406 1_556 S
C368 H377 1.083 . S
C369 C370 1.428 . S
C370 O371 1.355 . S
O371 H373 0.960 . S
C378 C379 1.416 . S
C378 C382 1.402 1_556 S
C379 C380 1.428 . S
C379 O384 1.355 . S
C380 C381 1.420 1_556 S
C380 C385 1.405 . S
C381 C383 1.405 . S
C381 C388 1.419 . S
C382 C383 1.389 . S
C382 H392 1.083 . S
C383 H393 1.083 . S
O384 H390 0.963 . S
C385 C386 1.390 . S
C385 H394 1.078 . S
C386 C387 1.406 . S
C386 H395 1.083 . S
C387 C388 1.428 1_556 S
C388 O389 1.355 . S
O389 H391 0.960 . S
C396 C397 1.424 . S
C396 C400 1.393 1_556 S
C397 C398 1.428 . S
C397 O402 1.355 . S
C398 C399 1.420 1_556 S
C398 C403 1.405 . S
C399 C401 1.405 . S
C399 C406 1.419 . S
C400 C401 1.389 . S
C400 H410 1.083 . S
C401 H411 1.083 . S
O402 H408 0.963 . S
C403 C404 1.390 . S
C403 H412 1.078 . S
C404 C405 1.406 . S
C404 H413 1.083 . S
C405 C406 1.428 1_556 S
C406 O407 1.355 . S
O407 H409 0.960 . S
C414 C415 1.416 . S
C414 C418 1.402 1_554 S
C415 C416 1.428 . S
C415 O420 1.355 . S
C416 C417 1.420 1_554 S
C416 C421 1.405 . S
C417 C419 1.405 . S
C417 C424 1.419 . S
C418 C419 1.389 . S
C418 H428 1.083 . S
C419 H429 1.083 . S
O420 H426 0.963 . S
C421 C422 1.390 . S
C421 H430 1.078 . S
C422 C423 1.406 . S
C422 H431 1.083 . S
C423 C424 1.428 1_554 S
C424 O425 1.355 . S
O425 H427 0.960 . S
C432 C433 1.416 . S
C432 C436 1.402 . S
C433 C434 1.428 . S
C433 O438 1.355 . S
C434 C435 1.420 . S
C434 C439 1.405 . S
C435 C437 1.405 . S
C435 C442 1.419 . S
C436 C437 1.389 . S
C436 H446 1.083 . S
C437 H447 1.083 . S
O438 H444 0.963 . S
C439 C440 1.390 . S
C439 H448 1.078 . S
C440 C441 1.406 . S
C440 H449 1.083 . S
C441 C442 1.428 . S
C442 O443 1.355 . S
O443 H445 0.960 . S
C450 C451 1.416 . S
C450 C454 1.402 . S
C451 C452 1.428 . S
C451 O456 1.355 . S
C452 C453 1.420 . S
C452 C457 1.405 . S
C453 C455 1.405 . S
C453 C460 1.419 . S
C454 C455 1.389 . S
C454 H464 1.083 . S
C455 H465 1.083 . S
O456 H462 0.963 . S
C457 C458 1.390 . S
C457 H466 1.078 . S
C458 C459 1.406 . S
C458 H467 1.083 . S
C459 C460 1.428 . S
C460 O461 1.355 . S
O461 H463 0.960 . S
C468 C469 1.416 . S
C468 C472 1.402 . S
C469 C470 1.428 . S
C469 O474 1.355 . S
C470 C471 1.420 . S
C470 C475 1.405 . S
C471 C473 1.405 . S
C471 C478 1.419 . S
C472 C473 1.389 . S
C472 H482 1.083 . S
C473 H483 1.083 . S
O474 H480 0.963 . S
C475 C476 1.390 . S
C475 H484 1.078 . S
C476 C477 1.406 . S
C476 H485 1.083 . S
C477 C478 1.428 . S
C478 O479 1.355 . S
O479 H481 0.960 . S
C486 C487 1.416 . S
C486 C490 1.402 . S
C487 C488 1.428 . S
C487 O492 1.355 . S
C488 C489 1.420 . S
C488 C493 1.405 . S
C489 C491 1.405 . S
C489 C496 1.419 . S
C490 C491 1.389 . S
C490 H500 1.083 . S
C491 H501 1.083 . S
O492 H498 0.963 . S
C493 C494 1.390 . S
C493 H502 1.078 . S
C494 C495 1.406 . S
C494 H503 1.083 . S
C495 C496 1.428 . S
C496 O497 1.355 . S
O497 H499 0.960 . S
C504 C505 1.416 . S
C504 C508 1.402 . S
C505 C506 1.428 . S
C505 O510 1.355 . S
C506 C507 1.420 . S
C506 C511 1.405 . S
C507 C509 1.405 . S
C507 C514 1.419 . S
C508 C509 1.389 . S
C508 H518 1.083 . S
C509 H519 1.083 . S
O510 H516 0.963 . S
C511 C512 1.390 . S
C511 H520 1.078 . S
C512 C513 1.406 . S
C512 H521 1.083 . S
C513 C514 1.428 . S
C514 O515 1.355 . S
O515 H517 0.960 . S
C522 C523 1.416 . S
C522 C526 1.402 . S
C523 C524 1.428 . S
C523 O528 1.355 . S
C524 C525 1.420 . S
C524 C529 1.405 . S
C525 C527 1.405 . S
C525 C532 1.419 . S
C526 C527 1.389 . S
C526 H536 1.083 . S
C527 H537 1.083 . S
O528 H534 0.963 . S
C529 C530 1.390 . S
C529 H538 1.078 . S
C530 C531 1.406 . S
C530 H539 1.083 . S
C531 C532 1.428 . S
C532 O533 1.355 . S
O533 H535 0.960 . S
C540 C541 1.416 . S
C540 C544 1.402 . S
C541 C542 1.428 . S
C541 O546 1.355 . S
C542 C543 1.420 . S
C542 C547 1.405 . S
C543 C545 1.405 . S
C543 C550 1.419 . S
C544 C545 1.389 . S
C544 H554 1.083 . S
C545 H555 1.083 . S
O546 H552 0.963 . S
C547 C548 1.390 . S
C547 H556 1.078 . S
C548 C549 1.406 . S
C548 H557 1.083 . S
C549 C550 1.428 . S
C550 O551 1.355 . S
O551 H553 0.960 . S
C558 C559 1.416 . S
C558 C562 1.402 . S
C559 C560 1.428 . S
C559 O564 1.355 . S
C560 C561 1.420 . S
C560 C565 1.405 . S
C561 C563 1.405 . S
C561 C568 1.419 . S
C562 C563 1.389 . S
C562 H572 1.083 . S
C563 H573 1.083 . S
O564 H570 0.963 . S
C565 C566 1.390 . S
C565 H574 1.078 . S
C566 C567 1.406 . S
C566 H575 1.083 . S
C567 C568 1.428 . S
C568 O569 1.355 . S
O569 H571 0.960 . S
C576 C577 1.416 . S
C576 C580 1.402 . S
C577 C578 1.428 . S
C577 O582 1.355 . S
C578 C579 1.420 . S
C578 C583 1.405 . S
C579 C581 1.405 . S
C579 C586 1.419 . S
C580 C581 1.389 . S
C580 H590 1.083 . S
C581 H591 1.083 . S
O582 H588 0.963 . S
C583 C584 1.390 . S
C583 H592 1.078 . S
C584 C585 1.406 . S
C584 H593 1.083 . S
C585 C586 1.428 . S
C586 O587 1.355 . S
O587 H589 0.960 . S
C594 C595 1.416 . S
C594 C598 1.402 . S
C595 C596 1.428 . S
C595 O600 1.355 . S
C596 C597 1.420 . S
C596 C601 1.405 . S
C597 C599 1.405 . S
C597 C604 1.419 . S
C598 C599 1.389 . S
C598 H608 1.083 . S
C599 H609 1.083 . S
O600 H606 0.963 . S
C601 C602 1.390 . S
C601 H610 1.078 . S
C602 C603 1.406 . S
C602 H611 1.083 . S
C603 C604 1.428 . S
C604 O605 1.355 . S
O605 H607 0.960 . S
C612 C613 1.416 . S
C612 C616 1.402 . S
C613 C614 1.428 . S
C613 O618 1.355 . S
C614 C615 1.420 . S
C614 C619 1.405 . S
C615 C617 1.405 . S
C615 C622 1.419 . S
C616 C617 1.389 . S
C616 H626 1.083 . S
C617 H627 1.083 . S
O618 H624 0.963 . S
C619 C620 1.390 . S
C619 H628 1.078 . S
C620 C621 1.406 . S
C620 H629 1.083 . S
C621 C622 1.428 . S
C622 O623 1.355 . S
O623 H625 0.960 . S
C630 C631 1.416 . S
C630 C634 1.402 . S
C631 C632 1.428 . S
C631 O636 1.355 . S
C632 C633 1.420 . S
C632 C637 1.405 . S
C633 C635 1.405 . S
C633 C640 1.419 . S
C634 C635 1.389 . S
C634 H644 1.083 . S
C635 H645 1.083 . S
O636 H642 0.963 . S
C637 C638 1.390 . S
C637 H646 1.078 . S
C638 C639 1.406 . S
C638 H647 1.083 . S
C639 C640 1.428 . S
C640 O641 1.355 . S
O641 H643 0.960 . S
C216 C27 1.445 . S
C225 C74 1.444 . S
C234 C29 1.446 . S
C243 C126 1.446 . S
C252 C21 1.443 1_455 S
C261 C75 1.445 1_655 S
C270 C130 1.446 . S
C279 C26 1.442 . S
C288 C20 1.444 . S
C297 C81 1.450 . S
C306 C18 1.446 . S
C315 C137 1.446 . S
C324 C78 1.446 . S
C333 C24 1.448 . S
C342 C134 1.447 . S
C351 C22 1.450 . S
C360 C185 1.446 . S
C369 C25 1.442 . S
C378 C190 1.444 . S
C387 C19 1.448 . S
C396 C181 1.444 . S
C405 C28 1.448 . S
C414 C23 1.443 . S
C423 C187 1.451 . S
C432 C180 1.449 . S
C441 C79 1.453 . S
C450 C82 1.444 . S
C459 C184 1.446 . S
C468 C77 1.449 . S
C477 C191 1.446 . S
C486 C188 1.446 . S
C495 C73 1.448 . S
C504 C131 1.449 . S
C513 C83 1.450 . S
C522 C76 1.447 . S
C531 C136 1.445 . S
C540 C80 1.444 . S
C549 C127 1.449 . S
C558 C133 1.447 . S
C567 C72 1.449 . S
C576 C182 1.444 . S
C585 C135 1.448 . S
C594 C129 1.447 . S
C603 C186 1.449 . S
C612 C189 1.444 . S
C621 C128 1.447 . S
C630 C132 1.445 . S
C639 C183 1.443 . S
