data_I
_chemical_name_common  '/Users/gianmarcoterrones/Downloads/MOF-14-option2'
_cell_length_a 26.99130
_cell_length_b 26.99130
_cell_length_c 26.99130
_cell_angle_alpha 90.00000
_cell_angle_beta  90.00000
_cell_angle_gamma 90.00000
_space_group_name_H-M_alt      'P 1'


loop_
_space_group_symop_operation_xyz
  'x, y, z' 

loop_
_atom_site_label
_atom_site_fract_x
_atom_site_fract_y
_atom_site_fract_z
_atom_site_type_symbol
Cu         0.0 0.144404      0.5    Cu
Cu         0.0 0.240294      0.5    Cu
O          0.0  0.32054      0.5     O
O          0.0      0.5  0.17954     O
Cu         0.0      0.5 0.259714    Cu
Cu         0.0      0.5 0.355604    Cu
Cu         0.0      0.5 0.644404    Cu
Cu         0.0      0.5 0.740294    Cu
O          0.0      0.5  0.82054     O
O          0.0  0.67954      0.5     O
Cu         0.0 0.759714      0.5    Cu
Cu         0.0 0.855604      0.5    Cu
O     0.0494913 0.2315812 0.4484612     O
O     0.0494913 0.2315812 0.5515412     O
O     0.0494913 0.7684212 0.4484612     O
O     0.0494913 0.7684212 0.5515412     O
O     0.0501212 0.1488512 0.4477011     O
O     0.0501212 0.1488512 0.5523011     O
O     0.0501212 0.8511512 0.4477011     O
O     0.0501212 0.8511512 0.5523011     O
O     0.0515412 0.4505113 0.2684212     O
O     0.0515412 0.4505113 0.7315812     O
O     0.0515412 0.5494913 0.2684212     O
O     0.0515412 0.5494913 0.7315812     O
O     0.0523011 0.4498812 0.3511512     O
O     0.0523011 0.4498812 0.6488512     O
O     0.0523011 0.5501212 0.3511512     O
O     0.0523011 0.5501212 0.6488512     O
C     0.0622716 0.1908017 0.4307416     C
C     0.0622716 0.1908017 0.5692616     C
C     0.0622716 0.8092017 0.4307416     C
C     0.0622716 0.8092017 0.5692616     C
C     0.0692616 0.4377316 0.3092017     C
C     0.0692616 0.4377316 0.6908017     C
C     0.0692616 0.5622716 0.3092017     C
C     0.0692616 0.5622716 0.6908017     C
C     0.0927516 0.1926116 0.3842516     C
C     0.0927516 0.1926116 0.6157516     C
C     0.0927516 0.8073916 0.3842516     C
C     0.0927516 0.8073916 0.6157516     C
H       0.0944   0.2678   0.3805     H
H       0.0944   0.2678   0.6195     H
H       0.0944   0.7322   0.3805     H
H       0.0944   0.7322   0.6195     H
H        0.099   0.1182   0.3741     H
H        0.099   0.1182   0.6259     H
H        0.099   0.8818   0.3741     H
H        0.099   0.8818   0.6259     H
C     0.1042817 0.2383317 0.3639618     C
C     0.1042817 0.2383317 0.6360418     C
C     0.1042817 0.7616717 0.3639618     C
C     0.1042817 0.7616717 0.6360418     C
C     0.1073417 0.1495318 0.3603617     C
C     0.1073417 0.1495318 0.6396417     C
C     0.1073417 0.8504718 0.3603617     C
C     0.1073417 0.8504718 0.6396417     C
C     0.1157516 0.4072516 0.3073916     C
C     0.1157516 0.4072516 0.6926116     C
C     0.1157516 0.5927516 0.3073916     C
C     0.1157516 0.5927516 0.6926116     C
H       0.1182   0.3741    0.099     H
H       0.1182   0.3741    0.901     H
H       0.1182   0.6259    0.099     H
H       0.1182   0.6259    0.901     H
H       0.1195   0.4056   0.2322     H
H       0.1195   0.4056   0.7678     H
H       0.1195   0.5944   0.2322     H
H       0.1195   0.5944   0.7678     H
H       0.1225   0.2999   0.1449     H
H       0.1225   0.2999   0.8551     H
H       0.1225   0.7001   0.1449     H
H       0.1225   0.7001   0.8551     H
H       0.1259    0.401   0.3818     H
H       0.1259    0.401   0.6182     H
H       0.1259    0.599   0.3818     H
H       0.1259    0.599   0.6182     H
C     0.1302017 0.2413418 0.3197318     C
C     0.1302017 0.2413418 0.6802718     C
C     0.1302017 0.7586618 0.3197318     C
C     0.1302017 0.7586618 0.6802718     C
C     0.1344618 0.1520818 0.3158117     C
C     0.1344618 0.1520818 0.6841917     C
C     0.1344618 0.8479218 0.3158117     C
C     0.1344618 0.8479218 0.6841917     C
C     0.1360418 0.3957217 0.2616717     C
C     0.1360418 0.3957217 0.7383317     C
C     0.1360418 0.6042817 0.2616717     C
C     0.1360418 0.6042817 0.7383317     C
H       0.1374   0.2729   0.3059     H
H       0.1374   0.2729   0.6941     H
H       0.1374   0.7271   0.3059     H
H       0.1374   0.7271   0.6941     H
C     0.1396417 0.3926617 0.3504718     C
C     0.1396417 0.3926617 0.6495318     C
C     0.1396417 0.6073417 0.3504718     C
C     0.1396417 0.6073417 0.6495318     C
H       0.1431   0.2639   0.2215     H
H       0.1431   0.2639   0.7785     H
H       0.1431   0.7361   0.2215     H
H       0.1431   0.7361   0.7785     H
Cu    0.144404      0.5      0.0    Cu
H       0.1449   0.1225   0.2999     H
H       0.1449   0.1225   0.7001     H
H       0.1449   0.8775   0.2999     H
H       0.1449   0.8775   0.7001     H
C     0.1461016 0.1980918 0.2949418     C
C     0.1461016 0.1980918 0.7050618     C
C     0.1461016 0.8019118 0.2949418     C
C     0.1461016 0.8019118 0.7050618     C
O     0.1488512 0.4477011 0.0501212     O
O     0.1488512 0.4477011 0.9498812     O
O     0.1488512 0.5523011 0.0501212     O
O     0.1488512 0.5523011 0.9498812     O
C     0.1495318 0.3603617 0.1073417     C
C     0.1495318 0.3603617 0.8926617     C
C     0.1495318 0.6396417 0.1073417     C
C     0.1495318 0.6396417 0.8926617     C
C     0.1520818 0.3158117 0.1344618     C
C     0.1520818 0.3158117 0.8655418     C
C     0.1520818 0.6841917 0.1344618     C
C     0.1520818 0.6841917 0.8655418     C
C     0.1703318 0.2421217 0.2168716     C
C     0.1703318 0.2421217 0.7831316     C
C     0.1703318 0.7578817 0.2168716     C
C     0.1703318 0.7578817 0.7831316     C
C     0.1775117 0.2026117 0.2497717     C
C     0.1775117 0.2026117 0.7502317     C
C     0.1775117 0.7973917 0.2497717     C
C     0.1775117 0.7973917 0.7502317     C
O      0.17954      0.0      0.5     O
C     0.1802718 0.3698017 0.2586618     C
C     0.1802718 0.3698017 0.7413418     C
C     0.1802718 0.6302017 0.2586618     C
C     0.1802718 0.6302017 0.7413418     C
C     0.1841917 0.3655418 0.3479218     C
C     0.1841917 0.3655418 0.6520818     C
C     0.1841917 0.6344618 0.3479218     C
C     0.1841917 0.6344618 0.6520818     C
C     0.1908017 0.4307416 0.0622716     C
C     0.1908017 0.4307416 0.9377316     C
C     0.1908017 0.5692616 0.0622716     C
C     0.1908017 0.5692616 0.9377316     C
C     0.1926116 0.3842516 0.0927516     C
C     0.1926116 0.3842516 0.9072516     C
C     0.1926116 0.6157516 0.0927516     C
C     0.1926116 0.6157516 0.9072516     C
H       0.1941   0.3626   0.2271     H
H       0.1941   0.3626   0.7729     H
H       0.1941   0.6374   0.2271     H
H       0.1941   0.6374   0.7729     H
C     0.1980918 0.2949418 0.1461016     C
C     0.1980918 0.2949418 0.8539016     C
C     0.1980918 0.7050618 0.1461016     C
C     0.1980918 0.7050618 0.8539016     C
H       0.2001   0.3551   0.3775     H
H       0.2001   0.3551   0.6225     H
H       0.2001   0.6449   0.3775     H
H       0.2001   0.6449   0.6225     H
C     0.2026117 0.2497717 0.1775117     C
C     0.2026117 0.2497717 0.8224917     C
C     0.2026117 0.7502317 0.1775117     C
C     0.2026117 0.7502317 0.8224917     C
C     0.2050618 0.3539016 0.3019118     C
C     0.2050618 0.3539016 0.6980918     C
C     0.2050618 0.6461016 0.3019118     C
C     0.2050618 0.6461016 0.6980918     C
C     0.2168716 0.1703318 0.2421217     C
C     0.2168716 0.1703318 0.7578817     C
C     0.2168716 0.8296718 0.2421217     C
C     0.2168716 0.8296718 0.7578817     C
H       0.2215   0.1431   0.2639     H
H       0.2215   0.1431   0.7361     H
H       0.2215   0.8569   0.2639     H
H       0.2215   0.8569   0.7361     H
H       0.2271   0.1941   0.3626     H
H       0.2271   0.1941   0.6374     H
H       0.2271   0.8059   0.3626     H
H       0.2271   0.8059   0.6374     H
O     0.2315812 0.4484612 0.0494913     O
O     0.2315812 0.4484612 0.9505113     O
O     0.2315812 0.5515412 0.0494913     O
O     0.2315812 0.5515412 0.9505113     O
H       0.2322   0.1195   0.4056     H
H       0.2322   0.1195   0.5944     H
H       0.2322   0.8805   0.4056     H
H       0.2322   0.8805   0.5944     H
H       0.2361   0.2785   0.3569     H
H       0.2361   0.2785   0.6431     H
H       0.2361   0.7215   0.3569     H
H       0.2361   0.7215   0.6431     H
C     0.2383317 0.3639618 0.1042817     C
C     0.2383317 0.3639618 0.8957217     C
C     0.2383317 0.6360418 0.1042817     C
C     0.2383317 0.6360418 0.8957217     C
Cu    0.240294      0.5      0.0    Cu
C     0.2413418 0.3197318 0.1302017     C
C     0.2413418 0.3197318 0.8698017     C
C     0.2413418 0.6802718 0.1302017     C
C     0.2413418 0.6802718 0.8698017     C
C     0.2421217 0.2168716 0.1703318     C
C     0.2421217 0.2168716 0.8296718     C
C     0.2421217 0.7831316 0.1703318     C
C     0.2421217 0.7831316 0.8296718     C
C     0.2497717 0.1775117 0.2026117     C
C     0.2497717 0.1775117 0.7973917     C
C     0.2497717 0.8224917 0.2026117     C
C     0.2497717 0.8224917 0.7973917     C
C     0.2502317 0.3224917 0.2973917     C
C     0.2502317 0.3224917 0.7026117     C
C     0.2502317 0.6775117 0.2973917     C
C     0.2502317 0.6775117 0.7026117     C
C     0.2578817 0.2831316 0.3296718     C
C     0.2578817 0.2831316 0.6703318     C
C     0.2578817 0.7168716 0.3296718     C
C     0.2578817 0.7168716 0.6703318     C
C     0.2586618 0.1802718 0.3698017     C
C     0.2586618 0.1802718 0.6302017     C
C     0.2586618 0.8197318 0.3698017     C
C     0.2586618 0.8197318 0.6302017     C
Cu    0.259714      0.0      0.5    Cu
C     0.2616717 0.1360418 0.3957217     C
C     0.2616717 0.1360418 0.6042817     C
C     0.2616717 0.8639618 0.3957217     C
C     0.2616717 0.8639618 0.6042817     C
H       0.2639   0.2215   0.1431     H
H       0.2639   0.2215   0.8569     H
H       0.2639   0.7785   0.1431     H
H       0.2639   0.7785   0.8569     H
H       0.2678   0.3805   0.0944     H
H       0.2678   0.3805   0.9056     H
H       0.2678   0.6195   0.0944     H
H       0.2678   0.6195   0.9056     H
O     0.2684212 0.0515412 0.4505113     O
O     0.2684212 0.0515412 0.5494913     O
O     0.2684212 0.9484612 0.4505113     O
O     0.2684212 0.9484612 0.5494913     O
H       0.2729   0.3059   0.1374     H
H       0.2729   0.3059   0.8626     H
H       0.2729   0.6941   0.1374     H
H       0.2729   0.6941   0.8626     H
H       0.2785   0.3569   0.2361     H
H       0.2785   0.3569   0.7639     H
H       0.2785   0.6431   0.2361     H
H       0.2785   0.6431   0.7639     H
C     0.2831316 0.3296718 0.2578817     C
C     0.2831316 0.3296718 0.7421217     C
C     0.2831316 0.6703318 0.2578817     C
C     0.2831316 0.6703318 0.7421217     C
C     0.2949418 0.1461016 0.1980918     C
C     0.2949418 0.1461016 0.8019118     C
C     0.2949418 0.8539016 0.1980918     C
C     0.2949418 0.8539016 0.8019118     C
C     0.2973917 0.2502317 0.3224917     C
C     0.2973917 0.2502317 0.6775117     C
C     0.2973917 0.7497717 0.3224917     C
C     0.2973917 0.7497717 0.6775117     C
H       0.2999   0.1449   0.1225     H
H       0.2999   0.1449   0.8775     H
H       0.2999   0.8551   0.1225     H
H       0.2999   0.8551   0.8775     H
C     0.3019118 0.2050618 0.3539016     C
C     0.3019118 0.2050618 0.6461016     C
C     0.3019118 0.7949418 0.3539016     C
C     0.3019118 0.7949418 0.6461016     C
H       0.3059   0.1374   0.2729     H
H       0.3059   0.1374   0.7271     H
H       0.3059   0.8626   0.2729     H
H       0.3059   0.8626   0.7271     H
C     0.3073916 0.1157516 0.4072516     C
C     0.3073916 0.1157516 0.5927516     C
C     0.3073916 0.8842516 0.4072516     C
C     0.3073916 0.8842516 0.5927516     C
C     0.3092017 0.0692616 0.4377316     C
C     0.3092017 0.0692616 0.5622716     C
C     0.3092017 0.9307416 0.4377316     C
C     0.3092017 0.9307416 0.5622716     C
C     0.3158117 0.1344618 0.1520818     C
C     0.3158117 0.1344618 0.8479218     C
C     0.3158117 0.8655418 0.1520818     C
C     0.3158117 0.8655418 0.8479218     C
C     0.3197318 0.1302017 0.2413418     C
C     0.3197318 0.1302017 0.7586618     C
C     0.3197318 0.8698017 0.2413418     C
C     0.3197318 0.8698017 0.7586618     C
O      0.32054      0.5      0.0     O
C     0.3224917 0.2973917 0.2502317     C
C     0.3224917 0.2973917 0.7497717     C
C     0.3224917 0.7026117 0.2502317     C
C     0.3224917 0.7026117 0.7497717     C
C     0.3296718 0.2578817 0.2831316     C
C     0.3296718 0.2578817 0.7168716     C
C     0.3296718 0.7421217 0.2831316     C
C     0.3296718 0.7421217 0.7168716     C
C     0.3479218 0.1841917 0.3655418     C
C     0.3479218 0.1841917 0.6344618     C
C     0.3479218 0.8158117 0.3655418     C
C     0.3479218 0.8158117 0.6344618     C
C     0.3504718 0.1396417 0.3926617     C
C     0.3504718 0.1396417 0.6073417     C
C     0.3504718 0.8603617 0.3926617     C
C     0.3504718 0.8603617 0.6073417     C
O     0.3511512 0.0523011 0.4498812     O
O     0.3511512 0.0523011 0.5501212     O
O     0.3511512 0.9477011 0.4498812     O
O     0.3511512 0.9477011 0.5501212     O
C     0.3539016 0.3019118 0.2050618     C
C     0.3539016 0.3019118 0.7949418     C
C     0.3539016 0.6980918 0.2050618     C
C     0.3539016 0.6980918 0.7949418     C
H       0.3551   0.3775   0.2001     H
H       0.3551   0.3775   0.7999     H
H       0.3551   0.6225   0.2001     H
H       0.3551   0.6225   0.7999     H
Cu    0.355604      0.0      0.5    Cu
H       0.3569   0.2361   0.2785     H
H       0.3569   0.2361   0.7215     H
H       0.3569   0.7639   0.2785     H
H       0.3569   0.7639   0.7215     H
C     0.3603617 0.1073417 0.1495318     C
C     0.3603617 0.1073417 0.8504718     C
C     0.3603617 0.8926617 0.1495318     C
C     0.3603617 0.8926617 0.8504718     C
H       0.3626   0.2271   0.1941     H
H       0.3626   0.2271   0.8059     H
H       0.3626   0.7729   0.1941     H
H       0.3626   0.7729   0.8059     H
C     0.3639618 0.1042817 0.2383317     C
C     0.3639618 0.1042817 0.7616717     C
C     0.3639618 0.8957217 0.2383317     C
C     0.3639618 0.8957217 0.7616717     C
C     0.3655418 0.3479218 0.1841917     C
C     0.3655418 0.3479218 0.8158117     C
C     0.3655418 0.6520818 0.1841917     C
C     0.3655418 0.6520818 0.8158117     C
C     0.3698017 0.2586618 0.1802718     C
C     0.3698017 0.2586618 0.8197318     C
C     0.3698017 0.7413418 0.1802718     C
C     0.3698017 0.7413418 0.8197318     C
H       0.3741    0.099   0.1182     H
H       0.3741    0.099   0.8818     H
H       0.3741    0.901   0.1182     H
H       0.3741    0.901   0.8818     H
H       0.3775   0.2001   0.3551     H
H       0.3775   0.2001   0.6449     H
H       0.3775   0.7999   0.3551     H
H       0.3775   0.7999   0.6449     H
H       0.3805   0.0944   0.2678     H
H       0.3805   0.0944   0.7322     H
H       0.3805   0.9056   0.2678     H
H       0.3805   0.9056   0.7322     H
H       0.3818   0.1259    0.401     H
H       0.3818   0.1259    0.599     H
H       0.3818   0.8741    0.401     H
H       0.3818   0.8741    0.599     H
C     0.3842516 0.0927516 0.1926116     C
C     0.3842516 0.0927516 0.8073916     C
C     0.3842516 0.9072516 0.1926116     C
C     0.3842516 0.9072516 0.8073916     C
C     0.3926617 0.3504718 0.1396417     C
C     0.3926617 0.3504718 0.8603617     C
C     0.3926617 0.6495318 0.1396417     C
C     0.3926617 0.6495318 0.8603617     C
C     0.3957217 0.2616717 0.1360418     C
C     0.3957217 0.2616717 0.8639618     C
C     0.3957217 0.7383317 0.1360418     C
C     0.3957217 0.7383317 0.8639618     C
H        0.401   0.3818   0.1259     H
H        0.401   0.3818   0.8741     H
H        0.401   0.6182   0.1259     H
H        0.401   0.6182   0.8741     H
H       0.4056   0.2322   0.1195     H
H       0.4056   0.2322   0.8805     H
H       0.4056   0.7678   0.1195     H
H       0.4056   0.7678   0.8805     H
C     0.4072516 0.3073916 0.1157516     C
C     0.4072516 0.3073916 0.8842516     C
C     0.4072516 0.6926116 0.1157516     C
C     0.4072516 0.6926116 0.8842516     C
C     0.4307416 0.0622716 0.1908017     C
C     0.4307416 0.0622716 0.8092017     C
C     0.4307416 0.9377316 0.1908017     C
C     0.4307416 0.9377316 0.8092017     C
C     0.4377316 0.3092017 0.0692616     C
C     0.4377316 0.3092017 0.9307416     C
C     0.4377316 0.6908017 0.0692616     C
C     0.4377316 0.6908017 0.9307416     C
O     0.4477011 0.0501212 0.1488512     O
O     0.4477011 0.0501212 0.8511512     O
O     0.4477011 0.9498812 0.1488512     O
O     0.4477011 0.9498812 0.8511512     O
O     0.4484612 0.0494913 0.2315812     O
O     0.4484612 0.0494913 0.7684212     O
O     0.4484612 0.9505113 0.2315812     O
O     0.4484612 0.9505113 0.7684212     O
O     0.4498812 0.3511512 0.0523011     O
O     0.4498812 0.3511512 0.9477011     O
O     0.4498812 0.6488512 0.0523011     O
O     0.4498812 0.6488512 0.9477011     O
O     0.4505113 0.2684212 0.0515412     O
O     0.4505113 0.2684212 0.9484612     O
O     0.4505113 0.7315812 0.0515412     O
O     0.4505113 0.7315812 0.9484612     O
Cu         0.5      0.0 0.144404    Cu
Cu         0.5      0.0 0.240294    Cu
O          0.5      0.0  0.32054     O
O          0.5      0.0  0.67954     O
Cu         0.5      0.0 0.759714    Cu
Cu         0.5      0.0 0.855604    Cu
O          0.5  0.17954      0.0     O
Cu         0.5 0.259714      0.0    Cu
Cu         0.5 0.355604      0.0    Cu
Cu         0.5 0.644404      0.0    Cu
Cu         0.5 0.740294      0.0    Cu
O          0.5  0.82054      0.0     O
O     0.5494913 0.2684212 0.0515412     O
O     0.5494913 0.2684212 0.9484612     O
O     0.5494913 0.7315812 0.0515412     O
O     0.5494913 0.7315812 0.9484612     O
O     0.5501212 0.3511512 0.0523011     O
O     0.5501212 0.3511512 0.9477011     O
O     0.5501212 0.6488512 0.0523011     O
O     0.5501212 0.6488512 0.9477011     O
O     0.5515412 0.0494913 0.2315812     O
O     0.5515412 0.0494913 0.7684212     O
O     0.5515412 0.9505113 0.2315812     O
O     0.5515412 0.9505113 0.7684212     O
O     0.5523011 0.0501212 0.1488512     O
O     0.5523011 0.0501212 0.8511512     O
O     0.5523011 0.9498812 0.1488512     O
O     0.5523011 0.9498812 0.8511512     O
C     0.5622716 0.3092017 0.0692616     C
C     0.5622716 0.3092017 0.9307416     C
C     0.5622716 0.6908017 0.0692616     C
C     0.5622716 0.6908017 0.9307416     C
C     0.5692616 0.0622716 0.1908017     C
C     0.5692616 0.0622716 0.8092017     C
C     0.5692616 0.9377316 0.1908017     C
C     0.5692616 0.9377316 0.8092017     C
C     0.5927516 0.3073916 0.1157516     C
C     0.5927516 0.3073916 0.8842516     C
C     0.5927516 0.6926116 0.1157516     C
C     0.5927516 0.6926116 0.8842516     C
H       0.5944   0.2322   0.1195     H
H       0.5944   0.2322   0.8805     H
H       0.5944   0.7678   0.1195     H
H       0.5944   0.7678   0.8805     H
H        0.599   0.3818   0.1259     H
H        0.599   0.3818   0.8741     H
H        0.599   0.6182   0.1259     H
H        0.599   0.6182   0.8741     H
C     0.6042817 0.2616717 0.1360418     C
C     0.6042817 0.2616717 0.8639618     C
C     0.6042817 0.7383317 0.1360418     C
C     0.6042817 0.7383317 0.8639618     C
C     0.6073417 0.3504718 0.1396417     C
C     0.6073417 0.3504718 0.8603617     C
C     0.6073417 0.6495318 0.1396417     C
C     0.6073417 0.6495318 0.8603617     C
C     0.6157516 0.0927516 0.1926116     C
C     0.6157516 0.0927516 0.8073916     C
C     0.6157516 0.9072516 0.1926116     C
C     0.6157516 0.9072516 0.8073916     C
H       0.6182   0.1259    0.401     H
H       0.6182   0.1259    0.599     H
H       0.6182   0.8741    0.401     H
H       0.6182   0.8741    0.599     H
H       0.6195   0.0944   0.2678     H
H       0.6195   0.0944   0.7322     H
H       0.6195   0.9056   0.2678     H
H       0.6195   0.9056   0.7322     H
H       0.6225   0.2001   0.3551     H
H       0.6225   0.2001   0.6449     H
H       0.6225   0.7999   0.3551     H
H       0.6225   0.7999   0.6449     H
H       0.6259    0.099   0.1182     H
H       0.6259    0.099   0.8818     H
H       0.6259    0.901   0.1182     H
H       0.6259    0.901   0.8818     H
C     0.6302017 0.2586618 0.1802718     C
C     0.6302017 0.2586618 0.8197318     C
C     0.6302017 0.7413418 0.1802718     C
C     0.6302017 0.7413418 0.8197318     C
C     0.6344618 0.3479218 0.1841917     C
C     0.6344618 0.3479218 0.8158117     C
C     0.6344618 0.6520818 0.1841917     C
C     0.6344618 0.6520818 0.8158117     C
C     0.6360418 0.1042817 0.2383317     C
C     0.6360418 0.1042817 0.7616717     C
C     0.6360418 0.8957217 0.2383317     C
C     0.6360418 0.8957217 0.7616717     C
H       0.6374   0.2271   0.1941     H
H       0.6374   0.2271   0.8059     H
H       0.6374   0.7729   0.1941     H
H       0.6374   0.7729   0.8059     H
C     0.6396417 0.1073417 0.1495318     C
C     0.6396417 0.1073417 0.8504718     C
C     0.6396417 0.8926617 0.1495318     C
C     0.6396417 0.8926617 0.8504718     C
H       0.6431   0.2361   0.2785     H
H       0.6431   0.2361   0.7215     H
H       0.6431   0.7639   0.2785     H
H       0.6431   0.7639   0.7215     H
Cu    0.644404      0.0      0.5    Cu
H       0.6449   0.3775   0.2001     H
H       0.6449   0.3775   0.7999     H
H       0.6449   0.6225   0.2001     H
H       0.6449   0.6225   0.7999     H
C     0.6461016 0.3019118 0.2050618     C
C     0.6461016 0.3019118 0.7949418     C
C     0.6461016 0.6980918 0.2050618     C
C     0.6461016 0.6980918 0.7949418     C
O     0.6488512 0.0523011 0.4498812     O
O     0.6488512 0.0523011 0.5501212     O
O     0.6488512 0.9477011 0.4498812     O
O     0.6488512 0.9477011 0.5501212     O
C     0.6495318 0.1396417 0.3926617     C
C     0.6495318 0.1396417 0.6073417     C
C     0.6495318 0.8603617 0.3926617     C
C     0.6495318 0.8603617 0.6073417     C
C     0.6520818 0.1841917 0.3655418     C
C     0.6520818 0.1841917 0.6344618     C
C     0.6520818 0.8158117 0.3655418     C
C     0.6520818 0.8158117 0.6344618     C
C     0.6703318 0.2578817 0.2831316     C
C     0.6703318 0.2578817 0.7168716     C
C     0.6703318 0.7421217 0.2831316     C
C     0.6703318 0.7421217 0.7168716     C
C     0.6775117 0.2973917 0.2502317     C
C     0.6775117 0.2973917 0.7497717     C
C     0.6775117 0.7026117 0.2502317     C
C     0.6775117 0.7026117 0.7497717     C
O      0.67954      0.5      0.0     O
C     0.6802718 0.1302017 0.2413418     C
C     0.6802718 0.1302017 0.7586618     C
C     0.6802718 0.8698017 0.2413418     C
C     0.6802718 0.8698017 0.7586618     C
C     0.6841917 0.1344618 0.1520818     C
C     0.6841917 0.1344618 0.8479218     C
C     0.6841917 0.8655418 0.1520818     C
C     0.6841917 0.8655418 0.8479218     C
C     0.6908017 0.0692616 0.4377316     C
C     0.6908017 0.0692616 0.5622716     C
C     0.6908017 0.9307416 0.4377316     C
C     0.6908017 0.9307416 0.5622716     C
C     0.6926116 0.1157516 0.4072516     C
C     0.6926116 0.1157516 0.5927516     C
C     0.6926116 0.8842516 0.4072516     C
C     0.6926116 0.8842516 0.5927516     C
H       0.6941   0.1374   0.2729     H
H       0.6941   0.1374   0.7271     H
H       0.6941   0.8626   0.2729     H
H       0.6941   0.8626   0.7271     H
C     0.6980918 0.2050618 0.3539016     C
C     0.6980918 0.2050618 0.6461016     C
C     0.6980918 0.7949418 0.3539016     C
C     0.6980918 0.7949418 0.6461016     C
H       0.7001   0.1449   0.1225     H
H       0.7001   0.1449   0.8775     H
H       0.7001   0.8551   0.1225     H
H       0.7001   0.8551   0.8775     H
C     0.7026117 0.2502317 0.3224917     C
C     0.7026117 0.2502317 0.6775117     C
C     0.7026117 0.7497717 0.3224917     C
C     0.7026117 0.7497717 0.6775117     C
C     0.7050618 0.1461016 0.1980918     C
C     0.7050618 0.1461016 0.8019118     C
C     0.7050618 0.8539016 0.1980918     C
C     0.7050618 0.8539016 0.8019118     C
C     0.7168716 0.3296718 0.2578817     C
C     0.7168716 0.3296718 0.7421217     C
C     0.7168716 0.6703318 0.2578817     C
C     0.7168716 0.6703318 0.7421217     C
H       0.7215   0.3569   0.2361     H
H       0.7215   0.3569   0.7639     H
H       0.7215   0.6431   0.2361     H
H       0.7215   0.6431   0.7639     H
H       0.7271   0.3059   0.1374     H
H       0.7271   0.3059   0.8626     H
H       0.7271   0.6941   0.1374     H
H       0.7271   0.6941   0.8626     H
O     0.7315812 0.0515412 0.4505113     O
O     0.7315812 0.0515412 0.5494913     O
O     0.7315812 0.9484612 0.4505113     O
O     0.7315812 0.9484612 0.5494913     O
H       0.7322   0.3805   0.0944     H
H       0.7322   0.3805   0.9056     H
H       0.7322   0.6195   0.0944     H
H       0.7322   0.6195   0.9056     H
H       0.7361   0.2215   0.1431     H
H       0.7361   0.2215   0.8569     H
H       0.7361   0.7785   0.1431     H
H       0.7361   0.7785   0.8569     H
C     0.7383317 0.1360418 0.3957217     C
C     0.7383317 0.1360418 0.6042817     C
C     0.7383317 0.8639618 0.3957217     C
C     0.7383317 0.8639618 0.6042817     C
Cu    0.740294      0.0      0.5    Cu
C     0.7413418 0.1802718 0.3698017     C
C     0.7413418 0.1802718 0.6302017     C
C     0.7413418 0.8197318 0.3698017     C
C     0.7413418 0.8197318 0.6302017     C
C     0.7421217 0.2831316 0.3296718     C
C     0.7421217 0.2831316 0.6703318     C
C     0.7421217 0.7168716 0.3296718     C
C     0.7421217 0.7168716 0.6703318     C
C     0.7497717 0.3224917 0.2973917     C
C     0.7497717 0.3224917 0.7026117     C
C     0.7497717 0.6775117 0.2973917     C
C     0.7497717 0.6775117 0.7026117     C
C     0.7502317 0.1775117 0.2026117     C
C     0.7502317 0.1775117 0.7973917     C
C     0.7502317 0.8224917 0.2026117     C
C     0.7502317 0.8224917 0.7973917     C
C     0.7578817 0.2168716 0.1703318     C
C     0.7578817 0.2168716 0.8296718     C
C     0.7578817 0.7831316 0.1703318     C
C     0.7578817 0.7831316 0.8296718     C
C     0.7586618 0.3197318 0.1302017     C
C     0.7586618 0.3197318 0.8698017     C
C     0.7586618 0.6802718 0.1302017     C
C     0.7586618 0.6802718 0.8698017     C
Cu    0.759714      0.5      0.0    Cu
C     0.7616717 0.3639618 0.1042817     C
C     0.7616717 0.3639618 0.8957217     C
C     0.7616717 0.6360418 0.1042817     C
C     0.7616717 0.6360418 0.8957217     C
H       0.7639   0.2785   0.3569     H
H       0.7639   0.2785   0.6431     H
H       0.7639   0.7215   0.3569     H
H       0.7639   0.7215   0.6431     H
H       0.7678   0.1195   0.4056     H
H       0.7678   0.1195   0.5944     H
H       0.7678   0.8805   0.4056     H
H       0.7678   0.8805   0.5944     H
O     0.7684212 0.4484612 0.0494913     O
O     0.7684212 0.4484612 0.9505113     O
O     0.7684212 0.5515412 0.0494913     O
O     0.7684212 0.5515412 0.9505113     O
H       0.7729   0.1941   0.3626     H
H       0.7729   0.1941   0.6374     H
H       0.7729   0.8059   0.3626     H
H       0.7729   0.8059   0.6374     H
H       0.7785   0.1431   0.2639     H
H       0.7785   0.1431   0.7361     H
H       0.7785   0.8569   0.2639     H
H       0.7785   0.8569   0.7361     H
C     0.7831316 0.1703318 0.2421217     C
C     0.7831316 0.1703318 0.7578817     C
C     0.7831316 0.8296718 0.2421217     C
C     0.7831316 0.8296718 0.7578817     C
C     0.7949418 0.3539016 0.3019118     C
C     0.7949418 0.3539016 0.6980918     C
C     0.7949418 0.6461016 0.3019118     C
C     0.7949418 0.6461016 0.6980918     C
C     0.7973917 0.2497717 0.1775117     C
C     0.7973917 0.2497717 0.8224917     C
C     0.7973917 0.7502317 0.1775117     C
C     0.7973917 0.7502317 0.8224917     C
H       0.7999   0.3551   0.3775     H
H       0.7999   0.3551   0.6225     H
H       0.7999   0.6449   0.3775     H
H       0.7999   0.6449   0.6225     H
C     0.8019118 0.2949418 0.1461016     C
C     0.8019118 0.2949418 0.8539016     C
C     0.8019118 0.7050618 0.1461016     C
C     0.8019118 0.7050618 0.8539016     C
H       0.8059   0.3626   0.2271     H
H       0.8059   0.3626   0.7729     H
H       0.8059   0.6374   0.2271     H
H       0.8059   0.6374   0.7729     H
C     0.8073916 0.3842516 0.0927516     C
C     0.8073916 0.3842516 0.9072516     C
C     0.8073916 0.6157516 0.0927516     C
C     0.8073916 0.6157516 0.9072516     C
C     0.8092017 0.4307416 0.0622716     C
C     0.8092017 0.4307416 0.9377316     C
C     0.8092017 0.5692616 0.0622716     C
C     0.8092017 0.5692616 0.9377316     C
C     0.8158117 0.3655418 0.3479218     C
C     0.8158117 0.3655418 0.6520818     C
C     0.8158117 0.6344618 0.3479218     C
C     0.8158117 0.6344618 0.6520818     C
C     0.8197318 0.3698017 0.2586618     C
C     0.8197318 0.3698017 0.7413418     C
C     0.8197318 0.6302017 0.2586618     C
C     0.8197318 0.6302017 0.7413418     C
O      0.82054      0.0      0.5     O
C     0.8224917 0.2026117 0.2497717     C
C     0.8224917 0.2026117 0.7502317     C
C     0.8224917 0.7973917 0.2497717     C
C     0.8224917 0.7973917 0.7502317     C
C     0.8296718 0.2421217 0.2168716     C
C     0.8296718 0.2421217 0.7831316     C
C     0.8296718 0.7578817 0.2168716     C
C     0.8296718 0.7578817 0.7831316     C
C     0.8479218 0.3158117 0.1344618     C
C     0.8479218 0.3158117 0.8655418     C
C     0.8479218 0.6841917 0.1344618     C
C     0.8479218 0.6841917 0.8655418     C
C     0.8504718 0.3603617 0.1073417     C
C     0.8504718 0.3603617 0.8926617     C
C     0.8504718 0.6396417 0.1073417     C
C     0.8504718 0.6396417 0.8926617     C
O     0.8511512 0.4477011 0.0501212     O
O     0.8511512 0.4477011 0.9498812     O
O     0.8511512 0.5523011 0.0501212     O
O     0.8511512 0.5523011 0.9498812     O
C     0.8539016 0.1980918 0.2949418     C
C     0.8539016 0.1980918 0.7050618     C
C     0.8539016 0.8019118 0.2949418     C
C     0.8539016 0.8019118 0.7050618     C
H       0.8551   0.1225   0.2999     H
H       0.8551   0.1225   0.7001     H
H       0.8551   0.8775   0.2999     H
H       0.8551   0.8775   0.7001     H
Cu    0.855604      0.5      0.0    Cu
H       0.8569   0.2639   0.2215     H
H       0.8569   0.2639   0.7785     H
H       0.8569   0.7361   0.2215     H
H       0.8569   0.7361   0.7785     H
C     0.8603617 0.3926617 0.3504718     C
C     0.8603617 0.3926617 0.6495318     C
C     0.8603617 0.6073417 0.3504718     C
C     0.8603617 0.6073417 0.6495318     C
H       0.8626   0.2729   0.3059     H
H       0.8626   0.2729   0.6941     H
H       0.8626   0.7271   0.3059     H
H       0.8626   0.7271   0.6941     H
C     0.8639618 0.3957217 0.2616717     C
C     0.8639618 0.3957217 0.7383317     C
C     0.8639618 0.6042817 0.2616717     C
C     0.8639618 0.6042817 0.7383317     C
C     0.8655418 0.1520818 0.3158117     C
C     0.8655418 0.1520818 0.6841917     C
C     0.8655418 0.8479218 0.3158117     C
C     0.8655418 0.8479218 0.6841917     C
C     0.8698017 0.2413418 0.3197318     C
C     0.8698017 0.2413418 0.6802718     C
C     0.8698017 0.7586618 0.3197318     C
C     0.8698017 0.7586618 0.6802718     C
H       0.8741    0.401   0.3818     H
H       0.8741    0.401   0.6182     H
H       0.8741    0.599   0.3818     H
H       0.8741    0.599   0.6182     H
H       0.8775   0.2999   0.1449     H
H       0.8775   0.2999   0.8551     H
H       0.8775   0.7001   0.1449     H
H       0.8775   0.7001   0.8551     H
H       0.8805   0.4056   0.2322     H
H       0.8805   0.4056   0.7678     H
H       0.8805   0.5944   0.2322     H
H       0.8805   0.5944   0.7678     H
H       0.8818   0.3741    0.099     H
H       0.8818   0.3741    0.901     H
H       0.8818   0.6259    0.099     H
H       0.8818   0.6259    0.901     H
C     0.8842516 0.4072516 0.3073916     C
C     0.8842516 0.4072516 0.6926116     C
C     0.8842516 0.5927516 0.3073916     C
C     0.8842516 0.5927516 0.6926116     C
C     0.8926617 0.1495318 0.3603617     C
C     0.8926617 0.1495318 0.6396417     C
C     0.8926617 0.8504718 0.3603617     C
C     0.8926617 0.8504718 0.6396417     C
C     0.8957217 0.2383317 0.3639618     C
C     0.8957217 0.2383317 0.6360418     C
C     0.8957217 0.7616717 0.3639618     C
C     0.8957217 0.7616717 0.6360418     C
H        0.901   0.1182   0.3741     H
H        0.901   0.1182   0.6259     H
H        0.901   0.8818   0.3741     H
H        0.901   0.8818   0.6259     H
H       0.9056   0.2678   0.3805     H
H       0.9056   0.2678   0.6195     H
H       0.9056   0.7322   0.3805     H
H       0.9056   0.7322   0.6195     H
C     0.9072516 0.1926116 0.3842516     C
C     0.9072516 0.1926116 0.6157516     C
C     0.9072516 0.8073916 0.3842516     C
C     0.9072516 0.8073916 0.6157516     C
C     0.9307416 0.4377316 0.3092017     C
C     0.9307416 0.4377316 0.6908017     C
C     0.9307416 0.5622716 0.3092017     C
C     0.9307416 0.5622716 0.6908017     C
C     0.9377316 0.1908017 0.4307416     C
C     0.9377316 0.1908017 0.5692616     C
C     0.9377316 0.8092017 0.4307416     C
C     0.9377316 0.8092017 0.5692616     C
O     0.9477011 0.4498812 0.3511512     O
O     0.9477011 0.4498812 0.6488512     O
O     0.9477011 0.5501212 0.3511512     O
O     0.9477011 0.5501212 0.6488512     O
O     0.9484612 0.4505113 0.2684212     O
O     0.9484612 0.4505113 0.7315812     O
O     0.9484612 0.5494913 0.2684212     O
O     0.9484612 0.5494913 0.7315812     O
O     0.9498812 0.1488512 0.4477011     O
O     0.9498812 0.1488512 0.5523011     O
O     0.9498812 0.8511512 0.4477011     O
O     0.9498812 0.8511512 0.5523011     O
O     0.9505113 0.2315812 0.4484612     O
O     0.9505113 0.2315812 0.5515412     O
O     0.9505113 0.7684212 0.4484612     O
O     0.9505113 0.7684212 0.5515412     O
