data_I
_chemical_name_common  '/Users/gianmarcoterrones/Downloads/MOF-177'
_cell_length_a 37.07200
_cell_length_b 37.07200
_cell_length_c 30.03330
_cell_angle_alpha 90.00000
_cell_angle_beta  90.00000
_cell_angle_gamma 120.00000
_space_group_name_H-M_alt      'P 1'


loop_
_space_group_symop_operation_xyz
  'x, y, z' 

loop_
_atom_site_label
_atom_site_fract_x
_atom_site_fract_y
_atom_site_fract_z
_atom_site_type_symbol
C        0.008   0.3001   0.8863     C
C        0.008   0.7079   0.6137     C
C       0.0125   0.3477   0.8435     C
C       0.0125   0.6648   0.6565     C
H       0.0169  0.28716  0.91612     H
H       0.0169  0.72974  0.58388     H
H      0.01951  0.09517   0.3148     H
H      0.01951  0.92434   0.1852     H
C       0.0214   0.0428     0.75     C
C       0.0214   0.9786     0.75     C
C      0.02165   0.0433     0.25     C
C      0.02165  0.97835     0.25     C
C       0.0233   0.3416   0.3201     C
C       0.0233   0.6817   0.1799     C
H      0.02523  0.38103  0.83136     H
H      0.02523   0.6442  0.66864     H
C       0.0272   0.2985   0.3635     C
C       0.0272   0.7287   0.1365     C
C       0.0308     0.34   0.8758     C
C       0.0308   0.6908   0.6242     C
H      0.03631  0.36526  0.29183     H
H      0.03631  0.67105  0.20817     H
H      0.03884  0.96053     0.75     H
H      0.03947  0.07831     0.75     H
C       0.0403   0.3225   0.3295     C
C       0.0403   0.7178   0.1705     C
C        0.041   0.1128   0.2858     C
C        0.041   0.9282   0.2142     C
C       0.0428   0.0214     0.25     C
C       0.0433  0.02165     0.75     C
H      0.04455  0.28211  0.37533     H
H      0.04455  0.76244  0.12467     H
C      0.04535   0.0907     0.25     C
C      0.04535  0.95465     0.25     C
H      0.05146  0.32901  0.95534     H
H      0.05146  0.72245  0.54466     H
H      0.06017  0.17495  0.31498     H
H      0.06017  0.88522  0.18502     H
C       0.0634   0.1571   0.2858     C
C       0.0634   0.9063   0.2142     C
C       0.0687   0.3699   0.8982     C
C       0.0687   0.6988   0.6018     C
C       0.0718   0.1128   0.2142     C
C       0.0718    0.959   0.2858     C
C        0.075   0.3607   0.9411     C
C        0.075   0.7143   0.5589     C
C       0.0754   0.3285   0.3072     C
C       0.0754   0.7469   0.1928     C
H      0.07566  0.09517   0.1852     H
H      0.07566  0.98049   0.3148     H
H      0.07831  0.03884     0.25     H
C       0.0888   0.1776     0.25     C
C       0.0888   0.9112     0.25     C
C       0.0907  0.04535     0.75     C
H      0.09185  0.41401  0.84407     H
H      0.09185  0.67784  0.65593     H
O       0.0924   0.3527   0.2757     O
O       0.0924   0.7397   0.2243     O
H      0.09241   0.3148   0.9992     H
H      0.09241  0.77761   0.5008     H
O       0.0933   0.3047   0.3185     O
O       0.0933   0.7886   0.1815     O
C       0.0937   0.1571   0.2142     C
C       0.0937   0.9366   0.2858     C
H      0.09517  0.01951   0.8148     H
H      0.09517  0.07566   0.6852     H
C       0.0976   0.4068   0.8794     C
C       0.0976   0.6908   0.6206     C
H      0.10264  0.29939  0.08176     H
H      0.10264  0.80325  0.41824     H
C       0.1052   0.3404   0.0255     C
C       0.1052   0.7648   0.4745     C
C       0.1084   0.3884   0.9665     C
C       0.1084     0.72   0.5335     C
C      0.11045   0.2209     0.25     C
C      0.11045  0.88955     0.25     C
C        0.112   0.3324   0.0709     C
C        0.112   0.7796   0.4291     C
C       0.1128    0.041   0.7858     C
C       0.1128   0.0718   0.7142     C
C       0.1147   0.3806   0.0142     C
C       0.1147   0.7341   0.4858     C
H      0.11478  0.17495  0.18502     H
H      0.11478  0.93983  0.31498     H
O       0.1186   0.2396   0.2121     O
O       0.1186    0.879   0.2879     O
O        0.121   0.2396   0.2879     O
O        0.121   0.8814   0.2121     O
H      0.12292  0.47833   0.8391     H
H      0.12292  0.64459   0.6609     H
C       0.1278   0.3599   0.0996     C
C       0.1278   0.7679   0.4004     C
C       0.1319   0.4073   0.0469     C
C       0.1319   0.7246   0.4531     C
O       0.1328   0.3716   0.1786     O
O       0.1328   0.7612   0.3214     O
C       0.1329   0.4349    0.902     C
C       0.1329    0.698    0.598     C
C       0.1336   0.3504    0.146     C
C       0.1336   0.7832    0.354     C
C       0.1347   0.3985   0.0888     C
C       0.1347   0.7362   0.4112     C
C       0.1368   0.4249   0.9464     C
C       0.1368   0.7119   0.5536     C
O       0.1389   0.3185   0.1489     O
O       0.1389   0.8204   0.3511     O
Zn        0.14    0.296   0.3017    Zn
Zn        0.14    0.844   0.1983    Zn
Zn      0.1417   0.3663   0.2398    Zn
Zn      0.1417   0.7754   0.2602    Zn
H      0.14282  0.42289  0.11592     H
H      0.14282  0.71993  0.38408     H
H       0.1464   0.4421  0.04029     H
H       0.1464   0.7043  0.45971     H
Zn       0.156    0.296   0.1983    Zn
Zn       0.156     0.86   0.3017    Zn
C       0.1565   0.4917   0.8507     C
C       0.1565   0.6648   0.6493     C
C       0.1571   0.0634   0.7858     C
C       0.1571   0.0937   0.7142     C
C       0.1652   0.4734   0.8815     C
C       0.1652   0.6918   0.6185     C
H      0.16522  0.44888   0.9657     H
H      0.16522  0.71634   0.5343     H
O     0.166233 0.833333     0.25     O
O     0.166667   0.3329     0.25     O
H      0.17411  0.54205  0.80366     H
H      0.17411  0.63206  0.69634     H
H      0.17495  0.06017  0.81498     H
H      0.17495  0.11478  0.68502     H
C       0.1776   0.0888     0.75     C
O       0.1796   0.3185   0.3511     O
O       0.1796   0.8611   0.1489     O
O       0.1816   0.4245   0.2536     O
O       0.1816   0.7571   0.2464     O
C        0.185   0.5272   0.8297     C
C        0.185   0.6578   0.6703     C
H      0.19388  0.49397  0.27674     H
H      0.19388  0.69991  0.22326     H
H      0.19675  0.29939  0.41824     H
H      0.19675  0.89736  0.08176     H
C       0.2045   0.4919    0.893     C
C       0.2045   0.7126    0.607     C
O       0.2114   0.3047   0.1815     O
O       0.2114   0.9067   0.3185     O
H      0.21514  0.47808  0.92045     H
H      0.21514  0.73706  0.57955     H
C       0.2168   0.3504    0.354     C
C       0.2168   0.8664    0.146     C
C       0.2204   0.3324   0.4291     C
C       0.2204    0.888   0.0709     C
C       0.2209  0.11045     0.75     C
C      0.22155   0.4431     0.25     C
C      0.22155  0.77845     0.25     C
H      0.22239   0.3148   0.5008     H
H      0.22239  0.90759   0.9992     H
C       0.2245   0.5442   0.8392     C
C       0.2245   0.6803   0.6608     C
Zn      0.2246   0.3663   0.2602    Zn
Zn      0.2246   0.8583   0.2398    Zn
C       0.2274   0.5124   0.2644     C
C       0.2274    0.715   0.2356     C
H       0.2313  0.57154  0.27671     H
H       0.2313  0.65976  0.22329     H
C       0.2321   0.3599   0.4004     C
C       0.2321   0.8722   0.0996     C
C       0.2324   0.5276    0.872     C
C       0.2324   0.7048    0.628     C
C       0.2352   0.3404   0.4745     C
C       0.2352   0.8948   0.0255     C
H      0.23756  0.28211  0.12467     H
H      0.23756  0.95545  0.37533     H
O       0.2385   0.6047   0.8007     O
O       0.2388   0.3716   0.3214     O
O       0.2388   0.8672   0.1786     O
O       0.2396   0.1186   0.7121     O
O       0.2396    0.121   0.7879     O
O       0.2429   0.4245   0.2464     O
O       0.2429   0.8184   0.2536     O
C      0.24505   0.4901     0.25     C
C      0.24505  0.75495     0.25     C
C       0.2474    0.554   0.2646     C
C       0.2474   0.6934   0.2354     C
C       0.2531   0.3285   0.1928     C
O       0.2531   0.6677    0.727     O
C       0.2531   0.9246   0.3072     C
H       0.2541  0.62645     0.25     H
C       0.2597   0.5844   0.8174     C
C       0.2597   0.6753   0.6826     C
O       0.2603   0.3527   0.2243     O
O       0.2603   0.9076   0.2757     O
H      0.26294  0.47808  0.57955     H
H      0.26294  0.78486  0.92045     H
C       0.2638   0.3985   0.4112     C
C       0.2638   0.8653   0.0888     C
C       0.2659   0.3806   0.4858     C
C       0.2659   0.8853   0.0142     C
H      0.26619  0.54529  0.88362     H
H      0.26619   0.7209  0.61638     H
H      0.27026  0.28716  0.58388     H
H      0.27026   0.9831  0.91612     H
C       0.2713   0.2985   0.1365     C
C       0.2713   0.9728   0.3635     C
C       0.2754   0.4073   0.4531     C
C       0.2754   0.8681   0.0469     C
H      0.27755  0.32901  0.54466     H
H      0.27755  0.94854  0.95534     H
H       0.2791  0.54529  0.61638     H
H       0.2791  0.73381  0.88362     H
C         0.28   0.3884   0.5335     C
C         0.28   0.8916   0.9665     C
H      0.28007  0.42289  0.38408     H
H      0.28007  0.85718  0.11592     H
Zn      0.2812   0.6593   0.7779    Zn
H      0.28211  0.04455  0.87533     H
H      0.28211  0.23756  0.62467     H
C       0.2822   0.3225   0.1705     C
C       0.2822   0.9597   0.3295     C
H      0.28366  0.44888   0.5343     H
H      0.28366  0.83478   0.9657     H
C        0.285   0.5124   0.2356     C
C        0.285   0.7726   0.2644     C
C       0.2857   0.3607   0.5589     C
C       0.2857    0.925   0.9411     C
H      0.28716   0.0169  0.41612     H
H      0.28716  0.27026  0.08388     H
C       0.2874   0.4919    0.607     C
C       0.2874   0.7955    0.893     C
C       0.2878   0.5756     0.25     C
C       0.2878   0.7122     0.25     C
C       0.2881   0.4249   0.5536     C
C       0.2881   0.8632   0.9464     C
O       0.2882    0.706   0.8102     O
O       0.2884   0.6733   0.6653     O
C       0.2896   0.6448     0.25     C
C       0.2921   0.3001   0.6137     C
C       0.2921    0.992   0.8863     C
O        0.294   0.5822   0.8102     O
C       0.2952   0.5276    0.628     C
C       0.2952   0.7676    0.872     C
H       0.2957   0.4421  0.45971     H
H       0.2957   0.8536  0.04029     H
Zn       0.296     0.14   0.8017    Zn
Zn       0.296    0.156   0.6983    Zn
C       0.2985   0.0272   0.8635     C
C       0.2985   0.2713   0.6365     C
H      0.29939  0.10264  0.58176     H
H      0.29939  0.19675  0.91824     H
H      0.30009  0.49397  0.22326     H
H      0.30009  0.80612  0.27674     H
C       0.3001    0.008   0.3863     C
C       0.3001   0.2921   0.1137     C
C       0.3012   0.3699   0.6018     C
C       0.3012   0.9313   0.8982     C
C        0.302   0.4349    0.598     C
C        0.302   0.8671    0.902     C
O       0.3047   0.0933   0.8185     O
O       0.3047   0.2114   0.6815     O
C       0.3066    0.554   0.2354     C
C       0.3066   0.7526   0.2646     C
C       0.3082   0.4734   0.6185     C
C       0.3082   0.8348   0.8815     C
C       0.3092     0.34   0.6242     C
C       0.3092   0.4068   0.6206     C
C       0.3092   0.9024   0.8794     C
C       0.3092   0.9692   0.8758     C
C      0.31195   0.6239     0.25     C
C      0.31195  0.68805     0.25     C
H       0.3148  0.09241   0.4992     H
H       0.3148  0.22239   0.0008     H
C       0.3183   0.3416   0.1799     C
C       0.3183   0.9767   0.3201     C
O       0.3185   0.1389   0.6489     O
O       0.3185   0.1796   0.8511     O
C       0.3197   0.5442   0.6608     C
C       0.3197   0.7755   0.8392     C
H      0.32216  0.41401  0.65593     H
H      0.32216  0.90815  0.84407     H
C       0.3225   0.0403   0.8295     C
C       0.3225   0.2822   0.6705     C
C       0.3247   0.5844   0.6826     C
C       0.3247   0.7403   0.8174     C
O       0.3267   0.6151   0.6653     O
C       0.3285   0.0754   0.8072     C
C       0.3285   0.2531   0.6928     C
H      0.32895  0.36526  0.20817     H
H      0.32895  0.96369  0.29183     H
H      0.32901  0.05146  0.45534     H
H      0.32901  0.27755  0.04466     H
O       0.3323   0.5854    0.727     O
C       0.3324    0.112   0.5709     C
C       0.3324   0.2204   0.9291     C
O       0.3329 0.166667     0.75     O
Zn    0.333333 0.666667   0.6904    Zn
O     0.333333 0.666667     0.75     O
C       0.3352   0.3477   0.6565     C
C       0.3352   0.4917   0.6493     C
C       0.3352   0.8435   0.8507     C
C       0.3352   0.9875   0.8435     C
C         0.34   0.0308   0.3758     C
C         0.34   0.3092   0.1242     C
H      0.34024  0.57154  0.22329     H
H      0.34024   0.7687  0.27671     H
C       0.3404   0.1052   0.5255     C
C       0.3404   0.2352   0.9745     C
Zn      0.3407   0.6219   0.7779    Zn
C       0.3416   0.0233   0.8201     C
C       0.3416   0.3183   0.6799     C
C       0.3422   0.5272   0.6703     C
C       0.3422    0.815   0.8297     C
C       0.3477   0.0125   0.3435     C
C       0.3477   0.3352   0.1565     C
C       0.3504   0.1336    0.646     C
C       0.3504   0.2168    0.854     C
O       0.3527   0.0924   0.7757     O
O       0.3527   0.2603   0.7243     O
C       0.3552   0.6448     0.25     C
C       0.3552   0.7104     0.25     C
H      0.35541  0.47833   0.6609     H
H      0.35541  0.87708   0.8391     H
H       0.3558  0.38103  0.66864     H
H       0.3558  0.97477  0.83136     H
C       0.3599   0.1278   0.5996     C
C       0.3599   0.2321   0.9004     C
C       0.3607    0.075   0.4411     C
C       0.3607   0.2857   0.0589     C
H      0.36526  0.03631  0.79183     H
H      0.36526  0.32895  0.70817     H
O       0.3662   0.7615   0.8007     O
Zn      0.3663   0.1417   0.7398    Zn
Zn      0.3663   0.2246   0.7602    Zn
H      0.36794  0.54205  0.69634     H
H      0.36794  0.82589  0.80366     H
C       0.3699   0.0687   0.3982     C
C       0.3699   0.3012   0.1018     C
O       0.3716   0.1328   0.6786     O
O       0.3716   0.2388   0.8214     O
H      0.37235   0.7459     0.25     H
H      0.37355  0.62765     0.25     H
C       0.3761  0.68805     0.25     C
Zn      0.3781   0.7188   0.7779    Zn
C       0.3806   0.1147   0.5142     C
C       0.3806   0.2659   0.9858     C
H      0.38103  0.02523  0.33136     H
H      0.38103   0.3558  0.16864     H
O       0.3849   0.7116   0.6653     O
C       0.3884   0.1084   0.4665     C
C       0.3884     0.28   0.0335     C
O       0.3953   0.6338   0.8007     O
C       0.3985   0.1347   0.5888     C
C       0.3985   0.2638   0.9112     C
C       0.4068   0.0976   0.3794     C
C       0.4068   0.3092   0.1206     C
C       0.4073   0.1319   0.5469     C
C       0.4073   0.2754   0.9531     C
H      0.41401  0.09185  0.34407     H
H      0.41401  0.32216  0.15593     H
O       0.4146   0.7469    0.727     O
C       0.4156   0.6753   0.8174     C
C       0.4156   0.7403   0.6826     C
O       0.4178   0.7118   0.8102     O
H      0.42289  0.14282  0.61592     H
H      0.42289  0.28007  0.88408     H
C       0.4244   0.7122     0.25     C
O       0.4245   0.1816   0.7536     O
O       0.4245   0.2429   0.7464     O
C       0.4249   0.1368   0.4464     C
C       0.4249   0.2881   0.0536     C
H      0.42846  0.65976  0.27671     H
H      0.42846   0.7687  0.22329     H
C       0.4349   0.1329    0.402     C
C       0.4349    0.302    0.098     C
H       0.4421   0.1464  0.54029     H
H       0.4421   0.2957  0.95971     H
C       0.4431  0.22155     0.75     C
C        0.446   0.6934   0.2646     C
C        0.446   0.7526   0.2354     C
H      0.44888  0.16522   0.4657     H
H      0.44888  0.28366   0.0343     H
H      0.45471   0.7209  0.88362     H
H      0.45471  0.73381  0.61638     H
C       0.4558   0.6803   0.8392     C
C       0.4558   0.7755   0.6608     C
H      0.45795  0.63206  0.80366     H
H      0.45795  0.82589  0.69634     H
C       0.4724   0.7048    0.872     C
C       0.4724   0.7676    0.628     C
C       0.4728   0.6578   0.8297     C
C       0.4728    0.815   0.6703     C
C       0.4734   0.1652   0.3815     C
C       0.4734   0.3082   0.1185     C
H      0.47808  0.21514  0.42045     H
H      0.47808  0.26294  0.07955     H
H      0.47833  0.12292   0.3391     H
H      0.47833  0.35541   0.1609     H
C       0.4876    0.715   0.2644     C
C       0.4876   0.7726   0.2356     C
C       0.4901  0.24505     0.75     C
C       0.4917   0.1565   0.3507     C
C       0.4917   0.3352   0.1493     C
C       0.4919   0.2045    0.393     C
C       0.4919   0.2874    0.107     C
H      0.49397  0.19388  0.77674     H
H      0.49397  0.30009  0.72326     H
H      0.50603  0.69991  0.27674     H
H      0.50603  0.80612  0.22326     H
C       0.5081   0.7126    0.893     C
C       0.5081   0.7955    0.607     C
C       0.5083   0.6648   0.8507     C
C       0.5083   0.8435   0.6493     C
C       0.5099  0.75495     0.25     C
C       0.5124   0.2274   0.7644     C
C       0.5124    0.285   0.7356     C
H      0.52167  0.64459   0.8391     H
H      0.52167  0.87708   0.6609     H
H      0.52192  0.73706  0.92045     H
H      0.52192  0.78486  0.57955     H
C       0.5266   0.6918   0.8815     C
C       0.5266   0.8348   0.6185     C
C       0.5272    0.185   0.3297     C
C       0.5272   0.3422   0.1703     C
C       0.5276   0.2324    0.372     C
C       0.5276   0.2952    0.128     C
H      0.54205  0.17411  0.30366     H
H      0.54205  0.36794  0.19634     H
C       0.5442   0.2245   0.3392     C
C       0.5442   0.3197   0.1608     C
H      0.54529  0.26619  0.38362     H
H      0.54529   0.2791  0.11638     H
H      0.55112  0.71634   0.9657     H
H      0.55112  0.83478   0.5343     H
C        0.554   0.2474   0.7646     C
C        0.554   0.3066   0.7354     C
C       0.5569  0.77845     0.25     C
H       0.5579   0.7043  0.04029     H
H       0.5579   0.8536  0.45971     H
C       0.5651    0.698    0.902     C
C       0.5651   0.8671    0.598     C
H      0.57154   0.2313  0.77671     H
H      0.57154  0.34024  0.72329     H
C       0.5751   0.7119   0.9464     C
C       0.5751   0.8632   0.5536     C
O       0.5755   0.7571   0.2536     O
O       0.5755   0.8184   0.2464     O
C       0.5756   0.2878     0.75     C
H      0.57711  0.71993  0.11592     H
H      0.57711  0.85718  0.38408     H
O       0.5822    0.294   0.3102     O
C       0.5844   0.2597   0.3174     C
C       0.5844   0.3247   0.1826     C
O       0.5854   0.3323    0.227     O
H      0.58599  0.67784  0.84407     H
H      0.58599  0.90815  0.65593     H
C       0.5927   0.7246   0.0469     C
C       0.5927   0.8681   0.4531     C
C       0.5932   0.6908   0.8794     C
C       0.5932   0.9024   0.6206     C
C       0.6015   0.7362   0.0888     C
C       0.6015   0.8653   0.4112     C
O       0.6047   0.2385   0.3007     O
C       0.6116     0.72   0.9665     C
C       0.6116   0.8916   0.5335     C
O       0.6151   0.3267   0.1653     O
H      0.61897   0.6442  0.83136     H
H      0.61897  0.97477  0.66864     H
C       0.6194   0.7341   0.0142     C
C       0.6194   0.8853   0.4858     C
Zn      0.6219   0.3407   0.2779    Zn
C       0.6239  0.31195     0.75     C
H      0.62645  0.37235     0.75     H
H      0.62765   0.2541     0.75     H
O       0.6284   0.7612   0.1786     O
O       0.6284   0.8672   0.3214     O
C       0.6301   0.6988   0.8982     C
C       0.6301   0.9313   0.6018     C
H      0.63206  0.17411  0.19634     H
H      0.63206  0.45795  0.30366     H
Zn      0.6337   0.7754   0.2398    Zn
Zn      0.6337   0.8583   0.2602    Zn
O       0.6338   0.3953   0.3007     O
H      0.63474  0.67105  0.29183     H
H      0.63474  0.96369  0.20817     H
C       0.6393   0.7143   0.9411     C
C       0.6393    0.925   0.5589     C
C       0.6401   0.7679   0.0996     C
C       0.6401   0.8722   0.4004     C
H       0.6442  0.02523  0.16864     H
H       0.6442  0.61897  0.33136     H
H      0.64459  0.12292   0.1609     H
H      0.64459  0.52167   0.3391     H
C       0.6448   0.2896     0.75     C
C       0.6448   0.3552     0.75     C
O       0.6473   0.7397   0.2757     O
O       0.6473   0.9076   0.2243     O
C       0.6496   0.7832    0.146     C
C       0.6496   0.8664    0.354     C
C       0.6523   0.6648   0.8435     C
C       0.6523   0.9875   0.6565     C
C       0.6578    0.185   0.1703     C
C       0.6578   0.4728   0.3297     C
C       0.6584   0.6817   0.3201     C
C       0.6584   0.9767   0.1799     C
Zn      0.6593   0.2812   0.2779    Zn
C       0.6596   0.7648   0.0255     C
C       0.6596   0.8948   0.4745     C
H      0.65976   0.2313  0.72329     H
H      0.65976  0.42846  0.77671     H
C         0.66   0.6908   0.8758     C
C         0.66   0.9692   0.6242     C
C       0.6648   0.0125   0.1565     C
C       0.6648   0.1565   0.1493     C
C       0.6648   0.5083   0.3507     C
C       0.6648   0.6523   0.3435     C
Zn    0.666667 0.333333   0.1904    Zn
O     0.666667 0.333333     0.25     O
O       0.6671 0.833767     0.25     O
C       0.6676   0.7796   0.0709     C
C       0.6676    0.888   0.4291     C
O       0.6677   0.2531    0.227     O
H      0.67099  0.72245  0.95534     H
H      0.67099  0.94854  0.54466     H
H      0.67105  0.03631  0.70817     H
H      0.67105  0.63474  0.79183     H
C       0.6715   0.7469   0.3072     C
C       0.6715   0.9246   0.1928     C
O       0.6733   0.2884   0.1653     O
C       0.6753   0.2597   0.1826     C
C       0.6753   0.4156   0.3174     C
C       0.6775   0.7178   0.3295     C
C       0.6775   0.9597   0.1705     C
H      0.67784  0.09185  0.15593     H
H      0.67784  0.58599  0.34407     H
C       0.6803   0.2245   0.1608     C
C       0.6803   0.4558   0.3392     C
O       0.6815   0.8204   0.1489     O
O       0.6815   0.8611   0.3511     O
C       0.6817   0.0233   0.6799     C
C       0.6817   0.6584   0.8201     C
H       0.6852  0.77761   0.9992     H
H       0.6852  0.90759   0.5008     H
C      0.68805  0.31195     0.75     C
C      0.68805   0.3761     0.75     C
C       0.6908   0.0308   0.1242     C
C       0.6908   0.0976   0.1206     C
C       0.6908   0.5932   0.3794     C
C       0.6908     0.66   0.3758     C
C       0.6918   0.1652   0.1185     C
C       0.6918   0.5266   0.3815     C
C       0.6934   0.2474   0.7354     C
C       0.6934    0.446   0.7646     C
O       0.6953   0.7886   0.3185     O
O       0.6953   0.9067   0.1815     O
C        0.698   0.1329    0.098     C
C        0.698   0.5651    0.402     C
C       0.6988   0.0687   0.1018     C
C       0.6988   0.6301   0.3982     C
C       0.6999   0.7079   0.8863     C
C       0.6999    0.992   0.6137     C
H      0.69991  0.19388  0.72326     H
H      0.69991  0.50603  0.77674     H
H      0.70061  0.80325  0.08176     H
H      0.70061  0.89736  0.41824     H
C       0.7015   0.7287   0.3635     C
C       0.7015   0.9728   0.1365     C
Zn       0.704    0.844   0.3017    Zn
Zn       0.704     0.86   0.1983    Zn
H       0.7043   0.1464  0.95971     H
H       0.7043   0.5579  0.54029     H
C       0.7048   0.2324    0.128     C
C       0.7048   0.4724    0.372     C
O        0.706   0.2882   0.3102     O
C       0.7079    0.008   0.1137     C
C       0.7079   0.6999   0.3863     C
C       0.7104   0.3552     0.75     C
O       0.7116   0.3849   0.1653     O
O       0.7118   0.4178   0.3102     O
C       0.7119   0.1368   0.0536     C
C       0.7119   0.5751   0.4464     C
C       0.7122   0.2878     0.75     C
C       0.7122   0.4244     0.75     C
C       0.7126   0.2045    0.107     C
C       0.7126   0.5081    0.393     C
H      0.71284  0.72974  0.91612     H
H      0.71284   0.9831  0.58388     H
C       0.7143    0.075   0.0589     C
C       0.7143   0.6393   0.4411     C
C        0.715   0.2274   0.7356     C
C        0.715   0.4876   0.7644     C
H      0.71634  0.16522   0.0343     H
H      0.71634  0.55112   0.4657     H
C       0.7178   0.0403   0.6705     C
C       0.7178   0.6775   0.8295     C
H      0.71789  0.76244  0.37533     H
H      0.71789  0.95545  0.12467     H
Zn      0.7188   0.3781   0.2779    Zn
H      0.71993  0.14282  0.88408     H
H      0.71993  0.57711  0.61592     H
C         0.72   0.1084   0.0335     C
C         0.72   0.6116   0.4665     C
H       0.7209  0.26619  0.11638     H
H       0.7209  0.45471  0.38362     H
H      0.72245  0.05146  0.04466     H
H      0.72245  0.67099  0.45534     H
C       0.7246   0.1319   0.9531     C
C       0.7246   0.5927   0.5469     C
C       0.7287   0.0272   0.6365     C
C       0.7287   0.7015   0.8635     C
H      0.72974   0.0169  0.08388     H
H      0.72974  0.71284  0.41612     H
H      0.73381   0.2791  0.38362     H
H      0.73381  0.45471  0.11638     H
C       0.7341   0.1147   0.9858     C
C       0.7341   0.6194   0.5142     C
C       0.7362   0.1347   0.9112     C
C       0.7362   0.6015   0.5888     C
H      0.73706  0.21514  0.07955     H
H      0.73706  0.52192  0.42045     H
O       0.7397   0.0924   0.7243     O
O       0.7397   0.6473   0.7757     O
C       0.7403   0.3247   0.3174     C
C       0.7403   0.4156   0.1826     C
H       0.7459  0.37355     0.75     H
C       0.7469   0.0754   0.6928     C
O       0.7469   0.4146    0.227     O
C       0.7469   0.6715   0.8072     C
C       0.7526   0.3066   0.7646     C
C       0.7526    0.446   0.7354     C
C      0.75495  0.24505     0.75     C
C      0.75495   0.5099     0.75     C
O       0.7571   0.1816   0.7464     O
O       0.7571   0.5755   0.7536     O
O       0.7604    0.879   0.2121     O
O       0.7604   0.8814   0.2879     O
O       0.7612   0.1328   0.8214     O
O       0.7612   0.6284   0.6786     O
O       0.7615   0.3662   0.3007     O
H      0.76244  0.04455  0.62467     H
H      0.76244  0.71789  0.87533     H
C       0.7648   0.1052   0.9745     C
C       0.7648   0.6596   0.5255     C
C       0.7676   0.2952    0.372     C
C       0.7676   0.4724    0.128     C
C       0.7679   0.1278   0.9004     C
C       0.7679   0.6401   0.5996     C
H       0.7687  0.34024  0.77671     H
H       0.7687  0.42846  0.72329     H
C       0.7726    0.285   0.7644     C
C       0.7726   0.4876   0.7356     C
Zn      0.7754   0.1417   0.7602    Zn
Zn      0.7754   0.6337   0.7398    Zn
C       0.7755   0.3197   0.3392     C
C       0.7755   0.4558   0.1608     C
H      0.77761  0.09241   0.0008     H
H      0.77761   0.6852   0.4992     H
C      0.77845  0.22155     0.75     C
C      0.77845   0.5569     0.75     C
C       0.7791  0.88955     0.25     C
C       0.7796    0.112   0.9291     C
C       0.7796   0.6676   0.5709     C
C       0.7832   0.1336    0.854     C
C       0.7832   0.6496    0.646     C
H      0.78486  0.26294  0.42045     H
H      0.78486  0.52192  0.07955     H
O       0.7886   0.0933   0.6815     O
O       0.7886   0.6953   0.8185     O
C       0.7955   0.2874    0.393     C
C       0.7955   0.5081    0.107     C
H      0.80325  0.10264  0.91824     H
H      0.80325  0.70061  0.58176     H
H      0.80612  0.30009  0.77674     H
H      0.80612  0.50603  0.72326     H
C        0.815   0.3422   0.3297     C
C        0.815   0.4728   0.1703     C
O       0.8184   0.2429   0.7536     O
O       0.8184   0.5755   0.7464     O
O       0.8204   0.1389   0.8511     O
O       0.8204   0.6815   0.6489     O
C       0.8224   0.9112     0.25     C
H      0.82505  0.88522  0.31498     H
H      0.82505  0.93983  0.18502     H
H      0.82589  0.36794  0.30366     H
H      0.82589  0.45795  0.19634     H
O     0.833333 0.166233     0.75     O
O     0.833767   0.6671     0.75     O
H      0.83478  0.28366   0.4657     H
H      0.83478  0.55112   0.0343     H
C       0.8348   0.3082   0.3815     C
C       0.8348   0.5266   0.1185     C
C       0.8429   0.9063   0.2858     C
C       0.8429   0.9366   0.2142     C
C       0.8435   0.3352   0.3507     C
C       0.8435   0.5083   0.1493     C
Zn       0.844     0.14   0.6983    Zn
Zn       0.844    0.704   0.8017    Zn
H       0.8536   0.2957  0.54029     H
H       0.8536   0.5579  0.95971     H
H      0.85718  0.28007  0.61592     H
H      0.85718  0.57711  0.88408     H
Zn      0.8583   0.2246   0.7398    Zn
Zn      0.8583   0.6337   0.7602    Zn
Zn        0.86    0.156   0.8017    Zn
Zn        0.86    0.704   0.6983    Zn
O       0.8611   0.1796   0.6489     O
O       0.8611   0.6815   0.8511     O
C       0.8632   0.2881   0.4464     C
C       0.8632   0.5751   0.0536     C
C       0.8653   0.2638   0.5888     C
C       0.8653   0.6015   0.9112     C
C       0.8664   0.2168    0.646     C
C       0.8664   0.6496    0.854     C
C       0.8671    0.302    0.402     C
C       0.8671   0.5651    0.098     C
O       0.8672   0.2388   0.6786     O
O       0.8672   0.6284   0.8214     O
C       0.8681   0.2754   0.5469     C
C       0.8681   0.5927   0.9531     C
C       0.8722   0.2321   0.5996     C
C       0.8722   0.6401   0.9004     C
H      0.87708  0.35541   0.3391     H
H      0.87708  0.52167   0.1609     H
O        0.879   0.1186   0.7879     O
O        0.879   0.7604   0.7121     O
O       0.8814    0.121   0.7121     O
O       0.8814   0.7604   0.7879     O
H      0.88522  0.06017  0.68502     H
H      0.88522  0.82505  0.81498     H
C       0.8853   0.2659   0.5142     C
C       0.8853   0.6194   0.9858     C
C       0.8872   0.9282   0.2858     C
C       0.8872    0.959   0.2142     C
C        0.888   0.2204   0.5709     C
C        0.888   0.6676   0.9291     C
C      0.88955  0.11045     0.75     C
C      0.88955   0.7791     0.75     C
C       0.8916     0.28   0.4665     C
C       0.8916   0.6116   0.0335     C
C       0.8948   0.2352   0.5255     C
C       0.8948   0.6596   0.9745     C
H      0.89736  0.19675  0.58176     H
H      0.89736  0.70061  0.91824     H
C       0.9024   0.3092   0.3794     C
C       0.9024   0.5932   0.1206     C
H      0.90483  0.92434   0.3148     H
H      0.90483  0.98049   0.1852     H
C       0.9063   0.0634   0.7142     C
C       0.9063   0.8429   0.7858     C
O       0.9067   0.2114   0.8185     O
O       0.9067   0.6953   0.6815     O
H      0.90759  0.22239   0.4992     H
H      0.90759   0.6852   0.0008     H
O       0.9076   0.2603   0.7757     O
O       0.9076   0.6473   0.7243     O
H      0.90815  0.32216  0.34407     H
H      0.90815  0.58599  0.15593     H
C       0.9093  0.95465     0.25     C
C       0.9112   0.0888     0.75     C
C       0.9112   0.8224     0.75     C
H      0.92169  0.96116     0.75     H
H      0.92434  0.01951   0.6852     H
H      0.92434  0.90483   0.8148     H
C       0.9246   0.2531   0.8072     C
C       0.9246   0.6715   0.6928     C
C        0.925   0.2857   0.4411     C
C        0.925   0.6393   0.0589     C
C       0.9282    0.041   0.7142     C
C       0.9282   0.8872   0.7858     C
C       0.9313   0.3012   0.3982     C
C       0.9313   0.6301   0.1018     C
C       0.9366   0.0937   0.7858     C
C       0.9366   0.8429   0.7142     C
H      0.93983  0.11478  0.81498     H
H      0.93983  0.82505  0.68502     H
H      0.94854  0.27755  0.45534     H
H      0.94854  0.67099  0.04466     H
C      0.95465  0.04535     0.75     C
C      0.95465   0.9093     0.75     C
H      0.95545  0.23756  0.87533     H
H      0.95545  0.71789  0.62467     H
C       0.9567  0.97835     0.25     C
C       0.9572   0.9786     0.75     C
C        0.959   0.0718   0.7858     C
C        0.959   0.8872   0.7142     C
C       0.9597   0.2822   0.8295     C
C       0.9597   0.6775   0.6705     C
H      0.96053  0.92169     0.25     H
H      0.96116  0.03947     0.25     H
H      0.96369  0.32895  0.79183     H
H      0.96369  0.63474  0.70817     H
C       0.9692   0.3092   0.3758     C
C       0.9692     0.66   0.1242     C
C       0.9728   0.2713   0.8635     C
C       0.9728   0.7015   0.6365     C
H      0.97477   0.3558  0.33136     H
H      0.97477  0.61897  0.16864     H
C       0.9767   0.3183   0.8201     C
C       0.9767   0.6584   0.6799     C
C      0.97835  0.02165     0.75     C
C      0.97835   0.9567     0.75     C
C       0.9786   0.0214     0.25     C
C       0.9786   0.9572     0.25     C
H      0.98049  0.07566   0.8148     H
H      0.98049  0.90483   0.6852     H
H       0.9831  0.27026  0.41612     H
H       0.9831  0.71284  0.08388     H
C       0.9875   0.3352   0.3435     C
C       0.9875   0.6523   0.1565     C
C        0.992   0.2921   0.3863     C
C        0.992   0.6999   0.1137     C
