data_I
_chemical_name_common  '/Users/gianmarcoterrones/Downloads/MONT1_no_solvent'
_cell_length_a 42.26010
_cell_length_b 42.26010
_cell_length_c  9.63690
_cell_angle_alpha 90.00000
_cell_angle_beta  90.00000
_cell_angle_gamma 90.00000
_space_group_name_H-M_alt      'P 1'


loop_
_space_group_symop_operation_xyz
  'x, y, z' 

loop_
_atom_site_label
_atom_site_fract_x
_atom_site_fract_y
_atom_site_fract_z
_atom_site_type_symbol
C      0.00014  0.05474 0.254514     C
C      0.00014  0.55474 0.745514     C
H       0.0005   0.0574   0.3503     H
H       0.0005   0.5574   0.6497     H
C      0.00254  0.45614 0.976613     C
C      0.00254  0.95614 0.023413     C
H       0.0028   0.4602   0.8818     H
H       0.0028   0.9602   0.1182     H
H       0.0101   0.1063   0.5285     H
H       0.0101   0.6063   0.4715     H
C      0.01122  0.37392  0.83449     C
C      0.01122  0.87392  0.16569     C
C      0.01324  0.38424 0.700916     C
C      0.01324  0.88424 0.299116     C
C      0.01334  0.11194 0.620817     C
C      0.01334  0.61194 0.379217     C
H       0.0183   0.3648   0.1071     H
H       0.0183   0.8648   0.8929     H
C      0.01864  0.13134 0.878314     C
C      0.01864  0.63134 0.121714     C
H       0.0224    0.138   0.9688     H
H       0.0224    0.638   0.0312     H
C      0.02374  0.05722 0.037011     C
C      0.02374  0.55722 0.963011     C
C      0.02452  0.06372  0.17901     C
C      0.02452  0.56372  0.82101     C
C      0.02704  0.46304 0.052613     C
C      0.02704  0.96304 0.947413     C
C      0.02734  0.45934 0.187815     C
C      0.02734  0.95934 0.812215     C
H        0.033   0.3886   0.6632     H
H        0.033   0.8886   0.3368     H
C      0.03784  0.36634 0.063513     C
C      0.03784  0.86634 0.936513     C
C      0.03932  0.37022  0.92031     C
C      0.03932  0.87022  0.07971     C
H       0.0408   0.4622   0.5208     H
H       0.0408   0.9622   0.4792     H
H       0.0412   0.0619   0.9825     H
H       0.0412   0.5619   0.0175     H
N     0.0419718 0.1151316  0.66068     N
N     0.0419718 0.6151316  0.33948     N
C      0.04304  0.12684 0.788713     C
C      0.04304  0.62684 0.211313     C
H       0.0447   0.4656   0.2399     H
H       0.0447   0.9656   0.7601     H
H        0.045   0.4708   0.0094     H
H        0.045   0.9708   0.9906     H
O     0.0512313 0.0882716  0.40187     O
O     0.0512313 0.5882716  0.59827     O
H        0.055   0.4813   0.7302     H
H        0.055   0.9813   0.2698     H
C      0.05884  0.45454 0.564713     C
C      0.05884  0.95454 0.435313     C
P     0.059106 0.080256  0.25442     P
P     0.059106 0.580256  0.74562     P
H       0.0629   0.1325    0.821     H
H       0.0629   0.6325    0.179     H
H       0.0648   0.3636   0.2405     H
H       0.0648   0.8636   0.7595     H
C      0.06634  0.36474 0.144314     C
C      0.06634  0.86474 0.855714     C
C      0.06752  0.46612 0.687211     C
C      0.06752  0.96612 0.312811     C
C      0.06864  0.37074 0.864813     C
C      0.06864  0.87074 0.135213     C
O     0.0696113 0.1078314  0.16867     O
O     0.0696113 0.6078314  0.83147     O
H       0.0709   0.3725   0.7692     H
H       0.0709   0.8725   0.2308     H
H       0.0711   0.4227   0.4152     H
H       0.0711   0.9227   0.5848     H
C      0.07714  0.43054 0.501613     C
C      0.07714  0.93054 0.498413     C
Cu    0.080073 0.099793 0.5559312    Cu
Cu    0.080073 0.599793 0.4440712    Cu
H       0.0836   0.0331   0.3183     H
H       0.0836   0.5331   0.6817     H
O     0.0863113 0.0613513  0.70287     O
O     0.0863113 0.5613513  0.29727     O
C      0.08962  0.05032  0.25709     C
C      0.08962  0.55032  0.74309     C
H        0.091   0.0004   0.7328     H
H        0.091   0.5004   0.2672     H
H       0.0928   0.0418   0.1646     H
H       0.0928   0.5418   0.8354     H
N     0.0941218 0.3647517  0.08638     N
N     0.0941218 0.8647517  0.91378     N
C      0.09414  0.45624 0.749314     C
C      0.09414  0.95624 0.250714     C
C      0.09524  0.36854 0.947313     C
C      0.09524  0.86854 0.052713     C
O     0.1002014 0.0775212  0.95077     O
O     0.1002014 0.5775212  0.04937     O
H       0.1005    0.465   0.8331     H
H       0.1005    0.965   0.1669     H
C      0.10372  0.41862  0.56721     C
C      0.10372  0.91862  0.43281     C
C      0.10752  0.49712 0.205311     C
C      0.10752  0.99712 0.794711     C
O     0.1076413 0.1305414  0.66017     O
O     0.1076413 0.6305414  0.33997     O
H       0.1078   0.4489   0.2161     H
H       0.1078   0.9489   0.7839     H
Cu    0.109933 0.115743 0.0587112    Cu
Cu    0.109933 0.615743 0.9412912    Cu
P     0.110236 0.062246  0.81724     P
P     0.110236 0.562246  0.18284     P
C      0.11174  0.43284 0.687814     C
C      0.11174  0.93284 0.312214     C
H        0.112   0.2724   0.2812     H
H        0.112   0.7724   0.7188     H
H       0.1136   0.1852   0.0095     H
H       0.1136   0.6852   0.9905     H
O     0.1140516 0.3818016  0.34817     O
O     0.1140516 0.8818016  0.65197     O
C      0.11474  0.18374 0.105714     C
C      0.11474  0.68374 0.894314     C
N     0.1147517 0.1558818  0.16378     N
N     0.1147517 0.6558818  0.83638     N
H       0.1148   0.2317   0.1429     H
H       0.1148   0.7317   0.8571     H
H       0.1149   0.3697   0.9048     H
H       0.1149   0.8697   0.0952     H
C      0.11634  0.21224 0.186513     C
C      0.11634  0.71224 0.813513     C
C      0.11742  0.46612  0.17271     C
C      0.11742  0.96612  0.82731     C
H       0.1175   0.3129    0.429     H
H       0.1175   0.8129    0.571     H
O     0.1176512 0.0863413  0.45347     O
O     0.1176512 0.5863413  0.54667     O
C      0.11854  0.15484 0.302713     C
C      0.11854  0.65484 0.697313     C
C      0.11874  0.26864 0.371714     C
C      0.11874  0.76864 0.628314     C
O     0.1194614 0.3576413  0.58997     O
O     0.1194614 0.8576413  0.41017     O
H       0.1197   0.1351   0.3452     H
H       0.1197   0.6351   0.6548     H
C      0.12022  0.21072  0.32971     C
C      0.12022  0.71072  0.67031     C
C      0.12074  0.18144 0.385213     C
C      0.12074  0.68144 0.614813     C
C      0.12212  0.02182  0.85331     C
C      0.12212  0.52182  0.14671     C
H       0.1225   0.1791   0.4808     H
H       0.1225   0.6791   0.5192     H
C      0.12324  0.29304 0.461313     C
C      0.12324  0.79304 0.538713     C
C      0.12392  0.23882  0.41569     C
C      0.12392  0.73882  0.58449     C
P     0.124866 0.385816  0.49664     P
P     0.124866 0.885816  0.50344     P
P     0.125676 0.068786  0.31854     P
P     0.125676 0.568786  0.68154     P
H       0.1284   0.0213   0.5304     H
H       0.1284   0.5213   0.4696     H
H       0.1303   0.4263   0.7316     H
H       0.1303   0.9263   0.2684     H
O     0.1318016 0.1359516  0.90197     O
O     0.1318016 0.6359516  0.09817     O
C      0.13424  0.23684 0.549116     C
C      0.13424  0.73684 0.450916     C
Cu    0.134263 0.359933 0.1912912    Cu
Cu    0.134263 0.859933 0.8087112    Cu
N     0.1348716 0.2919718  0.58948     N
N     0.1348716 0.7919718  0.41068     N
P     0.135816 0.125146  0.75344     P
P     0.135816 0.625146  0.24664     P
C      0.13814  0.26334 0.629217     C
C      0.13814  0.76334 0.370817     C
H       0.1386    0.217   0.5868     H
H       0.1386    0.717   0.4132     H
O     0.1396312 0.0883213  0.20327     O
O     0.1396312 0.5883213  0.79687     O
C      0.14002  0.46144 0.081111     C
C      0.14002  0.96144 0.918911     C
O     0.1421714 0.3196113  0.08147     O
O     0.1421714 0.8196113  0.91867     O
H       0.1437   0.2601   0.7215     H
H       0.1437   0.7601   0.2785     H
C      0.14374  0.01714 0.959313     C
C      0.14374  0.51714 0.040713     C
C      0.14422 0.0843118  0.75759     C
C      0.14422 0.5843118  0.24259     C
C      0.14622  0.01752  0.47581     C
C      0.14622  0.51752  0.52421     C
H       0.1463   0.4409   0.0611     H
H       0.1463   0.9409   0.9389     H
H       0.1501   0.0772   0.6653     H
H       0.1501   0.5772   0.3347     H
Cu    0.150213 0.330073 0.6940712    Cu
Cu    0.150213 0.830073 0.3059312    Cu
H       0.1512   0.0339   0.0121     H
H       0.1512   0.5339   0.9879     H
C      0.15212  0.03672  0.36079     C
C      0.15212  0.53672  0.63939     C
C      0.15414  0.48584 0.015514     C
C      0.15414  0.98584 0.984514     C
O     0.1616813 0.3896312  0.04687     O
O     0.1616813 0.8896312  0.95327     O
O     0.1617316 0.3012313  0.84827     O
O     0.1617316 0.8012313  0.15187     O
H        0.162   0.0805    0.819     H
H        0.162   0.5805    0.181     H
H       0.1624   0.4803   0.4134     H
H       0.1624   0.9803   0.5866     H
O     0.1636613 0.3676512  0.79667     O
O     0.1636613 0.8676512  0.20347     O
C     0.1656918  0.39422  0.49259     C
C     0.1656918  0.89422  0.50759     C
C      0.16654  0.49294 0.490613     C
C      0.16654  0.99294 0.509413     C
C      0.16862  0.14632  0.68281     C
C      0.16862  0.64632  0.31721     C
H       0.1695    0.412    0.431     H
H       0.1695    0.912    0.569     H
P     0.169756 0.309106  0.99562     P
P     0.169756 0.809106  0.00442     P
H       0.1706   0.4821   0.9539     H
H       0.1706   0.9821   0.0461     H
O     0.1724812 0.3502014  0.29937     O
O     0.1724812 0.8502014  0.70077     O
H       0.1727   0.1789   0.8348     H
H       0.1727   0.6789   0.1652     H
H       0.1728   0.4001   0.5847     H
H       0.1728   0.9001   0.4153     H
H       0.1763   0.1197   0.5184     H
H       0.1763   0.6197   0.4816     H
C      0.17962  0.03182 0.283211     C
C      0.17962  0.53182 0.716811     C
C      0.18054  0.17294 0.748413     C
C      0.18054  0.67294 0.251613     C
P     0.181226 0.375676  0.93154     P
P     0.181226 0.875676  0.06854     P
C      0.18284  0.13834 0.562214     C
C      0.18284  0.63834 0.437814     C
H       0.1842   0.0446   0.2075     H
H       0.1842   0.5446   0.7925     H
C      0.18632  0.27452  0.07101     C
C      0.18632  0.77452  0.92901     C
P     0.187766 0.360236  0.43284     P
P     0.187766 0.860236  0.56724     P
H       0.1881   0.2912   0.2675     H
H       0.1881   0.7912   0.7325     H
O     0.1886513 0.3363113  0.54727     O
O     0.1886513 0.8363113  0.45287     O
H       0.1909   0.1037   0.1889     H
H       0.1909   0.6037   0.8111     H
C      0.19244  0.48714 0.570813     C
C      0.19244  0.98714 0.429213     C
H       0.1926   0.2505   0.8997     H
H       0.1926   0.7505   0.1003     H
C      0.19282  0.27374 0.213011     C
C      0.19282  0.77374 0.787011     C
C      0.19534  0.25014 0.995514     C
C      0.19534  0.75014 0.004514     C
H       0.1989   0.1422   0.0339     H
H       0.1989   0.6422   0.9661     H
C      0.19972  0.33962  0.99309     C
C      0.19972  0.83962  0.00709     C
C      0.20034  0.00714 0.320913     C
C      0.20034  0.50714 0.679113     C
C      0.20454  0.19124 0.685313     C
C      0.20454  0.69124 0.314713     C
H        0.205   0.4695   0.5525     H
H        0.205   0.9695   0.4475     H
H       0.2054   0.4342   0.0425     H
H       0.2054   0.9342   0.9575     H
C      0.20614  0.24754 0.273413     C
C      0.20614  0.74754 0.726613     C
C      0.20624  0.15594 0.500714     C
C      0.20624  0.65594 0.499314     C
H       0.2082   0.3428   0.0854     H
H       0.2082   0.8428   0.9146     H
C      0.20934  0.22274 0.062215     C
C      0.20934  0.72274 0.937815     C
H       0.2102   0.2472   0.3682     H
H       0.2102   0.7472   0.6318     H
C      0.21144  0.11002 0.168911     C
C      0.21144  0.61002 0.831111     C
H       0.2122   0.2092   0.7292     H
H       0.2122   0.7092   0.2708     H
C      0.21304  0.22304 0.197413     C
C      0.21304  0.72304 0.802613     C
C      0.21332  0.40212  0.88939     C
C      0.21332  0.90212  0.11079     C
H        0.215   0.1495   0.4169     H
H        0.215   0.6495   0.5831     H
H       0.2156   0.2053   0.0101     H
H       0.2156   0.7053   0.9899     H
H       0.2161   0.4012   0.2379     H
H       0.2161   0.9012   0.7621     H
C      0.21612  0.13262  0.07731     C
C      0.21612  0.18252 0.562811     C
C      0.21612  0.63262  0.92271     C
C      0.21612  0.68252 0.437211     C
H       0.2169   0.3336   0.9317     H
H       0.2169   0.8336   0.0683     H
C      0.21822  0.42962 0.966811     C
C      0.21822  0.92962 0.033211     C
H       0.2192   0.0043   0.2732     H
H       0.2192   0.5043   0.7268     H
H       0.2195    0.045   0.6975     H
H       0.2195    0.545   0.3025     H
H       0.2208    0.205   0.2406     H
H       0.2208    0.705   0.7594     H
C      0.22822  0.37212  0.39671     C
C      0.22822  0.87212  0.60331     C
H       0.2287   0.3784   0.7196     H
H       0.2287   0.8784   0.2804     H
H       0.2303   0.0876   0.8366     H
H       0.2303   0.5876   0.1634     H
H       0.2313    0.195   0.5198     H
H       0.2313    0.695   0.4802     H
H       0.2321   0.0794   0.2961     H
H       0.2321   0.5794   0.7039     H
C      0.23252  0.39622  0.77421     C
C      0.23252  0.89622  0.22581     C
C      0.23294  0.39374 0.290713     C
C      0.23294  0.89374 0.709313     C
C      0.23584  0.09594 0.234514     C
C      0.23584  0.59594 0.765514     C
C      0.23714  0.05764 0.679213     C
C      0.23714  0.55764 0.320813     C
C      0.24294  0.08354 0.759413     C
C      0.24294  0.45034 0.929113     C
C      0.24294  0.58354 0.240613     C
C      0.24294  0.95034 0.070913     C
H       0.2457   0.4692   0.9768     H
H       0.2457   0.9692   0.0232     H
C      0.24712  0.14252 0.044711     C
C      0.24712  0.64252 0.955311     C
H       0.2496    0.341   0.5172     H
H       0.2496    0.841   0.4828     H
H       0.2504    0.159   0.9828     H
H       0.2504    0.659   0.0172     H
C      0.25292  0.35752 0.455311     C
C      0.25292  0.85752 0.544711     C
H       0.2543   0.0308   0.5232     H
H       0.2543   0.5308   0.4768     H
C      0.25714  0.04974 0.570913     C
C      0.25714  0.41654 0.740613     C
C      0.25714  0.54974 0.429113     C
C      0.25714  0.91654 0.259413     C
C      0.26294  0.44244 0.820813     C
C      0.26294  0.94244 0.179213     C
C      0.26424  0.40414 0.265514     C
C      0.26424  0.90414 0.734514     C
C      0.26714  0.10634 0.209313     C
C      0.26714  0.60634 0.790713     C
C      0.26752  0.10382  0.72581     C
C      0.26752  0.60382  0.27421     C
H       0.2679   0.4206   0.2039     H
H       0.2679   0.9206   0.7961     H
H       0.2687    0.305   0.9802     H
H       0.2687    0.805   0.0198     H
H       0.2697   0.4124   0.6634     H
H       0.2697   0.9124   0.3366     H
H       0.2713   0.1216   0.7804     H
H       0.2713   0.6216   0.2196     H
C      0.27182  0.12792  0.10331     C
C      0.27182  0.62792  0.89671     C
H       0.2792    0.295   0.2594     H
H       0.2792    0.795   0.7406     H
H       0.2805    0.455   0.8025     H
H       0.2805    0.955   0.1975     H
H       0.2808   0.4957   0.2268     H
H       0.2808   0.9957   0.7732     H
C      0.28182  0.07042 0.533211     C
C      0.28182  0.57042 0.466811     C
H       0.2831   0.1664   0.5683     H
H       0.2831   0.6664   0.4317     H
H       0.2839   0.0988   0.2621     H
H       0.2839   0.5988   0.7379     H
C      0.28392  0.31752 0.937211     C
C      0.28392  0.36742  0.42271     C
C      0.28392  0.81752 0.062811     C
C      0.28392  0.86742  0.57731     C
H       0.2844   0.2947   0.4899     H
H       0.2844   0.7947   0.5101     H
H        0.285   0.3505   0.0831     H
H        0.285   0.8505   0.9169     H
C      0.28672  0.09792  0.61079     C
C      0.28672  0.59792  0.38939     C
C      0.28704  0.27704 0.302613     C
C      0.28704  0.77704 0.697413     C
H       0.2878   0.2908   0.7708     H
H       0.2878   0.7908   0.2292     H
C      0.28864  0.39002 0.331111     C
C      0.28864  0.89002 0.668911     C
H       0.2898   0.2528   0.1318     H
H       0.2898   0.7528   0.8682     H
C      0.29074  0.27734 0.437815     C
C      0.29074  0.77734 0.562215     C
H       0.2918   0.1572   0.4146     H
H       0.2918   0.6572   0.5854     H
C      0.29384  0.34414 0.999314     C
C      0.29384  0.84414 0.000714     C
C      0.29394  0.25254 0.226613     C
C      0.29394  0.75254 0.773413     C
H       0.2946   0.0658   0.4575     H
H       0.2946   0.5658   0.5425     H
H        0.295   0.0305   0.9475     H
H        0.295   0.5305   0.0525     H
C      0.29554  0.30884 0.814713     C
C      0.29554  0.80884 0.185313     C
C      0.29974  0.49294 0.179113     C
C      0.29974  0.99294 0.820913     C
C      0.30032  0.16042  0.50709     C
C      0.30032  0.66042  0.49309     C
H       0.3011   0.3578   0.4661     H
H       0.3011   0.8578   0.5339     H
C      0.30474  0.24994 0.504514     C
C      0.30474  0.74994 0.495514     C
C      0.30722  0.22634 0.287011     C
C      0.30722  0.72634 0.713011     C
H       0.3074   0.2495   0.6003     H
H       0.3074   0.7495   0.3997     H
C      0.30764  0.01294 0.929213     C
C      0.30764  0.51294 0.070813     C
H       0.3091   0.3963   0.3111     H
H       0.3091   0.8963   0.6889     H
O     0.3113513 0.1636913  0.95287     O
O     0.3113513 0.6636913  0.04727     O
H       0.3119   0.2088   0.2325     H
H       0.3119   0.7088   0.7675     H
P     0.312246 0.139776  0.06724     P
P     0.312246 0.639776  0.93284     P
C      0.31372  0.22552  0.42901     C
C      0.31372  0.72552  0.57101     C
H       0.3158   0.4554   0.2925     H
H       0.3158   0.9554   0.7075     H
C      0.31724  0.36174 0.937814     C
C      0.31724  0.86174 0.062214     C
P     0.318786 0.124336  0.56854     P
P     0.318786 0.624336  0.43154     P
C      0.31954  0.32714 0.751613     C
C      0.31954  0.82714 0.248413     C
C      0.32042  0.46822 0.216811     C
C      0.32042  0.96822 0.783211     C
H       0.3237   0.3803   0.9816     H
H       0.3237   0.8803   0.0184     H
H       0.3272   0.0999   0.9153     H
H       0.3272   0.5999   0.0847     H
H       0.3273   0.3211   0.6652     H
H       0.3273   0.8211   0.3348     H
O     0.3275212 0.1498014  0.20077     O
O     0.3275212 0.6498014  0.79937     O
H       0.3294   0.0179   0.5461     H
H       0.3294   0.5179   0.4539     H
P     0.330256 0.190906  0.50442     P
P     0.330256 0.690906  0.49562     P
H       0.3305    0.088    0.069     H
H       0.3305    0.588    0.931     H
C      0.33142  0.35372  0.81721     C
C      0.33142  0.85372  0.18281     C
C      0.33354  0.00714 0.009413     C
C      0.33354  0.50714 0.990613     C
C     0.3343118  0.10582  0.00759     C
C     0.3343118  0.60582  0.99259     C
O     0.3363413 0.1323512  0.70347     O
O     0.3363413 0.6323512  0.29667     O
H       0.3376   0.0197   0.0866     H
H       0.3376   0.5197   0.9134     H
H        0.338   0.4195    0.681     H
H        0.338   0.9195    0.319     H
O     0.3382716 0.1987713  0.65187     O
O     0.3382716 0.6987713  0.34827     O
O     0.3383213 0.1103712  0.45327     O
O     0.3383213 0.6103712  0.54687     O
C      0.34594  0.01424 0.484514     C
C      0.34594  0.51424 0.515514     C
C      0.34792  0.46332  0.13939     C
C      0.34792  0.96332  0.86079     C
H       0.3488   0.4661   0.4879     H
H       0.3488   0.9661   0.5121     H
Cu    0.349793 0.169933 0.8059312    Cu
Cu    0.349793 0.669933 0.1940712    Cu
H       0.3499   0.4228   0.8347     H
H       0.3499   0.9228   0.1653     H
H       0.3537   0.0591   0.4389     H
H       0.3537   0.5591   0.5611     H
C      0.35382  0.48252  0.02421     C
C      0.35382  0.98252  0.97581     C
C      0.35582 0.4156918  0.74259     C
C      0.35582 0.9156918  0.25759     C
H       0.3563   0.2399   0.7785     H
H       0.3563   0.7399   0.2215     H
C      0.35634  0.48294 0.540713     C
C      0.35634  0.98294 0.459313     C
O     0.3578314 0.1803913  0.41867     O
O     0.3578314 0.6803913  0.58147     O
C      0.36002  0.03864 0.418911     C
C      0.36002  0.53864 0.581111     C
O     0.3603712 0.4116813  0.29687     O
O     0.3603712 0.9116813  0.70327     O
H       0.3614    0.283   0.9132     H
H       0.3614    0.783   0.0868     H
C      0.36194  0.23674 0.870817     C
C      0.36194  0.73674 0.129217     C
P     0.364196 0.374866  0.74664     P
P     0.364196 0.874866  0.25344     P
N     0.3651316 0.2080318  0.91068     N
N     0.3651316 0.7080318  0.08948     N
Cu    0.365743 0.140073 0.3087112    Cu
Cu    0.365743 0.640073 0.6912912    Cu
C      0.36584  0.26324 0.950916     C
C      0.36584  0.76324 0.049116     C
O     0.3682016 0.3640516  0.59817     O
O     0.3682016 0.8640516  0.40197     O
H       0.3697   0.0737   0.7684     H
H       0.3697   0.5737   0.2316     H
H       0.3716   0.4787   0.9696     H
H       0.3716   0.9787   0.0304     H
P     0.374336 0.431226  0.18154     P
P     0.374336 0.931226  0.81854     P
P     0.375146 0.114196  0.00344     P
P     0.375146 0.614196  0.99664     P
C      0.37612  0.26122  0.08449     C
C      0.37612  0.76122  0.91569     C
C      0.37684  0.20704 0.038713     C
C      0.37684  0.70704 0.961313     C
H       0.3775   0.3209   0.0192     H
H       0.3775   0.8209   0.9808     H
C      0.37792  0.47822  0.64671     C
C      0.37792  0.97822  0.35331     C
C      0.37934  0.31864 0.114813     C
C      0.37934  0.81864 0.885213     C
C      0.37982  0.28932  0.17031     C
C      0.37982  0.78932  0.82971     C
H       0.3803   0.3649   0.1548     H
H       0.3803   0.8649   0.8452     H
O     0.3805414 0.1423613  0.91017     O
O     0.3805414 0.6423613  0.08997     O
C      0.38134  0.23144 0.128314     C
C      0.38134  0.73144 0.871714     C
C      0.38154  0.34524 0.197313     C
C      0.38154  0.84524 0.802713     C
O     0.3823512 0.4136613  0.04667     O
O     0.3823512 0.9136613  0.95347     O
H       0.3825   0.1871    0.071     H
H       0.3825   0.6871    0.929     H
C      0.38262  0.03392  0.32731     C
C      0.38262  0.53392  0.67271     C
C      0.38374  0.28784 0.313513     C
C      0.38374  0.78784 0.686513     C
H       0.3851   0.1303   0.5952     H
H       0.3851   0.6303   0.4048     H
H       0.3852   0.2683   0.3571     H
H       0.3852   0.7683   0.6429     H
N     0.3852517 0.3441218  0.33638     N
N     0.3852517 0.8441218  0.66378     N
C      0.38534  0.31634 0.394314     C
C      0.38534  0.81634 0.605714     C
O     0.3859516 0.1182016  0.15197     O
O     0.3859516 0.6182016  0.84817     O
H       0.3864   0.3148   0.4905     H
H       0.3864   0.8148   0.5095     H
H        0.388   0.2276   0.2188     H
H        0.388   0.7276   0.7812     H
C      0.38834  0.06724 0.812214     C
C      0.38834  0.56724 0.187814     C
P     0.389776 0.437766  0.68284     P
P     0.389776 0.937766  0.31724     P
Cu    0.390073 0.384263 0.4412912    Cu
Cu    0.390073 0.884263 0.5587112    Cu
H       0.3922   0.0511   0.2839     H
H       0.3922   0.5511   0.7161     H
O     0.3923613 0.3694614  0.83997     O
O     0.3923613 0.8694614  0.16017     O
C      0.39252  0.00292 0.294711     C
C      0.39252  0.50292 0.705311     C
C      0.39632  0.08142  0.93281     C
C      0.39632  0.58142  0.06721     C
H       0.3995    0.035   0.6669     H
H       0.3995    0.535   0.3331     H
O     0.3998014 0.4224812  0.54937     O
O     0.3998014 0.9224812  0.45077     O
C      0.40484  0.13154 0.552713     C
C      0.40484  0.63154 0.447313     C
N     0.4058818 0.1352517  0.41378     N
N     0.4058818 0.6352517  0.58638     N
C      0.40594  0.04384 0.750714     C
C      0.40594  0.54384 0.249314     C
H       0.4072   0.4582   0.3354     H
H       0.4072   0.9582   0.6646     H
H        0.409   0.4996   0.7672     H
H        0.409   0.9996   0.2328     H
C      0.41042  0.44972  0.24309     C
C      0.41042  0.94972  0.75709     C
O     0.4136913 0.4386513  0.79727     O
O     0.4136913 0.9386513  0.20287     O
H       0.4164   0.4669   0.1817     H
H       0.4164   0.9669   0.8183     H
Cu    0.419933 0.400213 0.9440712    Cu
Cu    0.419933 0.900213 0.0559312    Cu
C      0.42294  0.06954 0.998413     C
C      0.42294  0.56954 0.001613     C
H       0.4289   0.0773   0.0848     H
H       0.4289   0.5773   0.9152     H
H       0.4291   0.1275   0.7308     H
H       0.4291   0.6275   0.2692     H
O     0.4303913 0.3921714  0.33147     O
O     0.4303913 0.8921714  0.66867     O
C      0.43144  0.12934 0.635213     C
C      0.43144  0.62934 0.364813     C
C      0.43252  0.03392 0.812811     C
C      0.43252  0.53392 0.187211     C
C      0.43374  0.13534 0.355714     C
C      0.43374  0.63534 0.644314     C
H       0.4352   0.1364   0.2595     H
H       0.4352   0.6364   0.7405     H
H       0.4371   0.3675    0.679     H
H       0.4371   0.8675    0.321     H
P     0.440906 0.419756  0.24562     P
P     0.440906 0.919756  0.75442     P
C      0.44124  0.04554 0.935313     C
C      0.44124  0.54554 0.064713     C
H        0.445   0.0187   0.7698     H
H        0.445   0.5187   0.2302     H
O     0.4487713 0.4117316  0.09827     O
O     0.4487713 0.9117316  0.90187     O
H        0.455   0.0292   0.4906     H
H        0.455   0.5292   0.5094     H
H       0.4553   0.0344   0.2601     H
H       0.4553   0.5344   0.7399     H
C      0.45704  0.37324 0.711313     C
C      0.45704  0.87324 0.288713     C
N     0.4580318 0.3848716  0.83948     N
N     0.4580318 0.8848716  0.16068     N
H       0.4588   0.4381   0.5175     H
H       0.4588   0.9381   0.4825     H
H       0.4592   0.0378   0.9792     H
H       0.4592   0.5378   0.0208     H
C      0.46072  0.12982  0.57971     C
C      0.46072  0.62982  0.42031     C
C      0.46224  0.13374 0.436513     C
C      0.46224  0.63374 0.563513     C
H        0.467   0.1114   0.8368     H
H        0.467   0.6114   0.1632     H
C      0.47274  0.04074 0.312215     C
C      0.47274  0.54074 0.687815     C
C      0.47304  0.03704 0.447413     C
C      0.47304  0.53704 0.552613     C
C      0.47552  0.43632  0.32101     C
C      0.47552  0.93632  0.67901     C
C      0.47634  0.44282 0.463011     C
C      0.47634  0.94282 0.537011     C
H       0.4776    0.362   0.5312     H
H       0.4776    0.862   0.4688     H
C      0.48144  0.36874 0.621714     C
C      0.48144  0.86874 0.378314     C
H       0.4817   0.1352   0.3929     H
H       0.4817   0.6352   0.6071     H
C      0.48674  0.38814 0.879217     C
C      0.48674  0.88814 0.120817     C
C      0.48684  0.11584 0.799116     C
C      0.48684  0.61584 0.200916     C
C      0.48882  0.12612  0.66569     C
C      0.48882  0.62612  0.33449     C
H       0.4899   0.3937   0.9715     H
H       0.4899   0.8937   0.0285     H
H       0.4972   0.0398   0.6182     H
H       0.4972   0.5398   0.3818     H
C      0.49754  0.04394 0.523413     C
C      0.49754  0.54394 0.476613     C
H       0.4995   0.4426   0.1497     H
H       0.4995   0.9426   0.8503     H
C      0.49994  0.44534 0.245514     C
C      0.49994  0.94534 0.754514     C
C      0.50014  0.05474 0.245514     C
C      0.50014  0.55474 0.754514     C
H       0.5005   0.0574   0.1497     H
H       0.5005   0.5574   0.8503     H
C      0.50254  0.45614 0.523413     C
C      0.50254  0.95614 0.476613     C
H       0.5028   0.4602   0.6182     H
H       0.5028   0.9602   0.3818     H
H       0.5101   0.1063   0.9715     H
H       0.5101   0.6063   0.0285     H
C      0.51122  0.37392  0.66569     C
C      0.51122  0.87392  0.33449     C
C      0.51324  0.38424 0.799116     C
C      0.51324  0.88424 0.200916     C
C      0.51334  0.11194 0.879217     C
C      0.51334  0.61194 0.120817     C
H       0.5183   0.3648   0.3929     H
H       0.5183   0.8648   0.6071     H
C      0.51864  0.13134 0.621714     C
C      0.51864  0.63134 0.378314     C
H       0.5224    0.138   0.5312     H
H       0.5224    0.638   0.4688     H
C      0.52374  0.05722 0.463011     C
C      0.52374  0.55722 0.537011     C
C      0.52452  0.06372  0.32101     C
C      0.52452  0.56372  0.67901     C
C      0.52704  0.46304 0.447413     C
C      0.52704  0.96304 0.552613     C
C      0.52734  0.45934 0.312215     C
C      0.52734  0.95934 0.687815     C
H        0.533   0.3886   0.8368     H
H        0.533   0.8886   0.1632     H
C      0.53784  0.36634 0.436513     C
C      0.53784  0.86634 0.563513     C
C      0.53932  0.37022  0.57971     C
C      0.53932  0.87022  0.42031     C
H       0.5408   0.4622   0.9792     H
H       0.5408   0.9622   0.0208     H
H       0.5412   0.0619   0.5175     H
H       0.5412   0.5619   0.4825     H
N     0.5419718 0.1151316  0.83948     N
N     0.5419718 0.6151316  0.16068     N
C      0.54304  0.12684 0.711313     C
C      0.54304  0.62684 0.288713     C
H       0.5447   0.4656   0.2601     H
H       0.5447   0.9656   0.7399     H
H        0.545   0.4708   0.4906     H
H        0.545   0.9708   0.5094     H
O     0.5512313 0.0882716  0.09827     O
O     0.5512313 0.5882716  0.90187     O
H        0.555   0.4813   0.7698     H
H        0.555   0.9813   0.2302     H
C      0.55884  0.45454 0.935313     C
C      0.55884  0.95454 0.064713     C
P     0.559106 0.080256  0.24562     P
P     0.559106 0.580256  0.75442     P
H       0.5629   0.1325    0.679     H
H       0.5629   0.6325    0.321     H
H       0.5648   0.3636   0.2595     H
H       0.5648   0.8636   0.7405     H
C      0.56634  0.36474 0.355714     C
C      0.56634  0.86474 0.644314     C
C      0.56752  0.46612 0.812811     C
C      0.56752  0.96612 0.187211     C
C      0.56864  0.37074 0.635213     C
C      0.56864  0.87074 0.364813     C
O     0.5696113 0.1078314  0.33147     O
O     0.5696113 0.6078314  0.66867     O
H       0.5709   0.3725   0.7308     H
H       0.5709   0.8725   0.2692     H
H       0.5711   0.4227   0.0848     H
H       0.5711   0.9227   0.9152     H
C      0.57714  0.43054 0.998413     C
C      0.57714  0.93054 0.001613     C
Cu    0.580073 0.099793 0.9440712    Cu
Cu    0.580073 0.599793 0.0559312    Cu
H       0.5836   0.0331   0.1817     H
H       0.5836   0.5331   0.8183     H
O     0.5863113 0.0613513  0.79727     O
O     0.5863113 0.5613513  0.20287     O
C      0.58962  0.05032  0.24309     C
C      0.58962  0.55032  0.75709     C
H        0.591   0.0004   0.7672     H
H        0.591   0.5004   0.2328     H
H       0.5928   0.0418   0.3354     H
H       0.5928   0.5418   0.6646     H
N     0.5941218 0.3647517  0.41378     N
N     0.5941218 0.8647517  0.58638     N
C      0.59414  0.45624 0.750714     C
C      0.59414  0.95624 0.249314     C
C      0.59524  0.36854 0.552713     C
C      0.59524  0.86854 0.447313     C
O     0.6002014 0.0775212  0.54937     O
O     0.6002014 0.5775212  0.45077     O
H       0.6005    0.465   0.6669     H
H       0.6005    0.965   0.3331     H
C      0.60372  0.41862  0.93281     C
C      0.60372  0.91862  0.06721     C
C      0.60752  0.49712 0.294711     C
C      0.60752  0.99712 0.705311     C
O     0.6076413 0.1305414  0.83997     O
O     0.6076413 0.6305414  0.16017     O
H       0.6078   0.4489   0.2839     H
H       0.6078   0.9489   0.7161     H
Cu    0.609933 0.115743 0.4412912    Cu
Cu    0.609933 0.615743 0.5587112    Cu
P     0.610236 0.062246  0.68284     P
P     0.610236 0.562246  0.31724     P
C      0.61174  0.43284 0.812214     C
C      0.61174  0.93284 0.187814     C
H        0.612   0.2724   0.2188     H
H        0.612   0.7724   0.7812     H
H       0.6136   0.1852   0.4905     H
H       0.6136   0.6852   0.5095     H
O     0.6140516 0.3818016  0.15197     O
O     0.6140516 0.8818016  0.84817     O
C      0.61474  0.18374 0.394314     C
C      0.61474  0.68374 0.605714     C
N     0.6147517 0.1558818  0.33638     N
N     0.6147517 0.6558818  0.66378     N
H       0.6148   0.2317   0.3571     H
H       0.6148   0.7317   0.6429     H
H       0.6149   0.3697   0.5952     H
H       0.6149   0.8697   0.4048     H
C      0.61634  0.21224 0.313513     C
C      0.61634  0.71224 0.686513     C
C      0.61742  0.46612  0.32731     C
C      0.61742  0.96612  0.67271     C
H       0.6175   0.3129    0.071     H
H       0.6175   0.8129    0.929     H
O     0.6176512 0.0863413  0.04667     O
O     0.6176512 0.5863413  0.95347     O
C      0.61854  0.15484 0.197313     C
C      0.61854  0.65484 0.802713     C
C      0.61874  0.26864 0.128314     C
C      0.61874  0.76864 0.871714     C
O     0.6194614 0.3576413  0.91017     O
O     0.6194614 0.8576413  0.08997     O
H       0.6197   0.1351   0.1548     H
H       0.6197   0.6351   0.8452     H
C      0.62022  0.21072  0.17031     C
C      0.62022  0.71072  0.82971     C
C      0.62074  0.18144 0.114813     C
C      0.62074  0.68144 0.885213     C
C      0.62212  0.02182  0.64671     C
C      0.62212  0.52182  0.35331     C
H       0.6225   0.1791   0.0192     H
H       0.6225   0.6791   0.9808     H
C      0.62324  0.29304 0.038713     C
C      0.62324  0.79304 0.961313     C
C      0.62392  0.23882  0.08449     C
C      0.62392  0.73882  0.91569     C
P     0.624866 0.385816  0.00344     P
P     0.624866 0.885816  0.99664     P
P     0.625676 0.068786  0.18154     P
P     0.625676 0.568786  0.81854     P
H       0.6284   0.0213   0.9696     H
H       0.6284   0.5213   0.0304     H
H       0.6303   0.4263   0.7684     H
H       0.6303   0.9263   0.2316     H
O     0.6318016 0.1359516  0.59817     O
O     0.6318016 0.6359516  0.40197     O
C      0.63424  0.23684 0.950916     C
C      0.63424  0.73684 0.049116     C
Cu    0.634263 0.359933 0.3087112    Cu
Cu    0.634263 0.859933 0.6912912    Cu
N     0.6348716 0.2919718  0.91068     N
N     0.6348716 0.7919718  0.08948     N
P     0.635816 0.125146  0.74664     P
P     0.635816 0.625146  0.25344     P
C      0.63814  0.26334 0.870817     C
C      0.63814  0.76334 0.129217     C
H       0.6386    0.217   0.9132     H
H       0.6386    0.717   0.0868     H
O     0.6396312 0.0883213  0.29687     O
O     0.6396312 0.5883213  0.70327     O
C      0.64002  0.46144 0.418911     C
C      0.64002  0.96144 0.581111     C
O     0.6421714 0.3196113  0.41867     O
O     0.6421714 0.8196113  0.58147     O
H       0.6437   0.2601   0.7785     H
H       0.6437   0.7601   0.2215     H
C      0.64374  0.01714 0.540713     C
C      0.64374  0.51714 0.459313     C
C      0.64422 0.0843118  0.74259     C
C      0.64422 0.5843118  0.25759     C
C      0.64622  0.01752  0.02421     C
C      0.64622  0.51752  0.97581     C
H       0.6463   0.4409   0.4389     H
H       0.6463   0.9409   0.5611     H
H       0.6501   0.0772   0.8347     H
H       0.6501   0.5772   0.1653     H
Cu    0.650213 0.330073 0.8059312    Cu
Cu    0.650213 0.830073 0.1940712    Cu
H       0.6512   0.0339   0.4879     H
H       0.6512   0.5339   0.5121     H
C      0.65212  0.03672  0.13939     C
C      0.65212  0.53672  0.86079     C
C      0.65414  0.48584 0.484514     C
C      0.65414  0.98584 0.515514     C
O     0.6616813 0.3896312  0.45327     O
O     0.6616813 0.8896312  0.54687     O
O     0.6617316 0.3012313  0.65187     O
O     0.6617316 0.8012313  0.34827     O
H        0.662   0.0805    0.681     H
H        0.662   0.5805    0.319     H
H       0.6624   0.4803   0.0866     H
H       0.6624   0.9803   0.9134     H
O     0.6636613 0.3676512  0.70347     O
O     0.6636613 0.8676512  0.29667     O
C     0.6656918  0.39422  0.00759     C
C     0.6656918  0.89422  0.99259     C
C      0.66654  0.49294 0.009413     C
C      0.66654  0.99294 0.990613     C
C      0.66862  0.14632  0.81721     C
C      0.66862  0.64632  0.18281     C
H       0.6695    0.412    0.069     H
H       0.6695    0.912    0.931     H
P     0.669756 0.309106  0.50442     P
P     0.669756 0.809106  0.49562     P
H       0.6706   0.4821   0.5461     H
H       0.6706   0.9821   0.4539     H
O     0.6724812 0.3502014  0.20077     O
O     0.6724812 0.8502014  0.79937     O
H       0.6727   0.1789   0.6652     H
H       0.6727   0.6789   0.3348     H
H       0.6728   0.4001   0.9153     H
H       0.6728   0.9001   0.0847     H
H       0.6763   0.1197   0.9816     H
H       0.6763   0.6197   0.0184     H
C      0.67962  0.03182 0.216811     C
C      0.67962  0.53182 0.783211     C
C      0.68054  0.17294 0.751613     C
C      0.68054  0.67294 0.248413     C
P     0.681226 0.375676  0.56854     P
P     0.681226 0.875676  0.43154     P
C      0.68284  0.13834 0.937814     C
C      0.68284  0.63834 0.062214     C
H       0.6842   0.0446   0.2925     H
H       0.6842   0.5446   0.7075     H
C      0.68632  0.27452  0.42901     C
C      0.68632  0.77452  0.57101     C
P     0.687766 0.360236  0.06724     P
P     0.687766 0.860236  0.93284     P
H       0.6881   0.2912   0.2325     H
H       0.6881   0.7912   0.7675     H
O     0.6886513 0.3363113  0.95287     O
O     0.6886513 0.8363113  0.04727     O
H       0.6909   0.1037   0.3111     H
H       0.6909   0.6037   0.6889     H
C      0.69244  0.48714 0.929213     C
C      0.69244  0.98714 0.070813     C
H       0.6926   0.2505   0.6003     H
H       0.6926   0.7505   0.3997     H
C      0.69282  0.27374 0.287011     C
C      0.69282  0.77374 0.713011     C
C      0.69534  0.25014 0.504514     C
C      0.69534  0.75014 0.495514     C
H       0.6989   0.1422   0.4661     H
H       0.6989   0.6422   0.5339     H
C      0.69972  0.33962  0.50709     C
C      0.69972  0.83962  0.49309     C
C      0.70034  0.00714 0.179113     C
C      0.70034  0.50714 0.820913     C
C      0.70454  0.19124 0.814713     C
C      0.70454  0.69124 0.185313     C
H        0.705   0.4695   0.9475     H
H        0.705   0.9695   0.0525     H
H       0.7054   0.4342   0.4575     H
H       0.7054   0.9342   0.5425     H
C      0.70614  0.24754 0.226613     C
C      0.70614  0.74754 0.773413     C
C      0.70624  0.15594 0.999314     C
C      0.70624  0.65594 0.000714     C
H       0.7082   0.3428   0.4146     H
H       0.7082   0.8428   0.5854     H
C      0.70934  0.22274 0.437815     C
C      0.70934  0.72274 0.562215     C
H       0.7102   0.2472   0.1318     H
H       0.7102   0.7472   0.8682     H
C      0.71144  0.11002 0.331111     C
C      0.71144  0.61002 0.668911     C
H       0.7122   0.2092   0.7708     H
H       0.7122   0.7092   0.2292     H
C      0.71304  0.22304 0.302613     C
C      0.71304  0.72304 0.697413     C
C      0.71332  0.40212  0.61079     C
C      0.71332  0.90212  0.38939     C
H        0.715   0.1495   0.0831     H
H        0.715   0.6495   0.9169     H
H       0.7156   0.2053   0.4899     H
H       0.7156   0.7053   0.5101     H
H       0.7161   0.4012   0.2621     H
H       0.7161   0.9012   0.7379     H
C      0.71612  0.13262  0.42271     C
C      0.71612  0.18252 0.937211     C
C      0.71612  0.63262  0.57731     C
C      0.71612  0.68252 0.062811     C
H       0.7169   0.3336   0.5683     H
H       0.7169   0.8336   0.4317     H
C      0.71822  0.42962 0.533211     C
C      0.71822  0.92962 0.466811     C
H       0.7192   0.0043   0.2268     H
H       0.7192   0.5043   0.7732     H
H       0.7195    0.045   0.8025     H
H       0.7195    0.545   0.1975     H
H       0.7208    0.205   0.2594     H
H       0.7208    0.705   0.7406     H
C      0.72822  0.37212  0.10331     C
C      0.72822  0.87212  0.89671     C
H       0.7287   0.3784   0.7804     H
H       0.7287   0.8784   0.2196     H
H       0.7303   0.0876   0.6634     H
H       0.7303   0.5876   0.3366     H
H       0.7313    0.195   0.9802     H
H       0.7313    0.695   0.0198     H
H       0.7321   0.0794   0.2039     H
H       0.7321   0.5794   0.7961     H
C      0.73252  0.39622  0.72581     C
C      0.73252  0.89622  0.27421     C
C      0.73294  0.39374 0.209313     C
C      0.73294  0.89374 0.790713     C
C      0.73584  0.09594 0.265514     C
C      0.73584  0.59594 0.734514     C
C      0.73714  0.05764 0.820813     C
C      0.73714  0.55764 0.179213     C
C      0.74294  0.08354 0.740613     C
C      0.74294  0.45034 0.570913     C
C      0.74294  0.58354 0.259413     C
C      0.74294  0.95034 0.429113     C
H       0.7457   0.4692   0.5232     H
H       0.7457   0.9692   0.4768     H
C      0.74712  0.14252 0.455311     C
C      0.74712  0.64252 0.544711     C
H       0.7496    0.341   0.9828     H
H       0.7496    0.841   0.0172     H
H       0.7504    0.159   0.5172     H
H       0.7504    0.659   0.4828     H
C      0.75292  0.35752 0.044711     C
C      0.75292  0.85752 0.955311     C
H       0.7543   0.0308   0.9768     H
H       0.7543   0.5308   0.0232     H
C      0.75714  0.04974 0.929113     C
C      0.75714  0.41654 0.759413     C
C      0.75714  0.54974 0.070913     C
C      0.75714  0.91654 0.240613     C
C      0.76294  0.44244 0.679213     C
C      0.76294  0.94244 0.320813     C
C      0.76424  0.40414 0.234514     C
C      0.76424  0.90414 0.765514     C
C      0.76714  0.10634 0.290713     C
C      0.76714  0.60634 0.709313     C
C      0.76752  0.10382  0.77421     C
C      0.76752  0.60382  0.22581     C
H       0.7679   0.4206   0.2961     H
H       0.7679   0.9206   0.7039     H
H       0.7687    0.305   0.5198     H
H       0.7687    0.805   0.4802     H
H       0.7697   0.4124   0.8366     H
H       0.7697   0.9124   0.1634     H
H       0.7713   0.1216   0.7196     H
H       0.7713   0.6216   0.2804     H
C      0.77182  0.12792  0.39671     C
C      0.77182  0.62792  0.60331     C
H       0.7792    0.295   0.2406     H
H       0.7792    0.795   0.7594     H
H       0.7805    0.455   0.6975     H
H       0.7805    0.955   0.3025     H
H       0.7808   0.4957   0.2732     H
H       0.7808   0.9957   0.7268     H
C      0.78182  0.07042 0.966811     C
C      0.78182  0.57042 0.033211     C
H       0.7831   0.1664   0.9317     H
H       0.7831   0.6664   0.0683     H
H       0.7839   0.0988   0.2379     H
H       0.7839   0.5988   0.7621     H
C      0.78392  0.31752 0.562811     C
C      0.78392  0.36742  0.07731     C
C      0.78392  0.81752 0.437211     C
C      0.78392  0.86742  0.92271     C
H       0.7844   0.2947   0.0101     H
H       0.7844   0.7947   0.9899     H
H        0.785   0.3505   0.4169     H
H        0.785   0.8505   0.5831     H
C      0.78672  0.09792  0.88939     C
C      0.78672  0.59792  0.11079     C
C      0.78704  0.27704 0.197413     C
C      0.78704  0.77704 0.802613     C
H       0.7878   0.2908   0.7292     H
H       0.7878   0.7908   0.2708     H
C      0.78864  0.39002 0.168911     C
C      0.78864  0.89002 0.831111     C
H       0.7898   0.2528   0.3682     H
H       0.7898   0.7528   0.6318     H
C      0.79074  0.27734 0.062215     C
C      0.79074  0.77734 0.937815     C
H       0.7918   0.1572   0.0854     H
H       0.7918   0.6572   0.9146     H
C      0.79384  0.34414 0.500714     C
C      0.79384  0.84414 0.499314     C
C      0.79394  0.25254 0.273413     C
C      0.79394  0.75254 0.726613     C
H       0.7946   0.0658   0.0425     H
H       0.7946   0.5658   0.9575     H
H        0.795   0.0305   0.5525     H
H        0.795   0.5305   0.4475     H
C      0.79554  0.30884 0.685313     C
C      0.79554  0.80884 0.314713     C
C      0.79974  0.49294 0.320913     C
C      0.79974  0.99294 0.679113     C
C      0.80032  0.16042  0.99309     C
C      0.80032  0.66042  0.00709     C
H       0.8011   0.3578   0.0339     H
H       0.8011   0.8578   0.9661     H
C      0.80474  0.24994 0.995514     C
C      0.80474  0.74994 0.004514     C
C      0.80722  0.22634 0.213011     C
C      0.80722  0.72634 0.787011     C
H       0.8074   0.2495   0.8997     H
H       0.8074   0.7495   0.1003     H
C      0.80764  0.01294 0.570813     C
C      0.80764  0.51294 0.429213     C
H       0.8091   0.3963   0.1889     H
H       0.8091   0.8963   0.8111     H
O     0.8113513 0.1636913  0.54727     O
O     0.8113513 0.6636913  0.45287     O
H       0.8119   0.2088   0.2675     H
H       0.8119   0.7088   0.7325     H
P     0.812246 0.139776  0.43284     P
P     0.812246 0.639776  0.56724     P
C      0.81372  0.22552  0.07101     C
C      0.81372  0.72552  0.92901     C
H       0.8158   0.4554   0.2075     H
H       0.8158   0.9554   0.7925     H
C      0.81724  0.36174 0.562214     C
C      0.81724  0.86174 0.437814     C
P     0.818786 0.124336  0.93154     P
P     0.818786 0.624336  0.06854     P
C      0.81954  0.32714 0.748413     C
C      0.81954  0.82714 0.251613     C
C      0.82042  0.46822 0.283211     C
C      0.82042  0.96822 0.716811     C
H       0.8237   0.3803   0.5184     H
H       0.8237   0.8803   0.4816     H
H       0.8272   0.0999   0.5847     H
H       0.8272   0.5999   0.4153     H
H       0.8273   0.3211   0.8348     H
H       0.8273   0.8211   0.1652     H
O     0.8275212 0.1498014  0.29937     O
O     0.8275212 0.6498014  0.70077     O
H       0.8294   0.0179   0.9539     H
H       0.8294   0.5179   0.0461     H
P     0.830256 0.190906  0.99562     P
P     0.830256 0.690906  0.00442     P
H       0.8305    0.088    0.431     H
H       0.8305    0.588    0.569     H
C      0.83142  0.35372  0.68281     C
C      0.83142  0.85372  0.31721     C
C      0.83354  0.00714 0.490613     C
C      0.83354  0.50714 0.509413     C
C     0.8343118  0.10582  0.49259     C
C     0.8343118  0.60582  0.50759     C
O     0.8363413 0.1323512  0.79667     O
O     0.8363413 0.6323512  0.20347     O
H       0.8376   0.0197   0.4134     H
H       0.8376   0.5197   0.5866     H
H        0.838   0.4195    0.819     H
H        0.838   0.9195    0.181     H
O     0.8382716 0.1987713  0.84827     O
O     0.8382716 0.6987713  0.15187     O
O     0.8383213 0.1103712  0.04687     O
O     0.8383213 0.6103712  0.95327     O
C      0.84594  0.01424 0.015514     C
C      0.84594  0.51424 0.984514     C
C      0.84792  0.46332  0.36079     C
C      0.84792  0.96332  0.63939     C
H       0.8488   0.4661   0.0121     H
H       0.8488   0.9661   0.9879     H
Cu    0.849793 0.169933 0.6940712    Cu
Cu    0.849793 0.669933 0.3059312    Cu
H       0.8499   0.4228   0.6653     H
H       0.8499   0.9228   0.3347     H
H       0.8537   0.0591   0.0611     H
H       0.8537   0.5591   0.9389     H
C      0.85382  0.48252  0.47581     C
C      0.85382  0.98252  0.52421     C
C      0.85582 0.4156918  0.75759     C
C      0.85582 0.9156918  0.24259     C
H       0.8563   0.2399   0.7215     H
H       0.8563   0.7399   0.2785     H
C      0.85634  0.48294 0.959313     C
C      0.85634  0.98294 0.040713     C
O     0.8578314 0.1803913  0.08147     O
O     0.8578314 0.6803913  0.91867     O
C      0.86002  0.03864 0.081111     C
C      0.86002  0.53864 0.918911     C
O     0.8603712 0.4116813  0.20327     O
O     0.8603712 0.9116813  0.79687     O
H       0.8614    0.283   0.5868     H
H       0.8614    0.783   0.4132     H
C      0.86194  0.23674 0.629217     C
C      0.86194  0.73674 0.370817     C
P     0.864196 0.374866  0.75344     P
P     0.864196 0.874866  0.24664     P
N     0.8651316 0.2080318  0.58948     N
N     0.8651316 0.7080318  0.41068     N
Cu    0.865743 0.140073 0.1912912    Cu
Cu    0.865743 0.640073 0.8087112    Cu
C      0.86584  0.26324 0.549116     C
C      0.86584  0.76324 0.450916     C
O     0.8682016 0.3640516  0.90197     O
O     0.8682016 0.8640516  0.09817     O
H       0.8697   0.0737   0.7316     H
H       0.8697   0.5737   0.2684     H
H       0.8716   0.4787   0.5304     H
H       0.8716   0.9787   0.4696     H
P     0.874336 0.431226  0.31854     P
P     0.874336 0.931226  0.68154     P
P     0.875146 0.114196  0.49664     P
P     0.875146 0.614196  0.50344     P
C      0.87612  0.26122  0.41569     C
C      0.87612  0.76122  0.58449     C
C      0.87684  0.20704 0.461313     C
C      0.87684  0.70704 0.538713     C
H       0.8775   0.3209   0.4808     H
H       0.8775   0.8209   0.5192     H
C      0.87792  0.47822  0.85331     C
C      0.87792  0.97822  0.14671     C
C      0.87934  0.31864 0.385213     C
C      0.87934  0.81864 0.614813     C
C      0.87982  0.28932  0.32971     C
C      0.87982  0.78932  0.67031     C
H       0.8803   0.3649   0.3452     H
H       0.8803   0.8649   0.6548     H
O     0.8805414 0.1423613  0.58997     O
O     0.8805414 0.6423613  0.41017     O
C      0.88134  0.23144 0.371714     C
C      0.88134  0.73144 0.628314     C
C      0.88154  0.34524 0.302713     C
C      0.88154  0.84524 0.697313     C
O     0.8823512 0.4136613  0.45347     O
O     0.8823512 0.9136613  0.54667     O
H       0.8825   0.1871    0.429     H
H       0.8825   0.6871    0.571     H
C      0.88262  0.03392  0.17271     C
C      0.88262  0.53392  0.82731     C
C      0.88374  0.28784 0.186513     C
C      0.88374  0.78784 0.813513     C
H       0.8851   0.1303   0.9048     H
H       0.8851   0.6303   0.0952     H
H       0.8852   0.2683   0.1429     H
H       0.8852   0.7683   0.8571     H
N     0.8852517 0.3441218  0.16378     N
N     0.8852517 0.8441218  0.83638     N
C      0.88534  0.31634 0.105714     C
C      0.88534  0.81634 0.894314     C
O     0.8859516 0.1182016  0.34817     O
O     0.8859516 0.6182016  0.65197     O
H       0.8864   0.3148   0.0095     H
H       0.8864   0.8148   0.9905     H
H        0.888   0.2276   0.2812     H
H        0.888   0.7276   0.7188     H
C      0.88834  0.06724 0.687814     C
C      0.88834  0.56724 0.312214     C
P     0.889776 0.437766  0.81724     P
P     0.889776 0.937766  0.18284     P
Cu    0.890073 0.384263 0.0587112    Cu
Cu    0.890073 0.884263 0.9412912    Cu
H       0.8922   0.0511   0.2161     H
H       0.8922   0.5511   0.7839     H
O     0.8923613 0.3694614  0.66017     O
O     0.8923613 0.8694614  0.33997     O
C      0.89252  0.00292 0.205311     C
C      0.89252  0.50292 0.794711     C
C      0.89632  0.08142  0.56721     C
C      0.89632  0.58142  0.43281     C
H       0.8995    0.035   0.8331     H
H       0.8995    0.535   0.1669     H
O     0.8998014 0.4224812  0.95077     O
O     0.8998014 0.9224812  0.04937     O
C      0.90484  0.13154 0.947313     C
C      0.90484  0.63154 0.052713     C
N     0.9058818 0.1352517  0.08638     N
N     0.9058818 0.6352517  0.91378     N
C      0.90594  0.04384 0.749314     C
C      0.90594  0.54384 0.250714     C
H       0.9072   0.4582   0.1646     H
H       0.9072   0.9582   0.8354     H
H        0.909   0.4996   0.7328     H
H        0.909   0.9996   0.2672     H
C      0.91042  0.44972  0.25709     C
C      0.91042  0.94972  0.74309     C
O     0.9136913 0.4386513  0.70287     O
O     0.9136913 0.9386513  0.29727     O
H       0.9164   0.4669   0.3183     H
H       0.9164   0.9669   0.6817     H
Cu    0.919933 0.400213 0.5559312    Cu
Cu    0.919933 0.900213 0.4440712    Cu
C      0.92294  0.06954 0.501613     C
C      0.92294  0.56954 0.498413     C
H       0.9289   0.0773   0.4152     H
H       0.9289   0.5773   0.5848     H
H       0.9291   0.1275   0.7692     H
H       0.9291   0.6275   0.2308     H
O     0.9303913 0.3921714  0.16867     O
O     0.9303913 0.8921714  0.83147     O
C      0.93144  0.12934 0.864813     C
C      0.93144  0.62934 0.135213     C
C      0.93252  0.03392 0.687211     C
C      0.93252  0.53392 0.312811     C
C      0.93374  0.13534 0.144314     C
C      0.93374  0.63534 0.855714     C
H       0.9352   0.1364   0.2405     H
H       0.9352   0.6364   0.7595     H
H       0.9371   0.3675    0.821     H
H       0.9371   0.8675    0.179     H
P     0.940906 0.419756  0.25442     P
P     0.940906 0.919756  0.74562     P
C      0.94124  0.04554 0.564713     C
C      0.94124  0.54554 0.435313     C
H        0.945   0.0187   0.7302     H
H        0.945   0.5187   0.2698     H
O     0.9487713 0.4117316  0.40187     O
O     0.9487713 0.9117316  0.59827     O
H        0.955   0.0292   0.0094     H
H        0.955   0.5292   0.9906     H
H       0.9553   0.0344   0.2399     H
H       0.9553   0.5344   0.7601     H
C      0.95704  0.37324 0.788713     C
C      0.95704  0.87324 0.211313     C
N     0.9580318 0.3848716  0.66068     N
N     0.9580318 0.8848716  0.33948     N
H       0.9588   0.4381   0.9825     H
H       0.9588   0.9381   0.0175     H
H       0.9592   0.0378   0.5208     H
H       0.9592   0.5378   0.4792     H
C      0.96072  0.12982  0.92031     C
C      0.96072  0.62982  0.07971     C
C      0.96224  0.13374 0.063513     C
C      0.96224  0.63374 0.936513     C
H        0.967   0.1114   0.6632     H
H        0.967   0.6114   0.3368     H
C      0.97274  0.04074 0.187815     C
C      0.97274  0.54074 0.812215     C
C      0.97304  0.03704 0.052613     C
C      0.97304  0.53704 0.947413     C
C      0.97552  0.43632  0.17901     C
C      0.97552  0.93632  0.82101     C
C      0.97634  0.44282 0.037011     C
C      0.97634  0.94282 0.963011     C
H       0.9776    0.362   0.9688     H
H       0.9776    0.862   0.0312     H
C      0.98144  0.36874 0.878314     C
C      0.98144  0.86874 0.121714     C
H       0.9817   0.1352   0.1071     H
H       0.9817   0.6352   0.8929     H
C      0.98674  0.38814 0.620817     C
C      0.98674  0.88814 0.379217     C
C      0.98684  0.11584 0.700916     C
C      0.98684  0.61584 0.299116     C
C      0.98882  0.12612  0.83449     C
C      0.98882  0.62612  0.16569     C
H       0.9899   0.3937   0.5285     H
H       0.9899   0.8937   0.4715     H
H       0.9972   0.0398   0.8818     H
H       0.9972   0.5398   0.1182     H
C      0.99754  0.04394 0.976613     C
C      0.99754  0.54394 0.023413     C
H       0.9995   0.4426   0.3503     H
H       0.9995   0.9426   0.6497     H
C      0.99994  0.44534 0.254514     C
C      0.99994  0.94534 0.745514     C
