data_I
_chemical_name_common  '/Users/gianmarcoterrones/Downloads/Ni8(OH)4(H2O)2(L10-(CF3)2)6'
_cell_length_a 32.40021
_cell_length_b 32.40021
_cell_length_c 32.40021
_cell_angle_alpha 90.00000
_cell_angle_beta  90.00000
_cell_angle_gamma 90.00000
_space_group_name_H-M_alt      'P 1'


loop_
_space_group_symop_operation_xyz
  'x, y, z' 

loop_
_atom_site_label
_atom_site_fract_x
_atom_site_fract_y
_atom_site_fract_z
_atom_site_type_symbol
O          0.0      0.0  0.04707     O
H          0.0      0.0 0.076391     H
H          0.0      0.0 0.923609     H
O          0.0      0.0  0.95293     O
O          0.0  0.04707      0.0     O
H          0.0 0.076391      0.0     H
C          0.0  0.12713  0.12713     C
C          0.0  0.12713  0.87287     C
C          0.0 0.159866 0.159866     C
C          0.0 0.159866 0.840134     C
C          0.0 0.186928 0.186928     C
C          0.0 0.186928 0.813072     C
C          0.0 0.219665 0.219665     C
C          0.0 0.219665 0.780335     C
C          0.0 0.280335 0.280335     C
C          0.0 0.280335 0.719665     C
C          0.0 0.313072 0.313072     C
C          0.0 0.313072 0.686928     C
C          0.0 0.340134 0.340134     C
C          0.0 0.340134 0.659866     C
C          0.0  0.37287  0.37287     C
C          0.0  0.37287  0.62713     C
H          0.0 0.423609      0.5     H
O          0.0  0.45293      0.5     O
H          0.0      0.5 0.423609     H
O          0.0      0.5  0.45293     O
O          0.0      0.5  0.54707     O
H          0.0      0.5 0.576391     H
O          0.0  0.54707      0.5     O
H          0.0 0.576391      0.5     H
C          0.0  0.62713  0.37287     C
C          0.0  0.62713  0.62713     C
C          0.0 0.659866 0.340134     C
C          0.0 0.659866 0.659866     C
C          0.0 0.686928 0.313072     C
C          0.0 0.686928 0.686928     C
C          0.0 0.719665 0.280335     C
C          0.0 0.719665 0.719665     C
C          0.0 0.780335 0.219665     C
C          0.0 0.780335 0.780335     C
C          0.0 0.813072 0.186928     C
C          0.0 0.813072 0.813072     C
C          0.0 0.840134 0.159866     C
C          0.0 0.840134 0.840134     C
C          0.0  0.87287  0.12713     C
C          0.0  0.87287  0.87287     C
H          0.0 0.923609      0.0     H
O          0.0  0.95293      0.0     O
N     0.020988 0.081456 0.081456     N
N     0.020988 0.081456 0.918544     N
N     0.020988 0.418544 0.418544     N
N     0.020988 0.418544 0.581456     N
N     0.020988 0.581456 0.418544     N
N     0.020988 0.581456 0.581456     N
N     0.020988 0.918544 0.081456     N
N     0.020988 0.918544 0.918544     N
C     0.033959 0.109684 0.109684     C
C     0.033959 0.109684 0.890316     C
C     0.033959 0.390316 0.390316     C
C     0.033959 0.390316 0.609684     C
C     0.033959 0.609684 0.390316     C
C     0.033959 0.609684 0.609684     C
C     0.033959 0.890316 0.109684     C
C     0.033959 0.890316 0.890316     C
C     0.037153 0.234832 0.234832     C
C     0.037153 0.234832 0.765168     C
C     0.037153 0.265168 0.265168     C
C     0.037153 0.265168 0.734832     C
C     0.037153 0.734832 0.265168     C
C     0.037153 0.734832 0.734832     C
C     0.037153 0.765168 0.234832     C
C     0.037153 0.765168 0.765168     C
Ni     0.04082  0.04082  0.04082    Ni
Ni     0.04082  0.04082  0.95922    Ni
Ni     0.04082  0.45922  0.45922    Ni
Ni     0.04082  0.45922  0.54082    Ni
Ni     0.04082  0.54082  0.45922    Ni
Ni     0.04082  0.54082  0.54082    Ni
Ni     0.04082  0.95922  0.04082    Ni
Ni     0.04082  0.95922  0.95922    Ni
O      0.04707      0.0      0.0     O
O      0.04707      0.5      0.5     O
H     0.061844 0.116091 0.116091     H
H     0.061844 0.116091 0.883909     H
H     0.061844 0.383909 0.383909     H
H     0.061844 0.383909 0.616091     H
H     0.061844 0.616091 0.383909     H
H     0.061844 0.616091 0.616091     H
H     0.061844 0.883909 0.116091     H
H     0.061844 0.883909 0.883909     H
H     0.066261 0.277051 0.277051     H
H     0.066261 0.277051 0.722949     H
H     0.066261 0.777051 0.222949     H
H     0.066261 0.777051 0.777051     H
F     0.073804 0.177897 0.207767     F
F     0.073804 0.207767 0.822103     F
F     0.073804 0.707767 0.322103     F
F     0.073804 0.707767 0.677897     F
H     0.076391      0.0      0.0     H
H     0.076391      0.5      0.5     H
C     0.078316 0.218028 0.218028     C
C     0.078316 0.218028 0.781972     C
C     0.078316 0.718028 0.281972     C
C     0.078316 0.718028 0.718028     C
N     0.081456 0.020988 0.081456     N
N     0.081456 0.020988 0.918544     N
N     0.081456 0.081456 0.020988     N
N     0.081456 0.081456 0.979012     N
N     0.081456 0.418544 0.479012     N
N     0.081456 0.418544 0.520988     N
N     0.081456 0.479012 0.418544     N
N     0.081456 0.479012 0.581456     N
N     0.081456 0.520988 0.418544     N
N     0.081456 0.520988 0.581456     N
N     0.081456 0.581456 0.479012     N
N     0.081456 0.581456 0.520988     N
N     0.081456 0.918544 0.020988     N
N     0.081456 0.918544 0.979012     N
N     0.081456 0.979012 0.081456     N
N     0.081456 0.979012 0.918544     N
F     0.089494 0.184302 0.760206     F
F     0.089494 0.239794 0.184302     F
F     0.089494 0.684302 0.260206     F
F     0.089494 0.684302 0.739794     F
F     0.107785  0.22164 0.247261     F
F     0.107785 0.247261  0.77836     F
F     0.107785 0.747261  0.27836     F
F     0.107785 0.747261  0.72164     F
C     0.109684 0.033959 0.109684     C
C     0.109684 0.033959 0.890316     C
C     0.109684 0.109684 0.033959     C
C     0.109684 0.109684 0.966042     C
C     0.109684 0.390316 0.466042     C
C     0.109684 0.390316 0.533958     C
C     0.109684 0.466042 0.390316     C
C     0.109684 0.466042 0.609684     C
C     0.109684 0.533958 0.390316     C
C     0.109684 0.533958 0.609684     C
C     0.109684 0.609684 0.466042     C
C     0.109684 0.609684 0.533958     C
C     0.109684 0.890316 0.033959     C
C     0.109684 0.890316 0.966042     C
C     0.109684 0.966042 0.109684     C
C     0.109684 0.966042 0.890316     C
H     0.116091 0.061844 0.116091     H
H     0.116091 0.061844 0.883909     H
H     0.116091 0.116091 0.061844     H
H     0.116091 0.116091 0.938156     H
H     0.116091 0.383909 0.438156     H
H     0.116091 0.383909 0.561844     H
H     0.116091 0.438156 0.383909     H
H     0.116091 0.438156 0.616091     H
H     0.116091 0.561844 0.383909     H
H     0.116091 0.561844 0.616091     H
H     0.116091 0.616091 0.438156     H
H     0.116091 0.616091 0.561844     H
H     0.116091 0.883909 0.061844     H
H     0.116091 0.883909 0.938156     H
H     0.116091 0.938156 0.116091     H
H     0.116091 0.938156 0.883909     H
C      0.12713      0.0  0.12713     C
C      0.12713      0.0  0.87287     C
C      0.12713  0.12713      0.0     C
C      0.12713  0.37287      0.5     C
C      0.12713      0.5  0.37287     C
C      0.12713      0.5  0.62713     C
C      0.12713  0.62713      0.5     C
C      0.12713  0.87287      0.0     C
C     0.159866      0.0 0.159866     C
C     0.159866      0.0 0.840134     C
C     0.159866 0.159866      0.0     C
C     0.159866 0.340134      0.5     C
C     0.159866      0.5 0.340134     C
C     0.159866      0.5 0.659866     C
C     0.159866 0.659866      0.5     C
C     0.159866 0.840134      0.0     C
F     0.177897 0.207767 0.926196     F
F     0.177897 0.292233 0.573804     F
F     0.177897 0.426196 0.292233     F
F     0.177897 0.573804 0.707767     F
F     0.184302 0.089494 0.239794     F
F     0.184302 0.739794 0.410506     F
F     0.184302 0.760206 0.910506     F
F     0.184302 0.910506 0.760206     F
C     0.186928      0.0 0.186928     C
C     0.186928      0.0 0.813072     C
C     0.186928 0.186928      0.0     C
C     0.186928 0.313072      0.5     C
C     0.186928      0.5 0.313072     C
C     0.186928      0.5 0.686928     C
C     0.186928 0.686928      0.5     C
C     0.186928 0.813072      0.0     C
F     0.207767 0.073804 0.177897     F
F     0.207767 0.677897 0.426196     F
F     0.207767 0.822103 0.926196     F
F     0.207767 0.926196 0.822103     F
C     0.218028 0.078316 0.218028     C
C     0.218028 0.218028 0.921684     C
C     0.218028 0.281972 0.578316     C
C     0.218028 0.421684 0.281972     C
C     0.218028 0.578316 0.718028     C
C     0.218028 0.718028 0.421684     C
C     0.218028 0.781972 0.921684     C
C     0.218028 0.921684 0.781972     C
C     0.219665      0.0 0.219665     C
C     0.219665      0.0 0.780335     C
C     0.219665 0.219665      0.0     C
C     0.219665 0.280335      0.5     C
C     0.219665      0.5 0.280335     C
C     0.219665      0.5 0.719665     C
C     0.219665 0.719665      0.5     C
C     0.219665 0.780335      0.0     C
F      0.22164 0.247261 0.892215     F
F      0.22164 0.252739 0.607785     F
F      0.22164 0.392215 0.252739     F
F      0.22164 0.607785 0.747261     F
H     0.222949 0.066261 0.777051     H
H     0.222949 0.222949 0.066261     H
H     0.222949 0.277051 0.433739     H
H     0.222949 0.433739 0.722949     H
H     0.222949 0.566261 0.277051     H
H     0.222949 0.722949 0.566261     H
H     0.222949 0.777051 0.066261     H
H     0.222949 0.933739 0.222949     H
C     0.234832 0.037153 0.234832     C
C     0.234832 0.037153 0.765168     C
C     0.234832 0.234832 0.037153     C
C     0.234832 0.234832 0.962847     C
C     0.234832 0.265168 0.462847     C
C     0.234832 0.265168 0.537153     C
C     0.234832 0.462847 0.265168     C
C     0.234832 0.462847 0.734832     C
C     0.234832 0.537153 0.265168     C
C     0.234832 0.537153 0.734832     C
C     0.234832 0.734832 0.462847     C
C     0.234832 0.734832 0.537153     C
C     0.234832 0.765168 0.037153     C
C     0.234832 0.765168 0.962847     C
C     0.234832 0.962847 0.234832     C
C     0.234832 0.962847 0.765168     C
F     0.239794 0.184302 0.910506     F
F     0.239794 0.315698 0.589494     F
F     0.239794 0.410506 0.315698     F
F     0.239794 0.589494 0.684302     F
F     0.247261 0.107785  0.22164     F
F     0.247261  0.72164 0.392215     F
F     0.247261  0.77836 0.892215     F
F     0.247261 0.892215  0.77836     F
F     0.252739 0.392215  0.77836     F
F     0.252739 0.892215  0.27836     F
F     0.260206 0.089494 0.684302     F
F     0.260206 0.184302 0.410506     F
F     0.260206 0.315698 0.089494     F
F     0.260206 0.589494 0.184302     F
F     0.260206 0.684302 0.089494     F
F     0.260206 0.815698 0.589494     F
C     0.265168 0.037153 0.265168     C
C     0.265168 0.037153 0.734832     C
C     0.265168 0.234832 0.462847     C
C     0.265168 0.234832 0.537153     C
C     0.265168 0.265168 0.037153     C
C     0.265168 0.265168 0.962847     C
C     0.265168 0.462847 0.234832     C
C     0.265168 0.462847 0.765168     C
C     0.265168 0.537153 0.234832     C
C     0.265168 0.537153 0.765168     C
C     0.265168 0.734832 0.037153     C
C     0.265168 0.734832 0.962847     C
C     0.265168 0.765168 0.462847     C
C     0.265168 0.765168 0.537153     C
C     0.265168 0.962847 0.265168     C
C     0.265168 0.962847 0.734832     C
H     0.277051 0.066261 0.277051     H
H     0.277051 0.222949 0.566261     H
H     0.277051 0.277051 0.933739     H
H     0.277051 0.433739 0.222949     H
H     0.277051 0.566261 0.777051     H
H     0.277051 0.722949 0.933739     H
H     0.277051 0.777051 0.433739     H
H     0.277051 0.933739 0.722949     H
F      0.27836 0.107785 0.747261     F
F      0.27836 0.247261 0.392215     F
F      0.27836 0.252739 0.107785     F
F      0.27836 0.607785 0.247261     F
F      0.27836 0.747261 0.107785     F
F      0.27836 0.752739 0.607785     F
C     0.280335      0.0 0.280335     C
C     0.280335      0.0 0.719665     C
C     0.280335 0.219665      0.5     C
C     0.280335 0.280335      0.0     C
C     0.280335      0.5 0.219665     C
C     0.280335      0.5 0.780335     C
C     0.280335 0.719665      0.0     C
C     0.280335 0.780335      0.5     C
C     0.281972 0.078316 0.718028     C
C     0.281972 0.218028 0.421684     C
C     0.281972 0.281972 0.078316     C
C     0.281972 0.421684 0.781972     C
C     0.281972 0.578316 0.218028     C
C     0.281972 0.718028 0.078316     C
C     0.281972 0.781972 0.578316     C
C     0.281972 0.921684 0.281972     C
F     0.292233 0.426196 0.822103     F
F     0.292233 0.926196 0.322103     F
C     0.313072      0.0 0.313072     C
C     0.313072      0.0 0.686928     C
C     0.313072 0.186928      0.5     C
C     0.313072 0.313072      0.0     C
C     0.313072      0.5 0.186928     C
C     0.313072      0.5 0.813072     C
C     0.313072 0.686928      0.0     C
C     0.313072 0.813072      0.5     C
F     0.315698 0.410506 0.760206     F
F     0.315698 0.910506 0.260206     F
F     0.322103 0.073804 0.707767     F
F     0.322103 0.207767 0.426196     F
F     0.322103 0.292233 0.073804     F
F     0.322103 0.573804 0.207767     F
F     0.322103 0.707767 0.073804     F
F     0.322103 0.792233 0.573804     F
C     0.340134      0.0 0.340134     C
C     0.340134      0.0 0.659866     C
C     0.340134 0.159866      0.5     C
C     0.340134 0.340134      0.0     C
C     0.340134      0.5 0.159866     C
C     0.340134      0.5 0.840134     C
C     0.340134 0.659866      0.0     C
C     0.340134 0.840134      0.5     C
C      0.37287      0.0  0.37287     C
C      0.37287      0.0  0.62713     C
C      0.37287  0.12713      0.5     C
C      0.37287  0.37287      0.0     C
C      0.37287      0.5  0.12713     C
C      0.37287      0.5  0.87287     C
C      0.37287  0.62713      0.0     C
C      0.37287  0.87287      0.5     C
H     0.383909 0.061844 0.383909     H
H     0.383909 0.061844 0.616091     H
H     0.383909 0.116091 0.438156     H
H     0.383909 0.116091 0.561844     H
H     0.383909 0.383909 0.061844     H
H     0.383909 0.383909 0.938156     H
H     0.383909 0.438156 0.116091     H
H     0.383909 0.438156 0.883909     H
H     0.383909 0.561844 0.116091     H
H     0.383909 0.561844 0.883909     H
H     0.383909 0.616091 0.061844     H
H     0.383909 0.616091 0.938156     H
H     0.383909 0.883909 0.438156     H
H     0.383909 0.883909 0.561844     H
H     0.383909 0.938156 0.383909     H
H     0.383909 0.938156 0.616091     H
C     0.390316 0.033959 0.390316     C
C     0.390316 0.033959 0.609684     C
C     0.390316 0.109684 0.466042     C
C     0.390316 0.109684 0.533958     C
C     0.390316 0.390316 0.033959     C
C     0.390316 0.390316 0.966042     C
C     0.390316 0.466042 0.109684     C
C     0.390316 0.466042 0.890316     C
C     0.390316 0.533958 0.109684     C
C     0.390316 0.533958 0.890316     C
C     0.390316 0.609684 0.033959     C
C     0.390316 0.609684 0.966042     C
C     0.390316 0.890316 0.466042     C
C     0.390316 0.890316 0.533958     C
C     0.390316 0.966042 0.390316     C
C     0.390316 0.966042 0.609684     C
F     0.392215  0.22164 0.747261     F
F     0.392215 0.252739  0.22164     F
F     0.392215 0.747261  0.22164     F
F     0.392215 0.747261  0.77836     F
F     0.410506 0.239794 0.684302     F
F     0.410506 0.315698 0.239794     F
F     0.410506 0.684302 0.239794     F
F     0.410506 0.684302 0.760206     F
N     0.418544 0.020988 0.418544     N
N     0.418544 0.020988 0.581456     N
N     0.418544 0.081456 0.479012     N
N     0.418544 0.081456 0.520988     N
N     0.418544 0.418544 0.020988     N
N     0.418544 0.418544 0.979012     N
N     0.418544 0.479012 0.081456     N
N     0.418544 0.479012 0.918544     N
N     0.418544 0.520988 0.081456     N
N     0.418544 0.520988 0.918544     N
N     0.418544 0.581456 0.020988     N
N     0.418544 0.581456 0.979012     N
N     0.418544 0.918544 0.479012     N
N     0.418544 0.918544 0.520988     N
N     0.418544 0.979012 0.418544     N
N     0.418544 0.979012 0.581456     N
C     0.421684 0.218028 0.718028     C
C     0.421684 0.281972 0.218028     C
C     0.421684 0.718028 0.218028     C
C     0.421684 0.718028 0.781972     C
H     0.423609      0.0      0.5     H
H     0.423609      0.5      0.0     H
F     0.426196 0.177897 0.707767     F
F     0.426196 0.292233 0.177897     F
F     0.426196 0.707767 0.177897     F
F     0.426196 0.707767 0.822103     F
H     0.433739 0.222949 0.277051     H
H     0.433739 0.277051 0.777051     H
H     0.433739 0.777051 0.277051     H
H     0.433739 0.777051 0.722949     H
H     0.438156 0.116091 0.383909     H
H     0.438156 0.116091 0.616091     H
H     0.438156 0.383909 0.116091     H
H     0.438156 0.383909 0.883909     H
H     0.438156 0.616091 0.116091     H
H     0.438156 0.616091 0.883909     H
H     0.438156 0.883909 0.383909     H
H     0.438156 0.883909 0.616091     H
O      0.45293      0.0      0.5     O
O      0.45293      0.5      0.0     O
Ni     0.45922  0.04082  0.45922    Ni
Ni     0.45922  0.04082  0.54082    Ni
Ni     0.45922  0.45922  0.04082    Ni
Ni     0.45922  0.45922  0.95922    Ni
Ni     0.45922  0.54082  0.04082    Ni
Ni     0.45922  0.54082  0.95922    Ni
Ni     0.45922  0.95922  0.45922    Ni
Ni     0.45922  0.95922  0.54082    Ni
C     0.462847 0.234832 0.265168     C
C     0.462847 0.234832 0.734832     C
C     0.462847 0.265168 0.234832     C
C     0.462847 0.265168 0.765168     C
C     0.462847 0.734832 0.234832     C
C     0.462847 0.734832 0.765168     C
C     0.462847 0.765168 0.265168     C
C     0.462847 0.765168 0.734832     C
C     0.466042 0.109684 0.390316     C
C     0.466042 0.109684 0.609684     C
C     0.466042 0.390316 0.109684     C
C     0.466042 0.390316 0.890316     C
C     0.466042 0.609684 0.109684     C
C     0.466042 0.609684 0.890316     C
C     0.466042 0.890316 0.390316     C
C     0.466042 0.890316 0.609684     C
N     0.479012 0.081456 0.418544     N
N     0.479012 0.081456 0.581456     N
N     0.479012 0.418544 0.081456     N
N     0.479012 0.418544 0.918544     N
N     0.479012 0.581456 0.081456     N
N     0.479012 0.581456 0.918544     N
N     0.479012 0.918544 0.418544     N
N     0.479012 0.918544 0.581456     N
H          0.5      0.0 0.423609     H
O          0.5      0.0  0.45293     O
O          0.5      0.0  0.54707     O
H          0.5      0.0 0.576391     H
O          0.5  0.04707      0.5     O
H          0.5 0.076391      0.5     H
C          0.5  0.12713  0.37287     C
C          0.5  0.12713  0.62713     C
C          0.5 0.159866 0.340134     C
C          0.5 0.159866 0.659866     C
C          0.5 0.186928 0.313072     C
C          0.5 0.186928 0.686928     C
C          0.5 0.219665 0.280335     C
C          0.5 0.219665 0.719665     C
C          0.5 0.280335 0.219665     C
C          0.5 0.280335 0.780335     C
C          0.5 0.313072 0.186928     C
C          0.5 0.313072 0.813072     C
C          0.5 0.340134 0.159866     C
C          0.5 0.340134 0.840134     C
C          0.5  0.37287  0.12713     C
C          0.5  0.37287  0.87287     C
H          0.5 0.423609      0.0     H
O          0.5  0.45293      0.0     O
O          0.5      0.5  0.04707     O
H          0.5      0.5 0.076391     H
H          0.5      0.5 0.923609     H
O          0.5      0.5  0.95293     O
O          0.5  0.54707      0.0     O
H          0.5 0.576391      0.0     H
C          0.5  0.62713  0.12713     C
C          0.5  0.62713  0.87287     C
C          0.5 0.659866 0.159866     C
C          0.5 0.659866 0.840134     C
C          0.5 0.686928 0.186928     C
C          0.5 0.686928 0.813072     C
C          0.5 0.719665 0.219665     C
C          0.5 0.719665 0.780335     C
C          0.5 0.780335 0.280335     C
C          0.5 0.780335 0.719665     C
C          0.5 0.813072 0.313072     C
C          0.5 0.813072 0.686928     C
C          0.5 0.840134 0.340134     C
C          0.5 0.840134 0.659866     C
C          0.5  0.87287  0.37287     C
C          0.5  0.87287  0.62713     C
H          0.5 0.923609      0.5     H
O          0.5  0.95293      0.5     O
N     0.520988 0.081456 0.418544     N
N     0.520988 0.081456 0.581456     N
N     0.520988 0.418544 0.081456     N
N     0.520988 0.418544 0.918544     N
N     0.520988 0.581456 0.081456     N
N     0.520988 0.581456 0.918544     N
N     0.520988 0.918544 0.418544     N
N     0.520988 0.918544 0.581456     N
C     0.533958 0.109684 0.390316     C
C     0.533958 0.109684 0.609684     C
C     0.533958 0.390316 0.109684     C
C     0.533958 0.390316 0.890316     C
C     0.533958 0.609684 0.109684     C
C     0.533958 0.609684 0.890316     C
C     0.533958 0.890316 0.390316     C
C     0.533958 0.890316 0.609684     C
C     0.537153 0.234832 0.265168     C
C     0.537153 0.234832 0.734832     C
C     0.537153 0.265168 0.234832     C
C     0.537153 0.265168 0.765168     C
C     0.537153 0.734832 0.234832     C
C     0.537153 0.734832 0.765168     C
C     0.537153 0.765168 0.265168     C
C     0.537153 0.765168 0.734832     C
Ni     0.54082  0.04082  0.45922    Ni
Ni     0.54082  0.04082  0.54082    Ni
Ni     0.54082  0.45922  0.04082    Ni
Ni     0.54082  0.45922  0.95922    Ni
Ni     0.54082  0.54082  0.04082    Ni
Ni     0.54082  0.54082  0.95922    Ni
Ni     0.54082  0.95922  0.45922    Ni
Ni     0.54082  0.95922  0.54082    Ni
O      0.54707      0.0      0.5     O
O      0.54707      0.5      0.0     O
H     0.561844 0.116091 0.383909     H
H     0.561844 0.116091 0.616091     H
H     0.561844 0.383909 0.116091     H
H     0.561844 0.383909 0.883909     H
H     0.561844 0.616091 0.116091     H
H     0.561844 0.616091 0.883909     H
H     0.561844 0.883909 0.383909     H
H     0.561844 0.883909 0.616091     H
H     0.566261 0.222949 0.722949     H
H     0.566261 0.277051 0.222949     H
H     0.566261 0.722949 0.222949     H
H     0.566261 0.722949 0.777051     H
F     0.573804 0.207767 0.322103     F
F     0.573804 0.322103 0.792233     F
F     0.573804 0.822103 0.292233     F
F     0.573804 0.822103 0.707767     F
H     0.576391      0.0      0.5     H
H     0.576391      0.5      0.0     H
C     0.578316 0.218028 0.281972     C
C     0.578316 0.281972 0.781972     C
C     0.578316 0.781972 0.281972     C
C     0.578316 0.781972 0.718028     C
N     0.581456 0.020988 0.418544     N
N     0.581456 0.020988 0.581456     N
N     0.581456 0.081456 0.479012     N
N     0.581456 0.081456 0.520988     N
N     0.581456 0.418544 0.020988     N
N     0.581456 0.418544 0.979012     N
N     0.581456 0.479012 0.081456     N
N     0.581456 0.479012 0.918544     N
N     0.581456 0.520988 0.081456     N
N     0.581456 0.520988 0.918544     N
N     0.581456 0.581456 0.020988     N
N     0.581456 0.581456 0.979012     N
N     0.581456 0.918544 0.479012     N
N     0.581456 0.918544 0.520988     N
N     0.581456 0.979012 0.418544     N
N     0.581456 0.979012 0.581456     N
F     0.589494 0.184302 0.260206     F
F     0.589494 0.260206 0.815698     F
F     0.589494 0.760206 0.315698     F
F     0.589494 0.760206 0.684302     F
F     0.607785 0.247261  0.27836     F
F     0.607785  0.27836 0.752739     F
F     0.607785  0.77836 0.252739     F
F     0.607785  0.77836 0.747261     F
C     0.609684 0.033959 0.390316     C
C     0.609684 0.033959 0.609684     C
C     0.609684 0.109684 0.466042     C
C     0.609684 0.109684 0.533958     C
C     0.609684 0.390316 0.033959     C
C     0.609684 0.390316 0.966042     C
C     0.609684 0.466042 0.109684     C
C     0.609684 0.466042 0.890316     C
C     0.609684 0.533958 0.109684     C
C     0.609684 0.533958 0.890316     C
C     0.609684 0.609684 0.033959     C
C     0.609684 0.609684 0.966042     C
C     0.609684 0.890316 0.466042     C
C     0.609684 0.890316 0.533958     C
C     0.609684 0.966042 0.390316     C
C     0.609684 0.966042 0.609684     C
H     0.616091 0.061844 0.383909     H
H     0.616091 0.061844 0.616091     H
H     0.616091 0.116091 0.438156     H
H     0.616091 0.116091 0.561844     H
H     0.616091 0.383909 0.061844     H
H     0.616091 0.383909 0.938156     H
H     0.616091 0.438156 0.116091     H
H     0.616091 0.438156 0.883909     H
H     0.616091 0.561844 0.116091     H
H     0.616091 0.561844 0.883909     H
H     0.616091 0.616091 0.061844     H
H     0.616091 0.616091 0.938156     H
H     0.616091 0.883909 0.438156     H
H     0.616091 0.883909 0.561844     H
H     0.616091 0.938156 0.383909     H
H     0.616091 0.938156 0.616091     H
C      0.62713      0.0  0.37287     C
C      0.62713      0.0  0.62713     C
C      0.62713  0.12713      0.5     C
C      0.62713  0.37287      0.0     C
C      0.62713      0.5  0.12713     C
C      0.62713      0.5  0.87287     C
C      0.62713  0.62713      0.0     C
C      0.62713  0.87287      0.5     C
C     0.659866      0.0 0.340134     C
C     0.659866      0.0 0.659866     C
C     0.659866 0.159866      0.5     C
C     0.659866 0.340134      0.0     C
C     0.659866      0.5 0.159866     C
C     0.659866      0.5 0.840134     C
C     0.659866 0.659866      0.0     C
C     0.659866 0.840134      0.5     C
F     0.677897 0.073804 0.707767     F
F     0.677897 0.292233 0.926196     F
F     0.677897 0.426196 0.792233     F
F     0.677897 0.707767 0.926196     F
F     0.677897 0.926196 0.292233     F
F     0.684302 0.239794 0.589494     F
F     0.684302 0.589494 0.239794     F
F     0.684302 0.760206 0.410506     F
C     0.686928      0.0 0.313072     C
C     0.686928      0.0 0.686928     C
C     0.686928 0.186928      0.5     C
C     0.686928 0.313072      0.0     C
C     0.686928      0.5 0.186928     C
C     0.686928      0.5 0.813072     C
C     0.686928 0.686928      0.0     C
C     0.686928 0.813072      0.5     C
F     0.707767 0.177897 0.573804     F
F     0.707767 0.573804 0.177897     F
F     0.707767 0.822103 0.426196     F
C     0.718028 0.078316 0.718028     C
C     0.718028 0.218028 0.578316     C
C     0.718028 0.281972 0.921684     C
C     0.718028 0.421684 0.781972     C
C     0.718028 0.578316 0.218028     C
C     0.718028 0.718028 0.921684     C
C     0.718028 0.781972 0.421684     C
C     0.718028 0.921684 0.281972     C
C     0.719665      0.0 0.280335     C
C     0.719665      0.0 0.719665     C
C     0.719665 0.219665      0.5     C
C     0.719665 0.280335      0.0     C
C     0.719665      0.5 0.219665     C
C     0.719665      0.5 0.780335     C
C     0.719665 0.719665      0.0     C
C     0.719665 0.780335      0.5     C
F      0.72164 0.107785 0.747261     F
F      0.72164 0.252739 0.892215     F
F      0.72164 0.392215 0.752739     F
F      0.72164 0.747261 0.892215     F
F      0.72164 0.892215 0.252739     F
H     0.722949 0.066261 0.277051     H
H     0.722949 0.222949 0.433739     H
H     0.722949 0.277051 0.066261     H
H     0.722949 0.433739 0.222949     H
H     0.722949 0.566261 0.777051     H
H     0.722949 0.722949 0.066261     H
H     0.722949 0.777051 0.566261     H
H     0.722949 0.933739 0.722949     H
C     0.734832 0.037153 0.265168     C
C     0.734832 0.037153 0.734832     C
C     0.734832 0.234832 0.462847     C
C     0.734832 0.234832 0.537153     C
C     0.734832 0.265168 0.037153     C
C     0.734832 0.265168 0.962847     C
C     0.734832 0.462847 0.234832     C
C     0.734832 0.462847 0.765168     C
C     0.734832 0.537153 0.234832     C
C     0.734832 0.537153 0.765168     C
C     0.734832 0.734832 0.037153     C
C     0.734832 0.734832 0.962847     C
C     0.734832 0.765168 0.462847     C
C     0.734832 0.765168 0.537153     C
C     0.734832 0.962847 0.265168     C
C     0.734832 0.962847 0.734832     C
F     0.739794 0.089494 0.684302     F
F     0.739794 0.315698 0.910506     F
F     0.739794 0.410506 0.815698     F
F     0.739794 0.684302 0.910506     F
F     0.739794 0.910506 0.315698     F
F     0.747261  0.22164 0.607785     F
F     0.747261 0.607785  0.22164     F
F     0.747261  0.77836 0.392215     F
F     0.752739  0.22164 0.107785     F
F     0.752739  0.27836 0.392215     F
F     0.752739 0.392215  0.27836     F
F     0.752739  0.72164 0.607785     F
F     0.760206 0.089494 0.184302     F
F     0.760206 0.589494 0.684302     F
F     0.760206 0.815698 0.089494     F
F     0.760206 0.910506 0.815698     F
C     0.765168 0.037153 0.234832     C
C     0.765168 0.037153 0.765168     C
C     0.765168 0.234832 0.037153     C
C     0.765168 0.234832 0.962847     C
C     0.765168 0.265168 0.462847     C
C     0.765168 0.265168 0.537153     C
C     0.765168 0.462847 0.265168     C
C     0.765168 0.462847 0.734832     C
C     0.765168 0.537153 0.265168     C
C     0.765168 0.537153 0.734832     C
C     0.765168 0.734832 0.462847     C
C     0.765168 0.734832 0.537153     C
C     0.765168 0.765168 0.037153     C
C     0.765168 0.765168 0.962847     C
C     0.765168 0.962847 0.234832     C
C     0.765168 0.962847 0.765168     C
H     0.777051 0.066261 0.777051     H
H     0.777051 0.222949 0.933739     H
H     0.777051 0.277051 0.566261     H
H     0.777051 0.433739 0.722949     H
H     0.777051 0.566261 0.277051     H
H     0.777051 0.722949 0.433739     H
H     0.777051 0.777051 0.933739     H
H     0.777051 0.933739 0.222949     H
F      0.77836 0.107785 0.247261     F
F      0.77836 0.607785 0.747261     F
F      0.77836 0.752739 0.107785     F
F      0.77836 0.892215 0.752739     F
C     0.780335      0.0 0.219665     C
C     0.780335      0.0 0.780335     C
C     0.780335 0.219665      0.0     C
C     0.780335 0.280335      0.5     C
C     0.780335      0.5 0.280335     C
C     0.780335      0.5 0.719665     C
C     0.780335 0.719665      0.5     C
C     0.780335 0.780335      0.0     C
C     0.781972 0.078316 0.218028     C
C     0.781972 0.218028 0.078316     C
C     0.781972 0.281972 0.421684     C
C     0.781972 0.421684 0.281972     C
C     0.781972 0.578316 0.718028     C
C     0.781972 0.718028 0.578316     C
C     0.781972 0.781972 0.078316     C
C     0.781972 0.921684 0.781972     C
F     0.792233 0.177897 0.073804     F
F     0.792233 0.322103 0.426196     F
F     0.792233 0.426196 0.322103     F
F     0.792233 0.677897 0.573804     F
C     0.813072      0.0 0.186928     C
C     0.813072      0.0 0.813072     C
C     0.813072 0.186928      0.0     C
C     0.813072 0.313072      0.5     C
C     0.813072      0.5 0.313072     C
C     0.813072      0.5 0.686928     C
C     0.813072 0.686928      0.5     C
C     0.813072 0.813072      0.0     C
F     0.815698 0.239794 0.089494     F
F     0.815698 0.260206 0.410506     F
F     0.815698 0.410506 0.260206     F
F     0.815698 0.739794 0.589494     F
F     0.822103 0.073804 0.207767     F
F     0.822103 0.573804 0.707767     F
F     0.822103 0.792233 0.073804     F
F     0.822103 0.926196 0.792233     F
C     0.840134      0.0 0.159866     C
C     0.840134      0.0 0.840134     C
C     0.840134 0.159866      0.0     C
C     0.840134 0.340134      0.5     C
C     0.840134      0.5 0.340134     C
C     0.840134      0.5 0.659866     C
C     0.840134 0.659866      0.5     C
C     0.840134 0.840134      0.0     C
C      0.87287      0.0  0.12713     C
C      0.87287      0.0  0.87287     C
C      0.87287  0.12713      0.0     C
C      0.87287  0.37287      0.5     C
C      0.87287      0.5  0.37287     C
C      0.87287      0.5  0.62713     C
C      0.87287  0.62713      0.5     C
C      0.87287  0.87287      0.0     C
H     0.883909 0.061844 0.116091     H
H     0.883909 0.061844 0.883909     H
H     0.883909 0.116091 0.061844     H
H     0.883909 0.116091 0.938156     H
H     0.883909 0.383909 0.438156     H
H     0.883909 0.383909 0.561844     H
H     0.883909 0.438156 0.383909     H
H     0.883909 0.438156 0.616091     H
H     0.883909 0.561844 0.383909     H
H     0.883909 0.561844 0.616091     H
H     0.883909 0.616091 0.438156     H
H     0.883909 0.616091 0.561844     H
H     0.883909 0.883909 0.061844     H
H     0.883909 0.883909 0.938156     H
H     0.883909 0.938156 0.116091     H
H     0.883909 0.938156 0.883909     H
C     0.890316 0.033959 0.109684     C
C     0.890316 0.033959 0.890316     C
C     0.890316 0.109684 0.033959     C
C     0.890316 0.109684 0.966042     C
C     0.890316 0.390316 0.466042     C
C     0.890316 0.390316 0.533958     C
C     0.890316 0.466042 0.390316     C
C     0.890316 0.466042 0.609684     C
C     0.890316 0.533958 0.390316     C
C     0.890316 0.533958 0.609684     C
C     0.890316 0.609684 0.466042     C
C     0.890316 0.609684 0.533958     C
C     0.890316 0.890316 0.033959     C
C     0.890316 0.890316 0.966042     C
C     0.890316 0.966042 0.109684     C
C     0.890316 0.966042 0.890316     C
F     0.892215  0.27836 0.252739     F
F     0.892215  0.27836 0.747261     F
F     0.892215 0.752739  0.77836     F
F     0.892215  0.77836 0.247261     F
F     0.910506 0.260206 0.315698     F
F     0.910506 0.260206 0.684302     F
F     0.910506 0.760206 0.184302     F
F     0.910506 0.815698 0.760206     F
N     0.918544 0.020988 0.081456     N
N     0.918544 0.020988 0.918544     N
N     0.918544 0.081456 0.020988     N
N     0.918544 0.081456 0.979012     N
N     0.918544 0.418544 0.479012     N
N     0.918544 0.418544 0.520988     N
N     0.918544 0.479012 0.418544     N
N     0.918544 0.479012 0.581456     N
N     0.918544 0.520988 0.418544     N
N     0.918544 0.520988 0.581456     N
N     0.918544 0.581456 0.479012     N
N     0.918544 0.581456 0.520988     N
N     0.918544 0.918544 0.020988     N
N     0.918544 0.918544 0.979012     N
N     0.918544 0.979012 0.081456     N
N     0.918544 0.979012 0.918544     N
C     0.921684 0.281972 0.281972     C
C     0.921684 0.281972 0.718028     C
C     0.921684 0.781972 0.218028     C
C     0.921684 0.781972 0.781972     C
H     0.923609      0.0      0.0     H
H     0.923609      0.5      0.5     H
F     0.926196 0.322103 0.292233     F
F     0.926196 0.322103 0.707767     F
F     0.926196 0.792233 0.822103     F
F     0.926196 0.822103 0.207767     F
H     0.933739 0.222949 0.222949     H
H     0.933739 0.222949 0.777051     H
H     0.933739 0.722949 0.277051     H
H     0.933739 0.722949 0.722949     H
H     0.938156 0.116091 0.116091     H
H     0.938156 0.116091 0.883909     H
H     0.938156 0.383909 0.383909     H
H     0.938156 0.383909 0.616091     H
H     0.938156 0.616091 0.383909     H
H     0.938156 0.616091 0.616091     H
H     0.938156 0.883909 0.116091     H
H     0.938156 0.883909 0.883909     H
O      0.95293      0.0      0.0     O
O      0.95293      0.5      0.5     O
Ni     0.95922  0.04082  0.04082    Ni
Ni     0.95922  0.04082  0.95922    Ni
Ni     0.95922  0.45922  0.45922    Ni
Ni     0.95922  0.45922  0.54082    Ni
Ni     0.95922  0.54082  0.45922    Ni
Ni     0.95922  0.54082  0.54082    Ni
Ni     0.95922  0.95922  0.04082    Ni
Ni     0.95922  0.95922  0.95922    Ni
C     0.962847 0.234832 0.234832     C
C     0.962847 0.234832 0.765168     C
C     0.962847 0.265168 0.265168     C
C     0.962847 0.265168 0.734832     C
C     0.962847 0.734832 0.265168     C
C     0.962847 0.734832 0.734832     C
C     0.962847 0.765168 0.234832     C
C     0.962847 0.765168 0.765168     C
C     0.966042 0.109684 0.109684     C
C     0.966042 0.109684 0.890316     C
C     0.966042 0.390316 0.390316     C
C     0.966042 0.390316 0.609684     C
C     0.966042 0.609684 0.390316     C
C     0.966042 0.609684 0.609684     C
C     0.966042 0.890316 0.109684     C
C     0.966042 0.890316 0.890316     C
N     0.979012 0.081456 0.081456     N
N     0.979012 0.081456 0.918544     N
N     0.979012 0.418544 0.418544     N
N     0.979012 0.418544 0.581456     N
N     0.979012 0.581456 0.418544     N
N     0.979012 0.581456 0.581456     N
N     0.979012 0.918544 0.081456     N
N     0.979012 0.918544 0.918544     N
