data_I
_chemical_name_common  '/Users/gianmarcoterrones/Research/MOFs/MOF_structures/water_stability_work_extra_structs/cleaned_from_CCDC/NIZNOB'
_cell_length_a 16.14910
_cell_length_b 20.68960
_cell_length_c 20.75920
_cell_angle_alpha 113.40800
_cell_angle_beta  98.04000
_cell_angle_gamma 90.07700
_space_group_name_H-M_alt      'P 1'


loop_
_space_group_symop_operation_xyz
  'x, y, z' 

loop_
_atom_site_label
_atom_site_fract_x
_atom_site_fract_y
_atom_site_fract_z
_atom_site_type_symbol
Cu     0.00131  0.09259  0.74853    Cu
C       0.0014   0.4181     0.43     C
O       0.0021   0.7311   0.8185     O
O       0.0031   0.7087   0.3544     O
H       0.0045   0.4581   0.9128     H
C        0.005   0.4194    0.925     C
Cu     0.00846  0.07654  0.20105    Cu
N       0.0093   0.6957   0.6031     N
H       0.0098   0.5366   0.5663     H
H       0.0229   0.8002   0.7807     H
H       0.0269   0.7868   0.2356     H
N       0.0306   0.6806   0.0702     N
O       0.0308   0.7433   0.9391     O
N       0.0397   0.3465   0.9741     N
Cu     0.04292  0.79882  0.65039    Cu
C       0.0462   0.6421   0.6116     C
N       0.0487    0.952   0.7177     N
O       0.0531  0.83531   0.7706     O
C       0.0539   0.6363   0.1008     C
N       0.0544   0.1933   0.8928     N
H       0.0545    0.056   0.4008     H
H       0.0594   0.0677   0.9515     H
N       0.0601   0.3307   0.4435     N
O       0.0625  0.82197   0.2297     O
N       0.0636   0.4077   0.9713     N
N       0.0646    0.937   0.1714     N
S      0.06513  0.72614  0.87497     S
Cu     0.06637  0.78361  0.11248    Cu
N       0.0667   0.4004   0.4644     N
N       0.0744   0.0128   0.7157     N
N       0.0764   0.1737   0.3412     N
N       0.0782   0.9946   0.1595     N
H       0.0812   0.6182   0.7422     H
N       0.0818   0.9568    0.342     N
N       0.0827   0.1457   0.8366     N
N       0.0831     0.97   0.8828     N
N       0.0845    0.899   0.6722     N
C       0.0916   0.0204   0.3943     C
H       0.0919   0.5891    0.222     H
S      0.09259  0.70251  0.35449     S
C       0.0938   0.6366   0.8461     C
H       0.0963    0.645   0.6411     H
C       0.0973   0.5984   0.7748     C
C       0.0975   0.0329   0.9376     C
N       0.0975   0.8829   0.1235     N
N       0.0991    0.127   0.2808     N
H       0.1017   0.6422   0.1339     H
O       0.1034    0.388   0.1308     O
C       0.1047   0.5694   0.2551     C
C       0.1098    0.611   0.3264     C
Cu     0.11054  0.30868  0.03755    Cu
H       0.1142   0.6333   0.9433     H
N       0.1146   0.2169   0.9488     N
C       0.1169   0.6075   0.8955     C
C       0.1186   0.4545   0.1535     C
C       0.1187   0.4969   0.2321     C
C       0.1211   0.9765   0.1048     C
O       0.1235   0.7256   0.3036     O
C        0.125   0.5302   0.7518     C
C       0.1284   0.9967   0.6685     C
O        0.129   0.5147   0.6314     O
C       0.1302   0.5825    0.376     C
H       0.1313   0.2156   0.1375     H
C       0.1325   0.9067   0.0809     C
H       0.1333   0.6108   0.4241     H
C       0.1345    0.926   0.6407     C
O       0.1359   0.4887    0.119     O
C       0.1362   0.4872   0.6757     C
O       0.1373   0.7371   0.4258     O
C       0.1387   0.4689   0.2824     C
H        0.139   0.1791   0.5793     H
H         0.14    0.007   0.0863     H
O       0.1409   0.7668   0.8802     O
Cu     0.14107  0.28086   0.4843    Cu
N       0.1431   0.1962   0.3925     N
C       0.1439   0.5401   0.8728     C
C       0.1463   0.5117   0.3541     C
H       0.1472    0.421   0.2679     H
C       0.1477   0.5019   0.8011     C
N       0.1484   0.9222   0.3528     N
N       0.1533   0.9365   0.8819     N
O       0.1558   0.4246   0.6628     O
H       0.1568   0.0289    0.657     H
O       0.1569   0.5328   0.9862     O
O       0.1579   0.5176   0.4724     O
H       0.1591   0.8803   0.0426     H
N       0.1618   0.7746   0.6515     N
C       0.1628   0.1386   0.8578     C
C       0.1658   0.0249   0.4371     C
H        0.166   0.4563   0.7862     H
H       0.1669   0.9007   0.6064     H
Cu      0.1703  0.82711  0.28669    Cu
Cu     0.17044  0.84158  0.81055    Cu
C       0.1713   0.4812   0.4085     C
C       0.1725   0.5041   0.9233     C
Cu     0.17381  0.45471  0.52281    Cu
Cu     0.17847  0.45362  0.01952    Cu
C       0.1788   0.0368   0.9695     C
C       0.1811   0.1194   0.2949     C
C        0.182   0.2314   0.1307     C
H       0.1823   0.3826   0.5919     H
C       0.1836   0.1831    0.928     C
N        0.185   0.7632   0.1307     N
H       0.1886   0.0641   0.4773     H
C       0.1896   0.2027   0.5828     C
N        0.192   0.2692   0.0921     N
H       0.1942   0.7363   0.5528     H
H       0.1985   0.1086   0.8297     H
O       0.1993  0.37113  0.54523     O
N       0.1999   0.9623   0.4104     N
O       0.2044   0.4231   0.3905     O
N       0.2054   0.2411   0.5462     N
H       0.2057   0.0749   0.0088     H
O       0.2077   0.4475   0.8996     O
C        0.208    0.163    0.365     C
N         0.21   0.7912    0.714     N
C       0.2112   0.7524   0.6016     C
N       0.2127   0.9762   0.9342     N
H       0.2139   0.0901   0.2631     H
O       0.2168  0.35692   0.0097     O
H       0.2174   0.3297   0.9589     H
N       0.2236   0.7808   0.1975     N
H       0.2355   0.1888    0.956     H
H       0.2366   0.7245   0.0388     H
C       0.2449   0.7404    0.088     C
H       0.2486   0.6775   0.7599     H
H       0.2489   0.3231   0.4218     H
H       0.2532   0.6675   0.2554     H
C       0.2601   0.2204   0.1581     C
H       0.2624   0.1682   0.3889     H
C       0.2632   0.2053   0.6266     C
H       0.2658   0.8033   0.3724     H
H       0.2715   0.1832    0.658     H
H        0.272   0.1961   0.1872     H
O       0.2725  0.83624  0.34987     O
N       0.2741   0.2809   0.0952     N
H       0.2795    0.816   0.8836     H
O       0.2813  0.84858  0.86001     O
N       0.2842   0.2658   0.5674     N
N       0.2899   0.4962   0.5652     N
N       0.2904   0.7823   0.7051     N
O       0.2905   0.9101   0.5464     O
C       0.2914    0.758   0.6355     C
H        0.295   0.5766    0.789     H
N       0.2957   0.4918   0.0656     N
H       0.2959   0.5733   0.2944     H
O       0.3007   0.3237   0.4369     O
C       0.3033   0.6702   0.7752     C
N       0.3055   0.7704   0.1975     N
C       0.3068   0.6627   0.2755     C
H       0.3116   0.5973   0.5777     H
H       0.3145   0.5954    0.087     H
Cu     0.31541  0.93045  0.42917    Cu
O       0.3167   0.9083    0.048     O
N       0.3175   0.2515   0.1353     N
Cu     0.31902   0.3546    0.558    Cu
N       0.3197   0.2447   0.6163     N
C         0.32   0.7449   0.1305     C
Cu      0.3241   0.3482  0.05722    Cu
C       0.3254   0.9702   0.5685     C
H        0.326   0.3465   0.7845     H
H       0.3277   0.3538   0.4281     H
C        0.329   0.6144   0.7922     C
Cu     0.32968  0.94078  0.93726    Cu
C       0.3304   0.6108   0.2975     C
H       0.3306    0.343   0.3012     H
C       0.3328    0.558   0.5836     C
C       0.3359   0.5555   0.0916     C
O       0.3377    0.002   0.5292     O
H       0.3388   0.7467   0.6135     H
H       0.3432   0.9224   0.6696     H
N       0.3446   0.4553   0.5822     N
H       0.3446    0.473   0.8634     H
C       0.3458   0.9701   0.0748     C
O       0.3461   0.2343   0.8001     O
N       0.3476   0.4508   0.0847     N
H        0.348   0.4707   0.3801     H
H       0.3536   0.9198   0.1728     H
O       0.3555   0.2674   0.9538     O
O       0.3569   0.0061   0.0384     O
C       0.3569   0.0078   0.6469     C
C       0.3581   0.9705   0.6901     C
C       0.3587   0.3803    0.779     C
C       0.3623   0.3774   0.2955     C
O       0.3624   0.9846   0.3709     O
O       0.3625   0.9921   0.8697     O
O       0.3654   0.2327   0.3205     O
C       0.3688   0.9679   0.1948     C
C       0.3689   0.4504   0.8228     C
C       0.3708   0.0068   0.1539     C
H       0.3714   0.7324   0.1153     H
C       0.3715   0.4484    0.339     C
N       0.3721   0.7123    0.785     N
N       0.3745   0.7055    0.288     N
H       0.3787   0.2884   0.9325     H
C       0.3807   0.9614   0.8083     C
Cu     0.38085  0.81034  0.78999    Cu
C       0.3812   0.0042   0.7635     C
Cu     0.38251  0.80296  0.29077    Cu
C       0.3832   0.0794   0.6781     C
C       0.3833   0.9551   0.3102     C
H       0.3853   0.1049   0.6501     H
H       0.3889   0.2392   0.9625     H
C        0.389   0.9995   0.2675     C
H       0.3954   0.1528   0.0049     H
O       0.3956   0.8978   0.7778     O
C       0.3966    0.078   0.1868     C
O       0.3985   0.8907   0.2796     O
H       0.3998   0.1043   0.1597     H
C       0.4028   0.0761   0.7948     C
N       0.4039    0.369   0.7269     N
H       0.4047   0.1473   0.4953     H
C       0.4062   0.1119   0.7512     C
N       0.4082   0.3677   0.2431     N
N       0.4109    0.623   0.3242     N
N       0.4113   0.6248   0.8139     N
C        0.412   0.5537   0.6124     C
C       0.4122   0.0706   0.3005     C
C       0.4127   0.5529   0.1258     C
H       0.4147   0.0997   0.8439     H
C       0.4175   0.1096   0.2596     C
N       0.4194   0.4886   0.6101     N
N       0.4196   0.4857   0.1214     N
N       0.4209   0.4805    0.796     N
N       0.4215   0.4801   0.3105     N
H       0.4242   0.0924   0.3497     H
S      0.42738  0.20552  0.79202     S
N       0.4287   0.8925   0.4421     N
O       0.4367  0.34375    0.099     O
O       0.4369  0.34465   0.5845     O
N       0.4375   0.6842    0.809     N
N       0.4383   0.6807   0.3178     N
Cu     0.44015  0.27914   0.1671    Cu
N       0.4409   0.4314   0.7376     N
N       0.4412   0.8971   0.9409     N
Cu     0.44123     0.28  0.65423    Cu
N       0.4423     0.43   0.2515     N
C       0.4439   0.1462   0.0308     C
S      0.44493   0.2018  0.30386     S
N       0.4491   0.8363   0.3885     N
H       0.4532   0.5901   0.1481     H
C       0.4534   0.1438   0.5232     C
H        0.454   0.5898   0.6306     H
N       0.4573   0.8418   0.8847     N
H       0.4624   0.3191   0.5419     H
H       0.4676   0.3185   0.0598     H
O       0.4689   0.2264   0.7445     O
N       0.4733   0.1866   0.0992     N
O       0.4786   0.2234   0.2536     O
O       0.4787   0.2207   0.8597     O
N       0.4788   0.1862   0.5905     N
C       0.4898   0.9055   0.4981     C
H       0.4913   0.0583   0.9599     H
H       0.4923   0.9417   0.5429     H
O       0.4939   0.7896   0.6352     O
Cu     0.49594  0.56696  0.35467    Cu
C        0.497   0.0936   0.0055     C
Cu     0.49705  0.56738  0.84015    Cu
Cu     0.50295  0.43262  0.15985    Cu
C        0.503   0.9064   0.9945     C
Cu     0.50406  0.43304  0.64533    Cu
O       0.5061   0.2104   0.3648     O
H       0.5077   0.0583   0.4571     H
H       0.5087   0.9417   0.0401     H
C       0.5102   0.0945   0.5019     C
N       0.5212   0.8138   0.4095     N
O       0.5213   0.7793   0.1403     O
O       0.5214   0.7766   0.7464     O
N       0.5267   0.8134   0.9008     N
O       0.5311   0.7736   0.2555     O
H       0.5324   0.6815   0.9402     H
H       0.5376   0.6809   0.4581     H
N       0.5427   0.1582   0.1153     N
H        0.546   0.4102   0.3694     H
C       0.5466   0.8562   0.4768     C
H       0.5468   0.4099   0.8519     H
N       0.5509   0.1637   0.6115     N
S      0.55507   0.7982  0.69614     S
C       0.5561   0.8538   0.9692     C
N       0.5577     0.57   0.7485     N
Cu     0.55877     0.72  0.34577    Cu
N       0.5588   0.1029   0.0591     N
N       0.5591   0.5686   0.2624     N
Cu     0.55985  0.72086   0.8329    Cu
N       0.5617   0.3193   0.6822     N
N       0.5625   0.3158    0.191     N
O       0.5631  0.65535   0.4155     O
O       0.5633  0.65625    0.901     O
N       0.5713   0.1075   0.5579     N
S      0.57262  0.79448  0.20798     S
H       0.5758   0.9076   0.6503     H
N       0.5785   0.5199   0.6895     N
N       0.5791   0.5195    0.204     N
N       0.5804   0.5143   0.8786     N
N       0.5806   0.5114   0.3899     N
C       0.5825   0.8904   0.7404     C
H       0.5853   0.9003   0.1561     H
C       0.5873   0.4471   0.8742     C
C       0.5878   0.9294   0.6995     C
C        0.588   0.4463   0.3876     C
N       0.5887   0.3752   0.1861     N
N       0.5891    0.377   0.6758     N
N       0.5918   0.6323   0.7569     N
C       0.5938   0.8881   0.2488     C
H       0.5953   0.8527   0.5047     H
N       0.5961    0.631   0.2731     N
C       0.5972   0.9239   0.2052     C
H       0.6002   0.8957   0.8403     H
O       0.6015   0.1093   0.7204     O
C       0.6034    0.922   0.8132     C
O       0.6044   0.1022   0.2222     O
H       0.6046   0.8472   0.9951     H
C        0.611   0.0005   0.7325     C
H       0.6111   0.7608   0.0375     H
H       0.6147   0.8951   0.3499     H
C       0.6167   0.0449   0.6898     C
C       0.6168   0.9206   0.3219     C
Cu     0.61749  0.19704  0.70923    Cu
C       0.6188   0.9958   0.2365     C
Cu     0.61915  0.18966  0.21001    Cu
C       0.6193   0.0386   0.1917     C
H       0.6213   0.7116   0.0675     H
N       0.6255   0.2945    0.712     N
N       0.6279   0.2877    0.215     N
C       0.6285   0.5516    0.661     C
H       0.6286   0.2676   0.8847     H
C       0.6292   0.9932   0.8461     C
C       0.6311   0.5496   0.1772     C
C       0.6312   0.0321   0.8052     C
O       0.6346   0.7673   0.6795     O
O       0.6375   0.0079   0.1303     O
O       0.6376   0.0154   0.6291     O
C       0.6377   0.6226   0.7045     C
C       0.6413   0.6197    0.221     C
C       0.6419   0.0295   0.3099     C
C       0.6431   0.9922   0.3531     C
O       0.6431   0.9939   0.9616     O
O       0.6445   0.7326   0.0462     O
H       0.6464   0.0802   0.8272     H
H        0.652   0.5293   0.6199     H
N       0.6524   0.5492   0.9153     N
O       0.6539   0.7657   0.1999     O
C       0.6542   0.0299   0.9252     C
H       0.6554    0.527   0.1366     H
N       0.6554   0.5447   0.4178     N
H       0.6568   0.0776   0.3304     H
H       0.6612   0.2533   0.3865     H
O       0.6623    0.998   0.4708     O
C       0.6641   0.4445   0.9084     C
C       0.6672    0.442   0.4164     C
H       0.6694    0.657   0.6988     H
C       0.6696   0.3892   0.7025     C
Cu     0.67032  0.05922  0.06274    Cu
C        0.671   0.3856   0.2078     C
H       0.6723   0.6462   0.5719     H
H        0.674   0.6535   0.2155     H
C       0.6746   0.0298   0.4315     C
Cu      0.6759   0.6518  0.94278    Cu
C         0.68   0.2551   0.8695     C
N       0.6803   0.7553   0.3837     N
Cu     0.68098   0.6454    0.442    Cu
N       0.6825   0.7485   0.8647     N
O       0.6833   0.0917    0.952     O
Cu     0.68459  0.06955  0.57083    Cu
H       0.6855   0.4046    0.913     H
H       0.6884   0.4027   0.4223     H
C       0.6932   0.3373   0.7245     C
N       0.6945   0.2296   0.8025     N
C       0.6967   0.3298   0.2248     C
O       0.6993   0.6763   0.5631     O
H       0.7041   0.4267   0.7056     H
N       0.7043   0.5082   0.9344     N
H        0.705   0.4234    0.211     H
C       0.7086    0.242   0.3645     C
O       0.7095   0.0899   0.4536     O
N       0.7096   0.2177   0.2949     N
N       0.7101   0.5038   0.4348     N
N       0.7158   0.7342   0.4326     N
O       0.7187  0.15142  0.13999     O
H       0.7205    0.184   0.1164     H
N       0.7259   0.7191   0.9048     N
O       0.7275  0.16376  0.65013     O
H        0.728   0.8039   0.8128     H
H       0.7285   0.8168    0.342     H
H       0.7342   0.1967   0.6276     H
C       0.7368   0.7947   0.3734     C
H       0.7376   0.8318   0.6111     H
C       0.7399   0.7796   0.8419     C
H       0.7468   0.3325   0.7446     H
H       0.7511   0.6769   0.5782     H
H       0.7514   0.3225   0.2401     H
C       0.7551   0.2596    0.912     C
H       0.7634   0.2755   0.9612     H
H       0.7645   0.8112    0.044     H
N       0.7764   0.2192   0.8025     N
H       0.7826   0.6703   0.0411     H
O       0.7832  0.64308   0.9903     O
H       0.7861   0.9099   0.7369     H
N       0.7873   0.0238   0.0658     N
C       0.7888   0.2476   0.3984     C
N         0.79   0.2088    0.286     N
C        0.792    0.837    0.635     C
O       0.7923   0.5525   0.1004     O
H       0.7943   0.9251   0.9912     H
N       0.7946   0.7589   0.4538     N
O       0.7956   0.5769   0.6095     O
N       0.8001   0.0377   0.5896     N
O       0.8007  0.62887  0.45477     O
H       0.8015   0.8914   0.1703     H
H       0.8058   0.2637   0.4472     H
N        0.808   0.7308   0.9079     N
C       0.8104   0.7973   0.4172     C
H       0.8114   0.9359   0.5227     H
N        0.815   0.2368   0.8693     N
C       0.8164   0.8169    0.072     C
H       0.8177   0.6174   0.4081     H
C        0.818   0.7686   0.8693     C
C       0.8189   0.8806   0.7051     C
C       0.8212   0.9632   0.0305     C
Cu     0.82153  0.54638  0.98048    Cu
Cu     0.82619  0.54529  0.47719    Cu
C       0.8275   0.4959   0.0767     C
C       0.8287   0.5188   0.5915     C
Cu     0.82956  0.15842  0.18945    Cu
Cu      0.8297  0.17289  0.71331    Cu
H       0.8331   0.0993   0.3936     H
H        0.834   0.5437   0.2138     H
C       0.8342   0.9751   0.5629     C
C       0.8372   0.8614   0.1422     C
N       0.8382   0.2254   0.3485     N
H       0.8409   0.1197   0.9574     H
O       0.8421   0.4824   0.5276     O
O       0.8431   0.4672   0.0138     O
H       0.8432   0.9711    0.343     H
O       0.8442   0.5754   0.3372     O
N       0.8467   0.0635   0.1181     N
N       0.8516   0.0778   0.6472     N
C       0.8523   0.4981   0.1989     C
H       0.8528    0.579   0.7321     H
C       0.8537   0.4883   0.6459     C
C       0.8561   0.4599   0.1272     C
N       0.8569   0.8038   0.6075     N
Cu     0.85893  0.71914   0.5157    Cu
O       0.8591   0.2332   0.1198     O
H         0.86    0.993   0.9137     H
H        0.861   0.8209   0.4207     H
C       0.8613   0.5311   0.7176     C
O       0.8627   0.2629   0.5742     O
C       0.8638   0.5128   0.3243     C
O       0.8641   0.5113    0.881     O
C       0.8655    0.074   0.3593     C
H       0.8667   0.3892   0.5759     H
C       0.8675   0.0933   0.9191     C
H       0.8687   0.7844   0.8625     H
C       0.8698   0.4175    0.624     C
O        0.871   0.4853   0.3686     O
C       0.8716   0.0033   0.3315     C
C        0.875   0.4698   0.2482     C
O       0.8765   0.2744   0.6964     O
C       0.8789   0.0235   0.8952     C
C       0.8813   0.5031   0.7679     C
C       0.8814   0.5455   0.8465     C
C       0.8831   0.3925   0.1045     C
N       0.8854   0.7831   0.0512     N
H       0.8858   0.3667   0.0567     H
Cu     0.88946  0.69132  0.96245    Cu
C       0.8902    0.389   0.6736     C
C       0.8953   0.4306   0.7449     C
O       0.8966    0.612   0.8692     O
H       0.8983   0.3578   0.8661     H
N       0.9009    0.873   0.7192     N
N       0.9025   0.1171   0.8765     N
C       0.9025   0.9671   0.0624     C
C       0.9027   0.4016   0.2252     C
H       0.9037    0.355   0.3589     H
C       0.9062   0.3634   0.1539     C
S      0.90741  0.29749  0.64551     S
H       0.9081   0.4109    0.778     H
C       0.9084   0.9796   0.6057     C
N       0.9155    0.101   0.3278     N
N       0.9169     0.03   0.1172     N
N       0.9173   0.8543   0.1634     N
N       0.9182   0.0432    0.658     N
H       0.9188   0.3818   0.2578     H
N       0.9218   0.0054   0.8405     N
N       0.9236   0.8263   0.6588     N
N       0.9256   0.9872   0.2843     N
N       0.9333   0.5996   0.5356     N
Cu     0.93363  0.21639  0.88752    Cu
S      0.93487  0.27386  0.12503     S
N       0.9354    0.063   0.8286     N
N       0.9364   0.5923   0.0287     N
O       0.9375  0.17803   0.7703     O
N       0.9399   0.6693   0.5565     N
H       0.9406   0.9323   0.0485     H
H       0.9455    0.944   0.5992     H
N       0.9456   0.8067   0.1072     N
C       0.9461   0.3637   0.8992     C
O       0.9469  0.16469   0.2294     O
N       0.9513    0.048   0.2823     N
C       0.9538   0.3579   0.3884     C
Cu     0.95708  0.20118  0.34961    Cu
N       0.9603   0.6535   0.0259     N
O       0.9692   0.2567   0.0609     O
N       0.9694   0.3194   0.9298     N
H       0.9731   0.2132   0.7644     H
H       0.9771   0.1998   0.2193     H
H       0.9902   0.4634   0.4337     H
N       0.9907   0.3043   0.3969     N
Cu     0.99154  0.92346  0.79895    Cu
C        0.995   0.5806    0.075     C
H       0.9955   0.5419   0.0872     H
O       0.9969   0.2913   0.6456     O
O       0.9979   0.2689   0.1815     O
C       0.9986   0.5819     0.57     C
Cu     0.99869  0.90741  0.25147    Cu
