data_image0
_cell_length_a       11.632
_cell_length_b       27.86
_cell_length_c       31.017
_cell_angle_alpha    90
_cell_angle_beta     90
_cell_angle_gamma    90

_symmetry_space_group_name_H-M    "P 1"
_symmetry_int_tables_number       1

loop_
  _symmetry_equiv_pos_as_xyz
  'x, y, z'

loop_
  _atom_site_label
  _atom_site_occupancy
  _atom_site_fract_x
  _atom_site_fract_y
  _atom_site_fract_z
  _atom_site_thermal_displace_type
  _atom_site_B_iso_or_equiv
  _atom_site_type_symbol
  Co1      1.0000 0.96194  0.20025  0.00522  Biso   1.000  Co
  O1       1.0000 0.09960  0.20182  0.96223  Biso   1.000  O
  C1       1.0000 0.11520  0.23922  0.94045  Biso   1.000  C
  O2       1.0000 0.07000  0.27949  0.94811  Biso   1.000  O
  C2       1.0000 0.19320  0.23699  0.90205  Biso   1.000  C
  O3       1.0000 0.82650  0.28288  0.95629  Biso   1.000  O
  O4       1.0000 0.86430  0.29564  0.04853  Biso   1.000  O
  C3       1.0000 0.27070  0.20004  0.89677  Biso   1.000  C
  C4       1.0000 0.18610  0.27234  0.87113  Biso   1.000  C
  N1       1.0000 0.96130  0.37390  0.99283  Biso   1.000  N
  C5       1.0000 0.34200  0.19900  0.86095  Biso   1.000  C
  H1       1.0000 0.27530  0.17580  0.91730  Biso   1.000  H
  C6       1.0000 0.25460  0.27041  0.83458  Biso   1.000  C
  H2       1.0000 0.13490  0.29770  0.87480  Biso   1.000  H
  C7       1.0000 0.96520  0.40115  0.95694  Biso   1.000  C
  C8       1.0000 0.96760  0.39649  0.03088  Biso   1.000  C
  C9       1.0000 0.33370  0.23361  0.82946  Biso   1.000  C
  H3       1.0000 0.39600  0.17460  0.85820  Biso   1.000  H
  H4       1.0000 0.24740  0.29390  0.81340  Biso   1.000  H
  C10      1.0000 0.95460  0.37671  0.91434  Biso   1.000  C
  C11      1.0000 0.97920  0.45069  0.95952  Biso   1.000  C
  C12      1.0000 0.98110  0.44489  0.03516  Biso   1.000  C
  H5       1.0000 0.96250  0.37810  0.05580  Biso   1.000  H
  C13      1.0000 0.40380  0.23188  0.78931  Biso   1.000  C
  H6       1.0000 0.87850  0.36380  0.91130  Biso   1.000  H
  H7       1.0000 0.00970  0.35110  0.91260  Biso   1.000  H
  H8       1.0000 0.96880  0.39940  0.89170  Biso   1.000  H
  C14      1.0000 0.98980  0.47362  0.99883  Biso   1.000  C
  H9       1.0000 0.98160  0.46870  0.93430  Biso   1.000  H
  H10      1.0000 0.98450  0.45860  0.06250  Biso   1.000  H
  C15      1.0000 0.52480  0.22768  0.78924  Biso   1.000  C
  C16      1.0000 0.59530  0.23016  0.82922  Biso   1.000  C
  C17      1.0000 0.58510  0.26867  0.85751  Biso   1.000  C
  C18      1.0000 0.67710  0.19585  0.83778  Biso   1.000  C
  H11      1.0000 0.52830  0.29160  0.85280  Biso   1.000  H
  C19      1.0000 0.65700  0.27353  0.89224  Biso   1.000  C
  C20      1.0000 0.74620  0.19923  0.87361  Biso   1.000  C
  H12      1.0000 0.68590  0.17000  0.81910  Biso   1.000  H
  C21      1.0000 0.73820  0.23795  0.90083  Biso   1.000  C
  H13      1.0000 0.65170  0.30040  0.91000  Biso   1.000  H
  H14      1.0000 0.79890  0.17500  0.87950  Biso   1.000  H
  C22      1.0000 0.81580  0.24202  0.93916  Biso   1.000  C
  Co2      1.0000 0.03806  0.79975  0.50522  Biso   1.000  Co
  O5       1.0000 0.90040  0.79818  0.46223  Biso   1.000  O
  C23      1.0000 0.88480  0.76078  0.44045  Biso   1.000  C
  O6       1.0000 0.93000  0.72051  0.44811  Biso   1.000  O
  C24      1.0000 0.80680  0.76301  0.40205  Biso   1.000  C
  O7       1.0000 0.17350  0.71712  0.45629  Biso   1.000  O
  O8       1.0000 0.13570  0.70436  0.54853  Biso   1.000  O
  C25      1.0000 0.72930  0.79996  0.39677  Biso   1.000  C
  C26      1.0000 0.81390  0.72766  0.37113  Biso   1.000  C
  N2       1.0000 0.03870  0.62610  0.49283  Biso   1.000  N
  C27      1.0000 0.65800  0.80100  0.36095  Biso   1.000  C
  H15      1.0000 0.72470  0.82420  0.41730  Biso   1.000  H
  C28      1.0000 0.74540  0.72959  0.33458  Biso   1.000  C
  H16      1.0000 0.86510  0.70230  0.37480  Biso   1.000  H
  C29      1.0000 0.03480  0.59885  0.45694  Biso   1.000  C
  C30      1.0000 0.03240  0.60351  0.53088  Biso   1.000  C
  C31      1.0000 0.66630  0.76639  0.32946  Biso   1.000  C
  H17      1.0000 0.60400  0.82540  0.35820  Biso   1.000  H
  H18      1.0000 0.75260  0.70610  0.31340  Biso   1.000  H
  C32      1.0000 0.04540  0.62329  0.41434  Biso   1.000  C
  C33      1.0000 0.02080  0.54931  0.45952  Biso   1.000  C
  C34      1.0000 0.01890  0.55511  0.53516  Biso   1.000  C
  H19      1.0000 0.03750  0.62190  0.55580  Biso   1.000  H
  C35      1.0000 0.59620  0.76812  0.28931  Biso   1.000  C
  H20      1.0000 0.12150  0.63620  0.41130  Biso   1.000  H
  H21      1.0000 0.99030  0.64890  0.41260  Biso   1.000  H
  H22      1.0000 0.03120  0.60060  0.39170  Biso   1.000  H
  C36      1.0000 0.01020  0.52638  0.49883  Biso   1.000  C
  H23      1.0000 0.01840  0.53130  0.43430  Biso   1.000  H
  H24      1.0000 0.01550  0.54140  0.56250  Biso   1.000  H
  C37      1.0000 0.47520  0.77232  0.28924  Biso   1.000  C
  C38      1.0000 0.40470  0.76984  0.32922  Biso   1.000  C
  C39      1.0000 0.41490  0.73133  0.35751  Biso   1.000  C
  C40      1.0000 0.32290  0.80415  0.33778  Biso   1.000  C
  H25      1.0000 0.47170  0.70840  0.35280  Biso   1.000  H
  C41      1.0000 0.34300  0.72647  0.39224  Biso   1.000  C
  C42      1.0000 0.25380  0.80077  0.37361  Biso   1.000  C
  H26      1.0000 0.31410  0.83000  0.31910  Biso   1.000  H
  C43      1.0000 0.26180  0.76205  0.40083  Biso   1.000  C
  H27      1.0000 0.34830  0.69960  0.41000  Biso   1.000  H
  H28      1.0000 0.20110  0.82500  0.37950  Biso   1.000  H
  C44      1.0000 0.18420  0.75798  0.43916  Biso   1.000  C
  Co3      1.0000 0.03806  0.70025  0.49478  Biso   1.000  Co
  O9       1.0000 0.90040  0.70182  0.53777  Biso   1.000  O
  C45      1.0000 0.88480  0.73922  0.55955  Biso   1.000  C
  O10      1.0000 0.93000  0.77949  0.55189  Biso   1.000  O
  C46      1.0000 0.80680  0.73699  0.59795  Biso   1.000  C
  O11      1.0000 0.17350  0.78288  0.54371  Biso   1.000  O
  O12      1.0000 0.13570  0.79564  0.45147  Biso   1.000  O
  C47      1.0000 0.72930  0.70004  0.60323  Biso   1.000  C
  C48      1.0000 0.81390  0.77234  0.62887  Biso   1.000  C
  N3       1.0000 0.03870  0.87390  0.50717  Biso   1.000  N
  C49      1.0000 0.65800  0.69900  0.63905  Biso   1.000  C
  H29      1.0000 0.72470  0.67580  0.58270  Biso   1.000  H
  C50      1.0000 0.74540  0.77041  0.66542  Biso   1.000  C
  H30      1.0000 0.86510  0.79770  0.62520  Biso   1.000  H
  C51      1.0000 0.03480  0.90115  0.54306  Biso   1.000  C
  C52      1.0000 0.03240  0.89649  0.46912  Biso   1.000  C
  C53      1.0000 0.66630  0.73361  0.67054  Biso   1.000  C
  H31      1.0000 0.60400  0.67460  0.64180  Biso   1.000  H
  H32      1.0000 0.75260  0.79390  0.68660  Biso   1.000  H
  C54      1.0000 0.04540  0.87671  0.58566  Biso   1.000  C
  C55      1.0000 0.02080  0.95069  0.54048  Biso   1.000  C
  C56      1.0000 0.01890  0.94489  0.46484  Biso   1.000  C
  H33      1.0000 0.03750  0.87810  0.44420  Biso   1.000  H
  C57      1.0000 0.59620  0.73188  0.71069  Biso   1.000  C
  H34      1.0000 0.12150  0.86380  0.58870  Biso   1.000  H
  H35      1.0000 0.99030  0.85110  0.58740  Biso   1.000  H
  H36      1.0000 0.03120  0.89940  0.60830  Biso   1.000  H
  C58      1.0000 0.01020  0.97362  0.50117  Biso   1.000  C
  H37      1.0000 0.01840  0.96870  0.56570  Biso   1.000  H
  H38      1.0000 0.01550  0.95860  0.43750  Biso   1.000  H
  C59      1.0000 0.47520  0.72768  0.71076  Biso   1.000  C
  C60      1.0000 0.40470  0.73016  0.67078  Biso   1.000  C
  C61      1.0000 0.41490  0.76867  0.64249  Biso   1.000  C
  C62      1.0000 0.32290  0.69585  0.66222  Biso   1.000  C
  H39      1.0000 0.47170  0.79160  0.64720  Biso   1.000  H
  C63      1.0000 0.34300  0.77353  0.60776  Biso   1.000  C
  C64      1.0000 0.25380  0.69923  0.62639  Biso   1.000  C
  H40      1.0000 0.31410  0.67000  0.68090  Biso   1.000  H
  C65      1.0000 0.26180  0.73795  0.59917  Biso   1.000  C
  H41      1.0000 0.34830  0.80040  0.59000  Biso   1.000  H
  H42      1.0000 0.20110  0.67500  0.62050  Biso   1.000  H
  C66      1.0000 0.18420  0.74202  0.56084  Biso   1.000  C
  Co4      1.0000 0.96194  0.29975  0.99478  Biso   1.000  Co
  O13      1.0000 0.09960  0.29818  0.03777  Biso   1.000  O
  C67      1.0000 0.11520  0.26078  0.05955  Biso   1.000  C
  O14      1.0000 0.07000  0.22051  0.05189  Biso   1.000  O
  C68      1.0000 0.19320  0.26301  0.09795  Biso   1.000  C
  O15      1.0000 0.82650  0.21712  0.04371  Biso   1.000  O
  O16      1.0000 0.86430  0.20436  0.95147  Biso   1.000  O
  C69      1.0000 0.27070  0.29996  0.10323  Biso   1.000  C
  C70      1.0000 0.18610  0.22766  0.12887  Biso   1.000  C
  N4       1.0000 0.96130  0.12610  0.00717  Biso   1.000  N
  C71      1.0000 0.34200  0.30100  0.13905  Biso   1.000  C
  H43      1.0000 0.27530  0.32420  0.08270  Biso   1.000  H
  C72      1.0000 0.25460  0.22959  0.16542  Biso   1.000  C
  H44      1.0000 0.13490  0.20230  0.12520  Biso   1.000  H
  C73      1.0000 0.96520  0.09885  0.04306  Biso   1.000  C
  C74      1.0000 0.96760  0.10351  0.96912  Biso   1.000  C
  C75      1.0000 0.33370  0.26639  0.17054  Biso   1.000  C
  H45      1.0000 0.39600  0.32540  0.14180  Biso   1.000  H
  H46      1.0000 0.24740  0.20610  0.18660  Biso   1.000  H
  C76      1.0000 0.95460  0.12329  0.08566  Biso   1.000  C
  C77      1.0000 0.97920  0.04931  0.04048  Biso   1.000  C
  C78      1.0000 0.98110  0.05511  0.96484  Biso   1.000  C
  H47      1.0000 0.96250  0.12190  0.94420  Biso   1.000  H
  C79      1.0000 0.40380  0.26812  0.21069  Biso   1.000  C
  H48      1.0000 0.87850  0.13620  0.08870  Biso   1.000  H
  H49      1.0000 0.00970  0.14890  0.08740  Biso   1.000  H
  H50      1.0000 0.96880  0.10060  0.10830  Biso   1.000  H
  C80      1.0000 0.98980  0.02638  0.00117  Biso   1.000  C
  H51      1.0000 0.98160  0.03130  0.06570  Biso   1.000  H
  H52      1.0000 0.98450  0.04140  0.93750  Biso   1.000  H
  C81      1.0000 0.52480  0.27232  0.21076  Biso   1.000  C
  C82      1.0000 0.59530  0.26984  0.17078  Biso   1.000  C
  C83      1.0000 0.58510  0.23133  0.14249  Biso   1.000  C
  C84      1.0000 0.67710  0.30415  0.16222  Biso   1.000  C
  H53      1.0000 0.52830  0.20840  0.14720  Biso   1.000  H
  C85      1.0000 0.65700  0.22647  0.10776  Biso   1.000  C
  C86      1.0000 0.74620  0.30077  0.12639  Biso   1.000  C
  H54      1.0000 0.68590  0.33000  0.18090  Biso   1.000  H
  C87      1.0000 0.73820  0.26205  0.09917  Biso   1.000  C
  H55      1.0000 0.65170  0.19960  0.09000  Biso   1.000  H
  H56      1.0000 0.79890  0.32500  0.12050  Biso   1.000  H
  C88      1.0000 0.81580  0.25798  0.06084  Biso   1.000  C
  Co5      1.0000 0.03806  0.79975  0.99478  Biso   1.000  Co
  O17      1.0000 0.90040  0.79818  0.03777  Biso   1.000  O
  C89      1.0000 0.88480  0.76078  0.05955  Biso   1.000  C
  O18      1.0000 0.93000  0.72051  0.05189  Biso   1.000  O
  C90      1.0000 0.80680  0.76301  0.09795  Biso   1.000  C
  O19      1.0000 0.17350  0.71712  0.04371  Biso   1.000  O
  O20      1.0000 0.13570  0.70436  0.95147  Biso   1.000  O
  C91      1.0000 0.72930  0.79996  0.10323  Biso   1.000  C
  C92      1.0000 0.81390  0.72766  0.12887  Biso   1.000  C
  N5       1.0000 0.03870  0.62610  0.00717  Biso   1.000  N
  C93      1.0000 0.65800  0.80100  0.13905  Biso   1.000  C
  H57      1.0000 0.72470  0.82420  0.08270  Biso   1.000  H
  C94      1.0000 0.74540  0.72959  0.16542  Biso   1.000  C
  H58      1.0000 0.86510  0.70230  0.12520  Biso   1.000  H
  C95      1.0000 0.03480  0.59885  0.04306  Biso   1.000  C
  C96      1.0000 0.03240  0.60351  0.96912  Biso   1.000  C
  C97      1.0000 0.66630  0.76639  0.17054  Biso   1.000  C
  H59      1.0000 0.60400  0.82540  0.14180  Biso   1.000  H
  H60      1.0000 0.75260  0.70610  0.18660  Biso   1.000  H
  C98      1.0000 0.04540  0.62329  0.08566  Biso   1.000  C
  C99      1.0000 0.02080  0.54931  0.04048  Biso   1.000  C
  C100     1.0000 0.01890  0.55511  0.96484  Biso   1.000  C
  H61      1.0000 0.03750  0.62190  0.94420  Biso   1.000  H
  C101     1.0000 0.59620  0.76812  0.21069  Biso   1.000  C
  H62      1.0000 0.12150  0.63620  0.08870  Biso   1.000  H
  H63      1.0000 0.99030  0.64890  0.08740  Biso   1.000  H
  H64      1.0000 0.03120  0.60060  0.10830  Biso   1.000  H
  C102     1.0000 0.01020  0.52638  0.00117  Biso   1.000  C
  H65      1.0000 0.01840  0.53130  0.06570  Biso   1.000  H
  H66      1.0000 0.01550  0.54140  0.93750  Biso   1.000  H
  C103     1.0000 0.47520  0.77232  0.21076  Biso   1.000  C
  C104     1.0000 0.40470  0.76984  0.17078  Biso   1.000  C
  C105     1.0000 0.41490  0.73133  0.14249  Biso   1.000  C
  C106     1.0000 0.32290  0.80415  0.16222  Biso   1.000  C
  H67      1.0000 0.47170  0.70840  0.14720  Biso   1.000  H
  C107     1.0000 0.34300  0.72647  0.10776  Biso   1.000  C
  C108     1.0000 0.25380  0.80077  0.12639  Biso   1.000  C
  H68      1.0000 0.31410  0.83000  0.18090  Biso   1.000  H
  C109     1.0000 0.26180  0.76205  0.09917  Biso   1.000  C
  H69      1.0000 0.34830  0.69960  0.09000  Biso   1.000  H
  H70      1.0000 0.20110  0.82500  0.12050  Biso   1.000  H
  C110     1.0000 0.18420  0.75798  0.06084  Biso   1.000  C
  Co6      1.0000 0.96194  0.20025  0.49478  Biso   1.000  Co
  O21      1.0000 0.09960  0.20182  0.53777  Biso   1.000  O
  C111     1.0000 0.11520  0.23922  0.55955  Biso   1.000  C
  O22      1.0000 0.07000  0.27949  0.55189  Biso   1.000  O
  C112     1.0000 0.19320  0.23699  0.59795  Biso   1.000  C
  O23      1.0000 0.82650  0.28288  0.54371  Biso   1.000  O
  O24      1.0000 0.86430  0.29564  0.45147  Biso   1.000  O
  C113     1.0000 0.27070  0.20004  0.60323  Biso   1.000  C
  C114     1.0000 0.18610  0.27234  0.62887  Biso   1.000  C
  N6       1.0000 0.96130  0.37390  0.50717  Biso   1.000  N
  C115     1.0000 0.34200  0.19900  0.63905  Biso   1.000  C
  H71      1.0000 0.27530  0.17580  0.58270  Biso   1.000  H
  C116     1.0000 0.25460  0.27041  0.66542  Biso   1.000  C
  H72      1.0000 0.13490  0.29770  0.62520  Biso   1.000  H
  C117     1.0000 0.96520  0.40115  0.54306  Biso   1.000  C
  C118     1.0000 0.96760  0.39649  0.46912  Biso   1.000  C
  C119     1.0000 0.33370  0.23361  0.67054  Biso   1.000  C
  H73      1.0000 0.39600  0.17460  0.64180  Biso   1.000  H
  H74      1.0000 0.24740  0.29390  0.68660  Biso   1.000  H
  C120     1.0000 0.95460  0.37671  0.58566  Biso   1.000  C
  C121     1.0000 0.97920  0.45069  0.54048  Biso   1.000  C
  C122     1.0000 0.98110  0.44489  0.46484  Biso   1.000  C
  H75      1.0000 0.96250  0.37810  0.44420  Biso   1.000  H
  C123     1.0000 0.40380  0.23188  0.71069  Biso   1.000  C
  H76      1.0000 0.87850  0.36380  0.58870  Biso   1.000  H
  H77      1.0000 0.00970  0.35110  0.58740  Biso   1.000  H
  H78      1.0000 0.96880  0.39940  0.60830  Biso   1.000  H
  C124     1.0000 0.98980  0.47362  0.50117  Biso   1.000  C
  H79      1.0000 0.98160  0.46870  0.56570  Biso   1.000  H
  H80      1.0000 0.98450  0.45860  0.43750  Biso   1.000  H
  C125     1.0000 0.52480  0.22768  0.71076  Biso   1.000  C
  C126     1.0000 0.59530  0.23016  0.67078  Biso   1.000  C
  C127     1.0000 0.58510  0.26867  0.64249  Biso   1.000  C
  C128     1.0000 0.67710  0.19585  0.66222  Biso   1.000  C
  H81      1.0000 0.52830  0.29160  0.64720  Biso   1.000  H
  C129     1.0000 0.65700  0.27353  0.60776  Biso   1.000  C
  C130     1.0000 0.74620  0.19923  0.62639  Biso   1.000  C
  H82      1.0000 0.68590  0.17000  0.68090  Biso   1.000  H
  C131     1.0000 0.73820  0.23795  0.59917  Biso   1.000  C
  H83      1.0000 0.65170  0.30040  0.59000  Biso   1.000  H
  H84      1.0000 0.79890  0.17500  0.62050  Biso   1.000  H
  C132     1.0000 0.81580  0.24202  0.56084  Biso   1.000  C
  Co7      1.0000 0.96194  0.29975  0.50522  Biso   1.000  Co
  O25      1.0000 0.09960  0.29818  0.46223  Biso   1.000  O
  C133     1.0000 0.11520  0.26078  0.44045  Biso   1.000  C
  O26      1.0000 0.07000  0.22051  0.44811  Biso   1.000  O
  C134     1.0000 0.19320  0.26301  0.40205  Biso   1.000  C
  O27      1.0000 0.82650  0.21712  0.45629  Biso   1.000  O
  O28      1.0000 0.86430  0.20436  0.54853  Biso   1.000  O
  C135     1.0000 0.27070  0.29996  0.39677  Biso   1.000  C
  C136     1.0000 0.18610  0.22766  0.37113  Biso   1.000  C
  N7       1.0000 0.96130  0.12610  0.49283  Biso   1.000  N
  C137     1.0000 0.34200  0.30100  0.36095  Biso   1.000  C
  H85      1.0000 0.27530  0.32420  0.41730  Biso   1.000  H
  C138     1.0000 0.25460  0.22959  0.33458  Biso   1.000  C
  H86      1.0000 0.13490  0.20230  0.37480  Biso   1.000  H
  C139     1.0000 0.96520  0.09885  0.45694  Biso   1.000  C
  C140     1.0000 0.96760  0.10351  0.53088  Biso   1.000  C
  C141     1.0000 0.33370  0.26639  0.32946  Biso   1.000  C
  H87      1.0000 0.39600  0.32540  0.35820  Biso   1.000  H
  H88      1.0000 0.24740  0.20610  0.31340  Biso   1.000  H
  C142     1.0000 0.95460  0.12329  0.41434  Biso   1.000  C
  C143     1.0000 0.97920  0.04931  0.45952  Biso   1.000  C
  C144     1.0000 0.98110  0.05511  0.53516  Biso   1.000  C
  H89      1.0000 0.96250  0.12190  0.55580  Biso   1.000  H
  C145     1.0000 0.40380  0.26812  0.28931  Biso   1.000  C
  H90      1.0000 0.87850  0.13620  0.41130  Biso   1.000  H
  H91      1.0000 0.00970  0.14890  0.41260  Biso   1.000  H
  H92      1.0000 0.96880  0.10060  0.39170  Biso   1.000  H
  C146     1.0000 0.98980  0.02638  0.49883  Biso   1.000  C
  H93      1.0000 0.98160  0.03130  0.43430  Biso   1.000  H
  H94      1.0000 0.98450  0.04140  0.56250  Biso   1.000  H
  C147     1.0000 0.52480  0.27232  0.28924  Biso   1.000  C
  C148     1.0000 0.59530  0.26984  0.32922  Biso   1.000  C
  C149     1.0000 0.58510  0.23133  0.35751  Biso   1.000  C
  C150     1.0000 0.67710  0.30415  0.33778  Biso   1.000  C
  H95      1.0000 0.52830  0.20840  0.35280  Biso   1.000  H
  C151     1.0000 0.65700  0.22647  0.39224  Biso   1.000  C
  C152     1.0000 0.74620  0.30077  0.37361  Biso   1.000  C
  H96      1.0000 0.68590  0.33000  0.31910  Biso   1.000  H
  C153     1.0000 0.73820  0.26205  0.40083  Biso   1.000  C
  H97      1.0000 0.65170  0.19960  0.41000  Biso   1.000  H
  H98      1.0000 0.79890  0.32500  0.37950  Biso   1.000  H
  C154     1.0000 0.81580  0.25798  0.43916  Biso   1.000  C
  Co8      1.0000 0.03806  0.70025  0.00522  Biso   1.000  Co
  O29      1.0000 0.90040  0.70182  0.96223  Biso   1.000  O
  C155     1.0000 0.88480  0.73922  0.94045  Biso   1.000  C
  O30      1.0000 0.93000  0.77949  0.94811  Biso   1.000  O
  C156     1.0000 0.80680  0.73699  0.90205  Biso   1.000  C
  O31      1.0000 0.17350  0.78288  0.95629  Biso   1.000  O
  O32      1.0000 0.13570  0.79564  0.04853  Biso   1.000  O
  C157     1.0000 0.72930  0.70004  0.89677  Biso   1.000  C
  C158     1.0000 0.81390  0.77234  0.87113  Biso   1.000  C
  N8       1.0000 0.03870  0.87390  0.99283  Biso   1.000  N
  C159     1.0000 0.65800  0.69900  0.86095  Biso   1.000  C
  H99      1.0000 0.72470  0.67580  0.91730  Biso   1.000  H
  C160     1.0000 0.74540  0.77041  0.83458  Biso   1.000  C
  H100     1.0000 0.86510  0.79770  0.87480  Biso   1.000  H
  C161     1.0000 0.03480  0.90115  0.95694  Biso   1.000  C
  C162     1.0000 0.03240  0.89649  0.03088  Biso   1.000  C
  C163     1.0000 0.66630  0.73361  0.82946  Biso   1.000  C
  H101     1.0000 0.60400  0.67460  0.85820  Biso   1.000  H
  H102     1.0000 0.75260  0.79390  0.81340  Biso   1.000  H
  C164     1.0000 0.04540  0.87671  0.91434  Biso   1.000  C
  C165     1.0000 0.02080  0.95069  0.95952  Biso   1.000  C
  C166     1.0000 0.01890  0.94489  0.03516  Biso   1.000  C
  H103     1.0000 0.03750  0.87810  0.05580  Biso   1.000  H
  C167     1.0000 0.59620  0.73188  0.78931  Biso   1.000  C
  H104     1.0000 0.12150  0.86380  0.91130  Biso   1.000  H
  H105     1.0000 0.99030  0.85110  0.91260  Biso   1.000  H
  H106     1.0000 0.03120  0.89940  0.89170  Biso   1.000  H
  C168     1.0000 0.01020  0.97362  0.99883  Biso   1.000  C
  H107     1.0000 0.01840  0.96870  0.93430  Biso   1.000  H
  H108     1.0000 0.01550  0.95860  0.06250  Biso   1.000  H
  C169     1.0000 0.47520  0.72768  0.78924  Biso   1.000  C
  C170     1.0000 0.40470  0.73016  0.82922  Biso   1.000  C
  C171     1.0000 0.41490  0.76867  0.85751  Biso   1.000  C
  C172     1.0000 0.32290  0.69585  0.83778  Biso   1.000  C
  H109     1.0000 0.47170  0.79160  0.85280  Biso   1.000  H
  C173     1.0000 0.34300  0.77353  0.89224  Biso   1.000  C
  C174     1.0000 0.25380  0.69923  0.87361  Biso   1.000  C
  H110     1.0000 0.31410  0.67000  0.81910  Biso   1.000  H
  C175     1.0000 0.26180  0.73795  0.90083  Biso   1.000  C
  H111     1.0000 0.34830  0.80040  0.91000  Biso   1.000  H
  H112     1.0000 0.20110  0.67500  0.87950  Biso   1.000  H
  C176     1.0000 0.18420  0.74202  0.93916  Biso   1.000  C
  C177     1.0000 0.34710  0.23395  0.75000  Biso   1.000  C
  C178     1.0000 0.58130  0.22540  0.75000  Biso   1.000  C
  H113     1.0000 0.26750  0.23690  0.75000  Biso   1.000  H
  H114     1.0000 0.66090  0.22220  0.75000  Biso   1.000  H
  C179     1.0000 0.65290  0.76605  0.25000  Biso   1.000  C
  C180     1.0000 0.41870  0.77460  0.25000  Biso   1.000  C
  H115     1.0000 0.73250  0.76310  0.25000  Biso   1.000  H
  H116     1.0000 0.33910  0.77780  0.25000  Biso   1.000  H
  C181     1.0000 0.65290  0.73395  0.75000  Biso   1.000  C
  C182     1.0000 0.41870  0.72540  0.75000  Biso   1.000  C
  H117     1.0000 0.73250  0.73690  0.75000  Biso   1.000  H
  H118     1.0000 0.33910  0.72220  0.75000  Biso   1.000  H
  C183     1.0000 0.34710  0.26605  0.25000  Biso   1.000  C
  C184     1.0000 0.58130  0.27460  0.25000  Biso   1.000  C
  H119     1.0000 0.26750  0.26310  0.25000  Biso   1.000  H
  H120     1.0000 0.66090  0.27780  0.25000  Biso   1.000  H
  Co9      1.0000 0.48913  0.04922  0.00455  Biso   1.000  Co
  N9       1.0000 0.47150  0.12345  0.00678  Biso   1.000  N
  O33      1.0000 0.60950  0.05314  0.95623  Biso   1.000  O
  O34      1.0000 0.62160  0.97382  0.94959  Biso   1.000  O
  O35      1.0000 0.37060  0.03572  0.95860  Biso   1.000  O
  C185     1.0000 0.47380  0.22370  0.00170  Biso   1.000  C
  C186     1.0000 0.37290  0.19800  0.00997  Biso   1.000  C
  H121     1.0000 0.30430  0.21450  0.01420  Biso   1.000  H
  O36      1.0000 0.38380  0.95587  0.95107  Biso   1.000  O
  C187     1.0000 0.94280  0.02578  0.78925  Biso   1.000  C
  C188     1.0000 0.05910  0.01186  0.78933  Biso   1.000  C
  C189     1.0000 0.12810  0.00688  0.82944  Biso   1.000  C
  C190     1.0000 0.64730  0.01623  0.93900  Biso   1.000  C
  C191     1.0000 0.72990  0.02086  0.90178  Biso   1.000  C
  C192     1.0000 0.87340  0.02642  0.82961  Biso   1.000  C
  C193     1.0000 0.37390  0.14854  0.01186  Biso   1.000  C
  C194     1.0000 0.57420  0.19675  0.99664  Biso   1.000  C
  H122     1.0000 0.64390  0.21190  0.99110  Biso   1.000  H
  C195     1.0000 0.34670  0.99649  0.94060  Biso   1.000  C
  C196     1.0000 0.26820  0.99972  0.90220  Biso   1.000  C
  C197     1.0000 0.79300  0.98169  0.88865  Biso   1.000  C
  H123     1.0000 0.78680  0.95300  0.90370  Biso   1.000  H
  C198     1.0000 0.74050  0.06321  0.87911  Biso   1.000  C
  H124     1.0000 0.70040  0.09030  0.88820  Biso   1.000  H
  C199     1.0000 0.86520  0.98439  0.85348  Biso   1.000  C
  H125     1.0000 0.90870  0.95780  0.84570  Biso   1.000  H
  C200     1.0000 0.56900  0.14788  0.99987  Biso   1.000  C
  H126     1.0000 0.63700  0.13060  0.99710  Biso   1.000  H
  C201     1.0000 0.13720  0.04459  0.85811  Biso   1.000  C
  H127     1.0000 0.09480  0.07240  0.85350  Biso   1.000  H
  C202     1.0000 0.25800  0.96158  0.87404  Biso   1.000  C
  H128     1.0000 0.29720  0.93310  0.87960  Biso   1.000  H
  C203     1.0000 0.26360  0.12178  0.01948  Biso   1.000  C
  H129     1.0000 0.25830  0.09550  0.99960  Biso   1.000  H
  H130     1.0000 0.19970  0.14310  0.01520  Biso   1.000  H
  H131     1.0000 0.26250  0.10970  0.04850  Biso   1.000  H
  C204     1.0000 0.20820  0.04152  0.89338  Biso   1.000  C
  H132     1.0000 0.21610  0.06790  0.91160  Biso   1.000  H
  C205     1.0000 0.81010  0.06589  0.84309  Biso   1.000  C
  H133     1.0000 0.81460  0.09450  0.82770  Biso   1.000  H
  C206     1.0000 0.19030  0.96527  0.83760  Biso   1.000  C
  H134     1.0000 0.18630  0.93970  0.81840  Biso   1.000  H
  Co10     1.0000 0.51087  0.95078  0.50455  Biso   1.000  Co
  N10      1.0000 0.52850  0.87655  0.50678  Biso   1.000  N
  O37      1.0000 0.39050  0.94686  0.45623  Biso   1.000  O
  O38      1.0000 0.37840  0.02618  0.44959  Biso   1.000  O
  O39      1.0000 0.62940  0.96428  0.45860  Biso   1.000  O
  C207     1.0000 0.52620  0.77630  0.50170  Biso   1.000  C
  C208     1.0000 0.62710  0.80200  0.50997  Biso   1.000  C
  H135     1.0000 0.69570  0.78550  0.51420  Biso   1.000  H
  O40      1.0000 0.61620  0.04413  0.45107  Biso   1.000  O
  C209     1.0000 0.05720  0.97422  0.28925  Biso   1.000  C
  C210     1.0000 0.94090  0.98814  0.28933  Biso   1.000  C
  C211     1.0000 0.87190  0.99312  0.32944  Biso   1.000  C
  C212     1.0000 0.35270  0.98377  0.43900  Biso   1.000  C
  C213     1.0000 0.27010  0.97914  0.40178  Biso   1.000  C
  C214     1.0000 0.12660  0.97358  0.32961  Biso   1.000  C
  C215     1.0000 0.62610  0.85146  0.51186  Biso   1.000  C
  C216     1.0000 0.42580  0.80325  0.49664  Biso   1.000  C
  H136     1.0000 0.35610  0.78810  0.49110  Biso   1.000  H
  C217     1.0000 0.65330  0.00351  0.44060  Biso   1.000  C
  C218     1.0000 0.73180  0.00028  0.40220  Biso   1.000  C
  C219     1.0000 0.20700  0.01831  0.38865  Biso   1.000  C
  H137     1.0000 0.21320  0.04700  0.40370  Biso   1.000  H
  C220     1.0000 0.25950  0.93679  0.37911  Biso   1.000  C
  H138     1.0000 0.29960  0.90970  0.38820  Biso   1.000  H
  C221     1.0000 0.13480  0.01561  0.35348  Biso   1.000  C
  H139     1.0000 0.09130  0.04220  0.34570  Biso   1.000  H
  C222     1.0000 0.43100  0.85212  0.49987  Biso   1.000  C
  H140     1.0000 0.36300  0.86940  0.49710  Biso   1.000  H
  C223     1.0000 0.86280  0.95541  0.35811  Biso   1.000  C
  H141     1.0000 0.90520  0.92760  0.35350  Biso   1.000  H
  C224     1.0000 0.74200  0.03842  0.37404  Biso   1.000  C
  H142     1.0000 0.70280  0.06690  0.37960  Biso   1.000  H
  C225     1.0000 0.73640  0.87822  0.51948  Biso   1.000  C
  H143     1.0000 0.74170  0.90450  0.49960  Biso   1.000  H
  H144     1.0000 0.80030  0.85690  0.51520  Biso   1.000  H
  H145     1.0000 0.73750  0.89030  0.54850  Biso   1.000  H
  C226     1.0000 0.79180  0.95848  0.39338  Biso   1.000  C
  H146     1.0000 0.78390  0.93210  0.41160  Biso   1.000  H
  C227     1.0000 0.18990  0.93411  0.34309  Biso   1.000  C
  H147     1.0000 0.18540  0.90550  0.32770  Biso   1.000  H
  C228     1.0000 0.80970  0.03473  0.33760  Biso   1.000  C
  H148     1.0000 0.81370  0.06030  0.31840  Biso   1.000  H
  Co11     1.0000 0.51087  0.54922  0.49545  Biso   1.000  Co
  N11      1.0000 0.52850  0.62345  0.49322  Biso   1.000  N
  O41      1.0000 0.39050  0.55314  0.54377  Biso   1.000  O
  O42      1.0000 0.37840  0.47382  0.55041  Biso   1.000  O
  O43      1.0000 0.62940  0.53572  0.54140  Biso   1.000  O
  C229     1.0000 0.52620  0.72370  0.49830  Biso   1.000  C
  C230     1.0000 0.62710  0.69800  0.49003  Biso   1.000  C
  H149     1.0000 0.69570  0.71450  0.48580  Biso   1.000  H
  O44      1.0000 0.61620  0.45587  0.54893  Biso   1.000  O
  C231     1.0000 0.05720  0.52578  0.71075  Biso   1.000  C
  C232     1.0000 0.94090  0.51186  0.71067  Biso   1.000  C
  C233     1.0000 0.87190  0.50688  0.67056  Biso   1.000  C
  C234     1.0000 0.35270  0.51623  0.56100  Biso   1.000  C
  C235     1.0000 0.27010  0.52086  0.59822  Biso   1.000  C
  C236     1.0000 0.12660  0.52642  0.67039  Biso   1.000  C
  C237     1.0000 0.62610  0.64854  0.48814  Biso   1.000  C
  C238     1.0000 0.42580  0.69675  0.50336  Biso   1.000  C
  H150     1.0000 0.35610  0.71190  0.50890  Biso   1.000  H
  C239     1.0000 0.65330  0.49649  0.55940  Biso   1.000  C
  C240     1.0000 0.73180  0.49972  0.59780  Biso   1.000  C
  C241     1.0000 0.20700  0.48169  0.61135  Biso   1.000  C
  H151     1.0000 0.21320  0.45300  0.59630  Biso   1.000  H
  C242     1.0000 0.25950  0.56321  0.62089  Biso   1.000  C
  H152     1.0000 0.29960  0.59030  0.61180  Biso   1.000  H
  C243     1.0000 0.13480  0.48439  0.64652  Biso   1.000  C
  H153     1.0000 0.09130  0.45780  0.65430  Biso   1.000  H
  C244     1.0000 0.43100  0.64788  0.50013  Biso   1.000  C
  H154     1.0000 0.36300  0.63060  0.50290  Biso   1.000  H
  C245     1.0000 0.86280  0.54459  0.64189  Biso   1.000  C
  H155     1.0000 0.90520  0.57240  0.64650  Biso   1.000  H
  C246     1.0000 0.74200  0.46158  0.62596  Biso   1.000  C
  H156     1.0000 0.70280  0.43310  0.62040  Biso   1.000  H
  C247     1.0000 0.73640  0.62178  0.48052  Biso   1.000  C
  H157     1.0000 0.74170  0.59550  0.50040  Biso   1.000  H
  H158     1.0000 0.80030  0.64310  0.48480  Biso   1.000  H
  H159     1.0000 0.73750  0.60970  0.45150  Biso   1.000  H
  C248     1.0000 0.79180  0.54152  0.60662  Biso   1.000  C
  H160     1.0000 0.78390  0.56790  0.58840  Biso   1.000  H
  C249     1.0000 0.18990  0.56589  0.65691  Biso   1.000  C
  H161     1.0000 0.18540  0.59450  0.67230  Biso   1.000  H
  C250     1.0000 0.80970  0.46527  0.66240  Biso   1.000  C
  H162     1.0000 0.81370  0.43970  0.68160  Biso   1.000  H
  Co12     1.0000 0.48913  0.45078  0.99545  Biso   1.000  Co
  N12      1.0000 0.47150  0.37655  0.99322  Biso   1.000  N
  O45      1.0000 0.60950  0.44686  0.04377  Biso   1.000  O
  O46      1.0000 0.62160  0.52618  0.05041  Biso   1.000  O
  O47      1.0000 0.37060  0.46428  0.04140  Biso   1.000  O
  C251     1.0000 0.47380  0.27630  0.99830  Biso   1.000  C
  C252     1.0000 0.37290  0.30200  0.99003  Biso   1.000  C
  H163     1.0000 0.30430  0.28550  0.98580  Biso   1.000  H
  O48      1.0000 0.38380  0.54413  0.04893  Biso   1.000  O
  C253     1.0000 0.94280  0.47422  0.21075  Biso   1.000  C
  C254     1.0000 0.05910  0.48814  0.21067  Biso   1.000  C
  C255     1.0000 0.12810  0.49312  0.17056  Biso   1.000  C
  C256     1.0000 0.64730  0.48377  0.06100  Biso   1.000  C
  C257     1.0000 0.72990  0.47914  0.09822  Biso   1.000  C
  C258     1.0000 0.87340  0.47358  0.17039  Biso   1.000  C
  C259     1.0000 0.37390  0.35146  0.98814  Biso   1.000  C
  C260     1.0000 0.57420  0.30325  0.00336  Biso   1.000  C
  H164     1.0000 0.64390  0.28810  0.00890  Biso   1.000  H
  C261     1.0000 0.34670  0.50351  0.05940  Biso   1.000  C
  C262     1.0000 0.26820  0.50028  0.09780  Biso   1.000  C
  C263     1.0000 0.79300  0.51831  0.11135  Biso   1.000  C
  H165     1.0000 0.78680  0.54700  0.09630  Biso   1.000  H
  C264     1.0000 0.74050  0.43679  0.12089  Biso   1.000  C
  H166     1.0000 0.70040  0.40970  0.11180  Biso   1.000  H
  C265     1.0000 0.86520  0.51561  0.14652  Biso   1.000  C
  H167     1.0000 0.90870  0.54220  0.15430  Biso   1.000  H
  C266     1.0000 0.56900  0.35212  0.00013  Biso   1.000  C
  H168     1.0000 0.63700  0.36940  0.00290  Biso   1.000  H
  C267     1.0000 0.13720  0.45541  0.14189  Biso   1.000  C
  H169     1.0000 0.09480  0.42760  0.14650  Biso   1.000  H
  C268     1.0000 0.25800  0.53842  0.12596  Biso   1.000  C
  H170     1.0000 0.29720  0.56690  0.12040  Biso   1.000  H
  C269     1.0000 0.26360  0.37822  0.98052  Biso   1.000  C
  H171     1.0000 0.25830  0.40450  0.00040  Biso   1.000  H
  H172     1.0000 0.19970  0.35690  0.98480  Biso   1.000  H
  H173     1.0000 0.26250  0.39030  0.95150  Biso   1.000  H
  C270     1.0000 0.20820  0.45848  0.10662  Biso   1.000  C
  H174     1.0000 0.21610  0.43210  0.08840  Biso   1.000  H
  C271     1.0000 0.81010  0.43411  0.15691  Biso   1.000  C
  H175     1.0000 0.81460  0.40550  0.17230  Biso   1.000  H
  C272     1.0000 0.19030  0.53473  0.16240  Biso   1.000  C
  H176     1.0000 0.18630  0.56030  0.18160  Biso   1.000  H
  Co13     1.0000 0.51087  0.95078  0.99545  Biso   1.000  Co
  N13      1.0000 0.52850  0.87655  0.99322  Biso   1.000  N
  O49      1.0000 0.39050  0.94686  0.04377  Biso   1.000  O
  O50      1.0000 0.37840  0.02618  0.05041  Biso   1.000  O
  O51      1.0000 0.62940  0.96428  0.04140  Biso   1.000  O
  C273     1.0000 0.52620  0.77630  0.99830  Biso   1.000  C
  C274     1.0000 0.62710  0.80200  0.99003  Biso   1.000  C
  H177     1.0000 0.69570  0.78550  0.98580  Biso   1.000  H
  O52      1.0000 0.61620  0.04413  0.04893  Biso   1.000  O
  C275     1.0000 0.05720  0.97422  0.21075  Biso   1.000  C
  C276     1.0000 0.94090  0.98814  0.21067  Biso   1.000  C
  C277     1.0000 0.87190  0.99312  0.17056  Biso   1.000  C
  C278     1.0000 0.35270  0.98377  0.06100  Biso   1.000  C
  C279     1.0000 0.27010  0.97914  0.09822  Biso   1.000  C
  C280     1.0000 0.12660  0.97358  0.17039  Biso   1.000  C
  C281     1.0000 0.62610  0.85146  0.98814  Biso   1.000  C
  C282     1.0000 0.42580  0.80325  0.00336  Biso   1.000  C
  H178     1.0000 0.35610  0.78810  0.00890  Biso   1.000  H
  C283     1.0000 0.65330  0.00351  0.05940  Biso   1.000  C
  C284     1.0000 0.73180  0.00028  0.09780  Biso   1.000  C
  C285     1.0000 0.20700  0.01831  0.11135  Biso   1.000  C
  H179     1.0000 0.21320  0.04700  0.09630  Biso   1.000  H
  C286     1.0000 0.25950  0.93679  0.12089  Biso   1.000  C
  H180     1.0000 0.29960  0.90970  0.11180  Biso   1.000  H
  C287     1.0000 0.13480  0.01561  0.14652  Biso   1.000  C
  H181     1.0000 0.09130  0.04220  0.15430  Biso   1.000  H
  C288     1.0000 0.43100  0.85212  0.00013  Biso   1.000  C
  H182     1.0000 0.36300  0.86940  0.00290  Biso   1.000  H
  C289     1.0000 0.86280  0.95541  0.14189  Biso   1.000  C
  H183     1.0000 0.90520  0.92760  0.14650  Biso   1.000  H
  C290     1.0000 0.74200  0.03842  0.12596  Biso   1.000  C
  H184     1.0000 0.70280  0.06690  0.12040  Biso   1.000  H
  C291     1.0000 0.73640  0.87822  0.98052  Biso   1.000  C
  H185     1.0000 0.74170  0.90450  0.00040  Biso   1.000  H
  H186     1.0000 0.80030  0.85690  0.98480  Biso   1.000  H
  H187     1.0000 0.73750  0.89030  0.95150  Biso   1.000  H
  C292     1.0000 0.79180  0.95848  0.10662  Biso   1.000  C
  H188     1.0000 0.78390  0.93210  0.08840  Biso   1.000  H
  C293     1.0000 0.18990  0.93411  0.15691  Biso   1.000  C
  H189     1.0000 0.18540  0.90550  0.17230  Biso   1.000  H
  C294     1.0000 0.80970  0.03473  0.16240  Biso   1.000  C
  H190     1.0000 0.81370  0.06030  0.18160  Biso   1.000  H
  Co14     1.0000 0.48913  0.04922  0.49545  Biso   1.000  Co
  N14      1.0000 0.47150  0.12345  0.49322  Biso   1.000  N
  O53      1.0000 0.60950  0.05314  0.54377  Biso   1.000  O
  O54      1.0000 0.62160  0.97382  0.55041  Biso   1.000  O
  O55      1.0000 0.37060  0.03572  0.54140  Biso   1.000  O
  C295     1.0000 0.47380  0.22370  0.49830  Biso   1.000  C
  C296     1.0000 0.37290  0.19800  0.49003  Biso   1.000  C
  H191     1.0000 0.30430  0.21450  0.48580  Biso   1.000  H
  O56      1.0000 0.38380  0.95587  0.54893  Biso   1.000  O
  C297     1.0000 0.94280  0.02578  0.71075  Biso   1.000  C
  C298     1.0000 0.05910  0.01186  0.71067  Biso   1.000  C
  C299     1.0000 0.12810  0.00688  0.67056  Biso   1.000  C
  C300     1.0000 0.64730  0.01623  0.56100  Biso   1.000  C
  C301     1.0000 0.72990  0.02086  0.59822  Biso   1.000  C
  C302     1.0000 0.87340  0.02642  0.67039  Biso   1.000  C
  C303     1.0000 0.37390  0.14854  0.48814  Biso   1.000  C
  C304     1.0000 0.57420  0.19675  0.50336  Biso   1.000  C
  H192     1.0000 0.64390  0.21190  0.50890  Biso   1.000  H
  C305     1.0000 0.34670  0.99649  0.55940  Biso   1.000  C
  C306     1.0000 0.26820  0.99972  0.59780  Biso   1.000  C
  C307     1.0000 0.79300  0.98169  0.61135  Biso   1.000  C
  H193     1.0000 0.78680  0.95300  0.59630  Biso   1.000  H
  C308     1.0000 0.74050  0.06321  0.62089  Biso   1.000  C
  H194     1.0000 0.70040  0.09030  0.61180  Biso   1.000  H
  C309     1.0000 0.86520  0.98439  0.64652  Biso   1.000  C
  H195     1.0000 0.90870  0.95780  0.65430  Biso   1.000  H
  C310     1.0000 0.56900  0.14788  0.50013  Biso   1.000  C
  H196     1.0000 0.63700  0.13060  0.50290  Biso   1.000  H
  C311     1.0000 0.13720  0.04459  0.64189  Biso   1.000  C
  H197     1.0000 0.09480  0.07240  0.64650  Biso   1.000  H
  C312     1.0000 0.25800  0.96158  0.62596  Biso   1.000  C
  H198     1.0000 0.29720  0.93310  0.62040  Biso   1.000  H
  C313     1.0000 0.26360  0.12178  0.48052  Biso   1.000  C
  H199     1.0000 0.25830  0.09550  0.50040  Biso   1.000  H
  H200     1.0000 0.19970  0.14310  0.48480  Biso   1.000  H
  H201     1.0000 0.26250  0.10970  0.45150  Biso   1.000  H
  C314     1.0000 0.20820  0.04152  0.60662  Biso   1.000  C
  H202     1.0000 0.21610  0.06790  0.58840  Biso   1.000  H
  C315     1.0000 0.81010  0.06589  0.65691  Biso   1.000  C
  H203     1.0000 0.81460  0.09450  0.67230  Biso   1.000  H
  C316     1.0000 0.19030  0.96527  0.66240  Biso   1.000  C
  H204     1.0000 0.18630  0.93970  0.68160  Biso   1.000  H
  Co15     1.0000 0.48913  0.45078  0.50455  Biso   1.000  Co
  N15      1.0000 0.47150  0.37655  0.50678  Biso   1.000  N
  O57      1.0000 0.60950  0.44686  0.45623  Biso   1.000  O
  O58      1.0000 0.62160  0.52618  0.44959  Biso   1.000  O
  O59      1.0000 0.37060  0.46428  0.45860  Biso   1.000  O
  C317     1.0000 0.47380  0.27630  0.50170  Biso   1.000  C
  C318     1.0000 0.37290  0.30200  0.50997  Biso   1.000  C
  H205     1.0000 0.30430  0.28550  0.51420  Biso   1.000  H
  O60      1.0000 0.38380  0.54413  0.45107  Biso   1.000  O
  C319     1.0000 0.94280  0.47422  0.28925  Biso   1.000  C
  C320     1.0000 0.05910  0.48814  0.28933  Biso   1.000  C
  C321     1.0000 0.12810  0.49312  0.32944  Biso   1.000  C
  C322     1.0000 0.64730  0.48377  0.43900  Biso   1.000  C
  C323     1.0000 0.72990  0.47914  0.40178  Biso   1.000  C
  C324     1.0000 0.87340  0.47358  0.32961  Biso   1.000  C
  C325     1.0000 0.37390  0.35146  0.51186  Biso   1.000  C
  C326     1.0000 0.57420  0.30325  0.49664  Biso   1.000  C
  H206     1.0000 0.64390  0.28810  0.49110  Biso   1.000  H
  C327     1.0000 0.34670  0.50351  0.44060  Biso   1.000  C
  C328     1.0000 0.26820  0.50028  0.40220  Biso   1.000  C
  C329     1.0000 0.79300  0.51831  0.38865  Biso   1.000  C
  H207     1.0000 0.78680  0.54700  0.40370  Biso   1.000  H
  C330     1.0000 0.74050  0.43679  0.37911  Biso   1.000  C
  H208     1.0000 0.70040  0.40970  0.38820  Biso   1.000  H
  C331     1.0000 0.86520  0.51561  0.35348  Biso   1.000  C
  H209     1.0000 0.90870  0.54220  0.34570  Biso   1.000  H
  C332     1.0000 0.56900  0.35212  0.49987  Biso   1.000  C
  H210     1.0000 0.63700  0.36940  0.49710  Biso   1.000  H
  C333     1.0000 0.13720  0.45541  0.35811  Biso   1.000  C
  H211     1.0000 0.09480  0.42760  0.35350  Biso   1.000  H
  C334     1.0000 0.25800  0.53842  0.37404  Biso   1.000  C
  H212     1.0000 0.29720  0.56690  0.37960  Biso   1.000  H
  C335     1.0000 0.26360  0.37822  0.51948  Biso   1.000  C
  H213     1.0000 0.25830  0.40450  0.49960  Biso   1.000  H
  H214     1.0000 0.19970  0.35690  0.51520  Biso   1.000  H
  H215     1.0000 0.26250  0.39030  0.54850  Biso   1.000  H
  C336     1.0000 0.20820  0.45848  0.39338  Biso   1.000  C
  H216     1.0000 0.21610  0.43210  0.41160  Biso   1.000  H
  C337     1.0000 0.81010  0.43411  0.34309  Biso   1.000  C
  H217     1.0000 0.81460  0.40550  0.32770  Biso   1.000  H
  C338     1.0000 0.19030  0.53473  0.33760  Biso   1.000  C
  H218     1.0000 0.18630  0.56030  0.31840  Biso   1.000  H
  Co16     1.0000 0.51087  0.54922  0.00455  Biso   1.000  Co
  N16      1.0000 0.52850  0.62345  0.00678  Biso   1.000  N
  O61      1.0000 0.39050  0.55314  0.95623  Biso   1.000  O
  O62      1.0000 0.37840  0.47382  0.94959  Biso   1.000  O
  O63      1.0000 0.62940  0.53572  0.95860  Biso   1.000  O
  C339     1.0000 0.52620  0.72370  0.00170  Biso   1.000  C
  C340     1.0000 0.62710  0.69800  0.00997  Biso   1.000  C
  H219     1.0000 0.69570  0.71450  0.01420  Biso   1.000  H
  O64      1.0000 0.61620  0.45587  0.95107  Biso   1.000  O
  C341     1.0000 0.05720  0.52578  0.78925  Biso   1.000  C
  C342     1.0000 0.94090  0.51186  0.78933  Biso   1.000  C
  C343     1.0000 0.87190  0.50688  0.82944  Biso   1.000  C
  C344     1.0000 0.35270  0.51623  0.93900  Biso   1.000  C
  C345     1.0000 0.27010  0.52086  0.90178  Biso   1.000  C
  C346     1.0000 0.12660  0.52642  0.82961  Biso   1.000  C
  C347     1.0000 0.62610  0.64854  0.01186  Biso   1.000  C
  C348     1.0000 0.42580  0.69675  0.99664  Biso   1.000  C
  H220     1.0000 0.35610  0.71190  0.99110  Biso   1.000  H
  C349     1.0000 0.65330  0.49649  0.94060  Biso   1.000  C
  C350     1.0000 0.73180  0.49972  0.90220  Biso   1.000  C
  C351     1.0000 0.20700  0.48169  0.88865  Biso   1.000  C
  H221     1.0000 0.21320  0.45300  0.90370  Biso   1.000  H
  C352     1.0000 0.25950  0.56321  0.87911  Biso   1.000  C
  H222     1.0000 0.29960  0.59030  0.88820  Biso   1.000  H
  C353     1.0000 0.13480  0.48439  0.85348  Biso   1.000  C
  H223     1.0000 0.09130  0.45780  0.84570  Biso   1.000  H
  C354     1.0000 0.43100  0.64788  0.99987  Biso   1.000  C
  H224     1.0000 0.36300  0.63060  0.99710  Biso   1.000  H
  C355     1.0000 0.86280  0.54459  0.85811  Biso   1.000  C
  H225     1.0000 0.90520  0.57240  0.85350  Biso   1.000  H
  C356     1.0000 0.74200  0.46158  0.87404  Biso   1.000  C
  H226     1.0000 0.70280  0.43310  0.87960  Biso   1.000  H
  C357     1.0000 0.73640  0.62178  0.01948  Biso   1.000  C
  H227     1.0000 0.74170  0.59550  0.99960  Biso   1.000  H
  H228     1.0000 0.80030  0.64310  0.01520  Biso   1.000  H
  H229     1.0000 0.73750  0.60970  0.04850  Biso   1.000  H
  C358     1.0000 0.79180  0.54152  0.89338  Biso   1.000  C
  H230     1.0000 0.78390  0.56790  0.91160  Biso   1.000  H
  C359     1.0000 0.18990  0.56589  0.84309  Biso   1.000  C
  H231     1.0000 0.18540  0.59450  0.82770  Biso   1.000  H
  C360     1.0000 0.80970  0.46527  0.83760  Biso   1.000  C
  H232     1.0000 0.81370  0.43970  0.81840  Biso   1.000  H
  C361     1.0000 0.88810  0.03378  0.75000  Biso   1.000  C
  H233     1.0000 0.81260  0.04480  0.75000  Biso   1.000  H
  C362     1.0000 0.11410  0.00441  0.75000  Biso   1.000  C
  H234     1.0000 0.19010  0.99410  0.75000  Biso   1.000  H
  C363     1.0000 0.11190  0.96622  0.25000  Biso   1.000  C
  H235     1.0000 0.18740  0.95520  0.25000  Biso   1.000  H
  C364     1.0000 0.88590  0.99559  0.25000  Biso   1.000  C
  H236     1.0000 0.80990  0.00590  0.25000  Biso   1.000  H
  C365     1.0000 0.11190  0.53378  0.75000  Biso   1.000  C
  H237     1.0000 0.18740  0.54480  0.75000  Biso   1.000  H
  C366     1.0000 0.88590  0.50441  0.75000  Biso   1.000  C
  H238     1.0000 0.80990  0.49410  0.75000  Biso   1.000  H
  C367     1.0000 0.88810  0.46622  0.25000  Biso   1.000  C
  H239     1.0000 0.81260  0.45520  0.25000  Biso   1.000  H
  C368     1.0000 0.11410  0.49559  0.25000  Biso   1.000  C
  H240     1.0000 0.19010  0.50590  0.25000  Biso   1.000  H
