data_image0
_cell_length_a       39.8144
_cell_length_b       39.8144
_cell_length_c       39.8144
_cell_angle_alpha    90
_cell_angle_beta     90
_cell_angle_gamma    90

_symmetry_space_group_name_H-M    "P 1"
_symmetry_int_tables_number       1

loop_
  _symmetry_equiv_pos_as_xyz
  'x, y, z'

loop_
  _atom_site_label
  _atom_site_occupancy
  _atom_site_fract_x
  _atom_site_fract_y
  _atom_site_fract_z
  _atom_site_thermal_displace_type
  _atom_site_B_iso_or_equiv
  _atom_site_type_symbol
  O1       1.0000 0.21408  0.07623  0.12543  Biso   1.000  O
  C1       1.0000 0.26352  0.02889  0.13629  Biso   1.000  C
  H1       1.0000 0.26980  0.05180  0.13420  Biso   1.000  H
  C2       1.0000 0.38342  0.90800  0.15967  Biso   1.000  C
  C3       1.0000 0.28775  0.00490  0.14200  Biso   1.000  C
  H2       1.0000 0.31060  0.01140  0.14400  Biso   1.000  H
  O2       1.0000 0.39150  0.94066  0.16220  Biso   1.000  O
  C4       1.0000 0.42840  0.94910  0.17060  Biso   1.000  C
  O3       1.0000 0.21408  0.57623  0.62543  Biso   1.000  O
  C5       1.0000 0.26352  0.52889  0.63629  Biso   1.000  C
  H3       1.0000 0.26980  0.55180  0.63420  Biso   1.000  H
  C6       1.0000 0.38342  0.40800  0.65967  Biso   1.000  C
  C7       1.0000 0.28775  0.50490  0.64200  Biso   1.000  C
  H4       1.0000 0.31060  0.51140  0.64400  Biso   1.000  H
  O4       1.0000 0.39150  0.44066  0.66220  Biso   1.000  O
  C8       1.0000 0.42840  0.44910  0.67060  Biso   1.000  C
  O5       1.0000 0.71408  0.07623  0.62543  Biso   1.000  O
  C9       1.0000 0.76352  0.02889  0.63629  Biso   1.000  C
  H5       1.0000 0.76980  0.05180  0.63420  Biso   1.000  H
  C10      1.0000 0.88342  0.90800  0.65967  Biso   1.000  C
  C11      1.0000 0.78775  0.00490  0.64200  Biso   1.000  C
  H6       1.0000 0.81060  0.01140  0.64400  Biso   1.000  H
  O6       1.0000 0.89150  0.94066  0.66220  Biso   1.000  O
  C12      1.0000 0.92840  0.94910  0.67060  Biso   1.000  C
  O7       1.0000 0.71408  0.57623  0.12543  Biso   1.000  O
  C13      1.0000 0.76352  0.52889  0.13629  Biso   1.000  C
  H7       1.0000 0.76980  0.55180  0.13420  Biso   1.000  H
  C14      1.0000 0.88342  0.40800  0.15967  Biso   1.000  C
  C15      1.0000 0.78775  0.50490  0.14200  Biso   1.000  C
  H8       1.0000 0.81060  0.51140  0.14400  Biso   1.000  H
  O8       1.0000 0.89150  0.44066  0.16220  Biso   1.000  O
  C16      1.0000 0.92840  0.44910  0.17060  Biso   1.000  C
  O9       1.0000 0.53592  0.17377  0.62543  Biso   1.000  O
  C17      1.0000 0.48648  0.22111  0.63629  Biso   1.000  C
  H9       1.0000 0.48020  0.19820  0.63420  Biso   1.000  H
  C18      1.0000 0.36658  0.34200  0.65967  Biso   1.000  C
  C19      1.0000 0.46225  0.24510  0.64200  Biso   1.000  C
  H10      1.0000 0.43940  0.23860  0.64400  Biso   1.000  H
  O10      1.0000 0.35850  0.30934  0.66220  Biso   1.000  O
  C20      1.0000 0.32160  0.30090  0.67060  Biso   1.000  C
  O11      1.0000 0.53592  0.67377  0.12543  Biso   1.000  O
  C21      1.0000 0.48648  0.72111  0.13629  Biso   1.000  C
  H11      1.0000 0.48020  0.69820  0.13420  Biso   1.000  H
  C22      1.0000 0.36658  0.84200  0.15967  Biso   1.000  C
  C23      1.0000 0.46225  0.74510  0.14200  Biso   1.000  C
  H12      1.0000 0.43940  0.73860  0.14400  Biso   1.000  H
  O12      1.0000 0.35850  0.80934  0.16220  Biso   1.000  O
  C24      1.0000 0.32160  0.80090  0.17060  Biso   1.000  C
  O13      1.0000 0.03592  0.17377  0.12543  Biso   1.000  O
  C25      1.0000 0.98648  0.22111  0.13629  Biso   1.000  C
  H13      1.0000 0.98020  0.19820  0.13420  Biso   1.000  H
  C26      1.0000 0.86658  0.34200  0.15967  Biso   1.000  C
  C27      1.0000 0.96225  0.24510  0.14200  Biso   1.000  C
  H14      1.0000 0.93940  0.23860  0.14400  Biso   1.000  H
  O14      1.0000 0.85850  0.30934  0.16220  Biso   1.000  O
  C28      1.0000 0.82160  0.30090  0.17060  Biso   1.000  C
  O15      1.0000 0.03592  0.67377  0.62543  Biso   1.000  O
  C29      1.0000 0.98648  0.72111  0.63629  Biso   1.000  C
  H15      1.0000 0.98020  0.69820  0.63420  Biso   1.000  H
  C30      1.0000 0.86658  0.84200  0.65967  Biso   1.000  C
  C31      1.0000 0.96225  0.74510  0.64200  Biso   1.000  C
  H16      1.0000 0.93940  0.73860  0.64400  Biso   1.000  H
  O16      1.0000 0.85850  0.80934  0.66220  Biso   1.000  O
  C32      1.0000 0.82160  0.80090  0.67060  Biso   1.000  C
  O17      1.0000 0.03592  0.57623  0.62457  Biso   1.000  O
  C33      1.0000 0.98648  0.52889  0.61371  Biso   1.000  C
  H17      1.0000 0.98020  0.55180  0.61580  Biso   1.000  H
  C34      1.0000 0.86658  0.40800  0.59033  Biso   1.000  C
  C35      1.0000 0.96225  0.50490  0.60800  Biso   1.000  C
  H18      1.0000 0.93940  0.51140  0.60600  Biso   1.000  H
  O18      1.0000 0.85850  0.44066  0.58780  Biso   1.000  O
  C36      1.0000 0.82160  0.44910  0.57940  Biso   1.000  C
  O19      1.0000 0.03592  0.07623  0.12457  Biso   1.000  O
  C37      1.0000 0.98648  0.02889  0.11371  Biso   1.000  C
  H19      1.0000 0.98020  0.05180  0.11580  Biso   1.000  H
  C38      1.0000 0.86658  0.90800  0.09033  Biso   1.000  C
  C39      1.0000 0.96225  0.00490  0.10800  Biso   1.000  C
  H20      1.0000 0.93940  0.01140  0.10600  Biso   1.000  H
  O20      1.0000 0.85850  0.94066  0.08780  Biso   1.000  O
  C40      1.0000 0.82160  0.94910  0.07940  Biso   1.000  C
  O21      1.0000 0.53592  0.57623  0.12457  Biso   1.000  O
  C41      1.0000 0.48648  0.52889  0.11371  Biso   1.000  C
  H21      1.0000 0.48020  0.55180  0.11580  Biso   1.000  H
  C42      1.0000 0.36658  0.40800  0.09033  Biso   1.000  C
  C43      1.0000 0.46225  0.50490  0.10800  Biso   1.000  C
  H22      1.0000 0.43940  0.51140  0.10600  Biso   1.000  H
  O22      1.0000 0.35850  0.44066  0.08780  Biso   1.000  O
  C44      1.0000 0.32160  0.44910  0.07940  Biso   1.000  C
  O23      1.0000 0.53592  0.07623  0.62457  Biso   1.000  O
  C45      1.0000 0.48648  0.02889  0.61371  Biso   1.000  C
  H23      1.0000 0.48020  0.05180  0.61580  Biso   1.000  H
  C46      1.0000 0.36658  0.90800  0.59033  Biso   1.000  C
  C47      1.0000 0.46225  0.00490  0.60800  Biso   1.000  C
  H24      1.0000 0.43940  0.01140  0.60600  Biso   1.000  H
  O24      1.0000 0.35850  0.94066  0.58780  Biso   1.000  O
  C48      1.0000 0.32160  0.94910  0.57940  Biso   1.000  C
  O25      1.0000 0.71408  0.67377  0.12457  Biso   1.000  O
  C49      1.0000 0.76352  0.72111  0.11371  Biso   1.000  C
  H25      1.0000 0.76980  0.69820  0.11580  Biso   1.000  H
  C50      1.0000 0.88342  0.84200  0.09033  Biso   1.000  C
  C51      1.0000 0.78775  0.74510  0.10800  Biso   1.000  C
  H26      1.0000 0.81060  0.73860  0.10600  Biso   1.000  H
  O26      1.0000 0.89150  0.80934  0.08780  Biso   1.000  O
  C52      1.0000 0.92840  0.80090  0.07940  Biso   1.000  C
  O27      1.0000 0.71408  0.17377  0.62457  Biso   1.000  O
  C53      1.0000 0.76352  0.22111  0.61371  Biso   1.000  C
  H27      1.0000 0.76980  0.19820  0.61580  Biso   1.000  H
  C54      1.0000 0.88342  0.34200  0.59033  Biso   1.000  C
  C55      1.0000 0.78775  0.24510  0.60800  Biso   1.000  C
  H28      1.0000 0.81060  0.23860  0.60600  Biso   1.000  H
  O28      1.0000 0.89150  0.30934  0.58780  Biso   1.000  O
  C56      1.0000 0.92840  0.30090  0.57940  Biso   1.000  C
  O29      1.0000 0.21408  0.67377  0.62457  Biso   1.000  O
  C57      1.0000 0.26352  0.72111  0.61371  Biso   1.000  C
  H29      1.0000 0.26980  0.69820  0.61580  Biso   1.000  H
  C58      1.0000 0.38342  0.84200  0.59033  Biso   1.000  C
  C59      1.0000 0.28775  0.74510  0.60800  Biso   1.000  C
  H30      1.0000 0.31060  0.73860  0.60600  Biso   1.000  H
  O30      1.0000 0.39150  0.80934  0.58780  Biso   1.000  O
  C60      1.0000 0.42840  0.80090  0.57940  Biso   1.000  C
  O31      1.0000 0.21408  0.17377  0.12457  Biso   1.000  O
  C61      1.0000 0.26352  0.22111  0.11371  Biso   1.000  C
  H31      1.0000 0.26980  0.19820  0.11580  Biso   1.000  H
  C62      1.0000 0.38342  0.34200  0.09033  Biso   1.000  C
  C63      1.0000 0.28775  0.24510  0.10800  Biso   1.000  C
  H32      1.0000 0.31060  0.23860  0.10600  Biso   1.000  H
  O32      1.0000 0.39150  0.30934  0.08780  Biso   1.000  O
  C64      1.0000 0.42840  0.30090  0.07940  Biso   1.000  C
  O33      1.0000 0.12543  0.21408  0.07623  Biso   1.000  O
  C65      1.0000 0.13629  0.26352  0.02889  Biso   1.000  C
  H33      1.0000 0.13420  0.26980  0.05180  Biso   1.000  H
  C66      1.0000 0.15967  0.38342  0.90800  Biso   1.000  C
  C67      1.0000 0.14200  0.28775  0.00490  Biso   1.000  C
  H34      1.0000 0.14400  0.31060  0.01140  Biso   1.000  H
  O34      1.0000 0.16220  0.39150  0.94066  Biso   1.000  O
  C68      1.0000 0.17060  0.42840  0.94910  Biso   1.000  C
  O35      1.0000 0.12543  0.71408  0.57623  Biso   1.000  O
  C69      1.0000 0.13629  0.76352  0.52889  Biso   1.000  C
  H35      1.0000 0.13420  0.76980  0.55180  Biso   1.000  H
  C70      1.0000 0.15967  0.88342  0.40800  Biso   1.000  C
  C71      1.0000 0.14200  0.78775  0.50490  Biso   1.000  C
  H36      1.0000 0.14400  0.81060  0.51140  Biso   1.000  H
  O36      1.0000 0.16220  0.89150  0.44066  Biso   1.000  O
  C72      1.0000 0.17060  0.92840  0.44910  Biso   1.000  C
  O37      1.0000 0.62543  0.21408  0.57623  Biso   1.000  O
  C73      1.0000 0.63629  0.26352  0.52889  Biso   1.000  C
  H37      1.0000 0.63420  0.26980  0.55180  Biso   1.000  H
  C74      1.0000 0.65967  0.38342  0.40800  Biso   1.000  C
  C75      1.0000 0.64200  0.28775  0.50490  Biso   1.000  C
  H38      1.0000 0.64400  0.31060  0.51140  Biso   1.000  H
  O38      1.0000 0.66220  0.39150  0.44066  Biso   1.000  O
  C76      1.0000 0.67060  0.42840  0.44910  Biso   1.000  C
  O39      1.0000 0.62543  0.71408  0.07623  Biso   1.000  O
  C77      1.0000 0.63629  0.76352  0.02889  Biso   1.000  C
  H39      1.0000 0.63420  0.76980  0.05180  Biso   1.000  H
  C78      1.0000 0.65967  0.88342  0.90800  Biso   1.000  C
  C79      1.0000 0.64200  0.78775  0.00490  Biso   1.000  C
  H40      1.0000 0.64400  0.81060  0.01140  Biso   1.000  H
  O40      1.0000 0.66220  0.89150  0.94066  Biso   1.000  O
  C80      1.0000 0.67060  0.92840  0.94910  Biso   1.000  C
  O41      1.0000 0.62543  0.53592  0.17377  Biso   1.000  O
  C81      1.0000 0.63629  0.48648  0.22111  Biso   1.000  C
  H41      1.0000 0.63420  0.48020  0.19820  Biso   1.000  H
  C82      1.0000 0.65967  0.36658  0.34200  Biso   1.000  C
  C83      1.0000 0.64200  0.46225  0.24510  Biso   1.000  C
  H42      1.0000 0.64400  0.43940  0.23860  Biso   1.000  H
  O42      1.0000 0.66220  0.35850  0.30934  Biso   1.000  O
  C84      1.0000 0.67060  0.32160  0.30090  Biso   1.000  C
  O43      1.0000 0.62543  0.03592  0.67377  Biso   1.000  O
  C85      1.0000 0.63629  0.98648  0.72111  Biso   1.000  C
  H43      1.0000 0.63420  0.98020  0.69820  Biso   1.000  H
  C86      1.0000 0.65967  0.86658  0.84200  Biso   1.000  C
  C87      1.0000 0.64200  0.96225  0.74510  Biso   1.000  C
  H44      1.0000 0.64400  0.93940  0.73860  Biso   1.000  H
  O44      1.0000 0.66220  0.85850  0.80934  Biso   1.000  O
  C88      1.0000 0.67060  0.82160  0.80090  Biso   1.000  C
  O45      1.0000 0.12543  0.53592  0.67377  Biso   1.000  O
  C89      1.0000 0.13629  0.48648  0.72111  Biso   1.000  C
  H45      1.0000 0.13420  0.48020  0.69820  Biso   1.000  H
  C90      1.0000 0.15967  0.36658  0.84200  Biso   1.000  C
  C91      1.0000 0.14200  0.46225  0.74510  Biso   1.000  C
  H46      1.0000 0.14400  0.43940  0.73860  Biso   1.000  H
  O46      1.0000 0.16220  0.35850  0.80934  Biso   1.000  O
  C92      1.0000 0.17060  0.32160  0.80090  Biso   1.000  C
  O47      1.0000 0.12543  0.03592  0.17377  Biso   1.000  O
  C93      1.0000 0.13629  0.98648  0.22111  Biso   1.000  C
  H47      1.0000 0.13420  0.98020  0.19820  Biso   1.000  H
  C94      1.0000 0.15967  0.86658  0.34200  Biso   1.000  C
  C95      1.0000 0.14200  0.96225  0.24510  Biso   1.000  C
  H48      1.0000 0.14400  0.93940  0.23860  Biso   1.000  H
  O48      1.0000 0.16220  0.85850  0.30934  Biso   1.000  O
  C96      1.0000 0.17060  0.82160  0.30090  Biso   1.000  C
  O49      1.0000 0.62457  0.03592  0.57623  Biso   1.000  O
  C97      1.0000 0.61371  0.98648  0.52889  Biso   1.000  C
  H49      1.0000 0.61580  0.98020  0.55180  Biso   1.000  H
  C98      1.0000 0.59033  0.86658  0.40800  Biso   1.000  C
  C99      1.0000 0.60800  0.96225  0.50490  Biso   1.000  C
  H50      1.0000 0.60600  0.93940  0.51140  Biso   1.000  H
  O50      1.0000 0.58780  0.85850  0.44066  Biso   1.000  O
  C100     1.0000 0.57940  0.82160  0.44910  Biso   1.000  C
  O51      1.0000 0.62457  0.53592  0.07623  Biso   1.000  O
  C101     1.0000 0.61371  0.48648  0.02889  Biso   1.000  C
  H51      1.0000 0.61580  0.48020  0.05180  Biso   1.000  H
  C102     1.0000 0.59033  0.36658  0.90800  Biso   1.000  C
  C103     1.0000 0.60800  0.46225  0.00490  Biso   1.000  C
  H52      1.0000 0.60600  0.43940  0.01140  Biso   1.000  H
  O52      1.0000 0.58780  0.35850  0.94066  Biso   1.000  O
  C104     1.0000 0.57940  0.32160  0.94910  Biso   1.000  C
  O53      1.0000 0.12457  0.03592  0.07623  Biso   1.000  O
  C105     1.0000 0.11371  0.98648  0.02889  Biso   1.000  C
  H53      1.0000 0.11580  0.98020  0.05180  Biso   1.000  H
  C106     1.0000 0.09033  0.86658  0.90800  Biso   1.000  C
  C107     1.0000 0.10800  0.96225  0.00490  Biso   1.000  C
  H54      1.0000 0.10600  0.93940  0.01140  Biso   1.000  H
  O54      1.0000 0.08780  0.85850  0.94066  Biso   1.000  O
  C108     1.0000 0.07940  0.82160  0.94910  Biso   1.000  C
  O55      1.0000 0.12457  0.53592  0.57623  Biso   1.000  O
  C109     1.0000 0.11371  0.48648  0.52889  Biso   1.000  C
  H55      1.0000 0.11580  0.48020  0.55180  Biso   1.000  H
  C110     1.0000 0.09033  0.36658  0.40800  Biso   1.000  C
  C111     1.0000 0.10800  0.46225  0.50490  Biso   1.000  C
  H56      1.0000 0.10600  0.43940  0.51140  Biso   1.000  H
  O56      1.0000 0.08780  0.35850  0.44066  Biso   1.000  O
  C112     1.0000 0.07940  0.32160  0.44910  Biso   1.000  C
  O57      1.0000 0.12457  0.71408  0.67377  Biso   1.000  O
  C113     1.0000 0.11371  0.76352  0.72111  Biso   1.000  C
  H57      1.0000 0.11580  0.76980  0.69820  Biso   1.000  H
  C114     1.0000 0.09033  0.88342  0.84200  Biso   1.000  C
  C115     1.0000 0.10800  0.78775  0.74510  Biso   1.000  C
  H58      1.0000 0.10600  0.81060  0.73860  Biso   1.000  H
  O58      1.0000 0.08780  0.89150  0.80934  Biso   1.000  O
  C116     1.0000 0.07940  0.92840  0.80090  Biso   1.000  C
  O59      1.0000 0.12457  0.21408  0.17377  Biso   1.000  O
  C117     1.0000 0.11371  0.26352  0.22111  Biso   1.000  C
  H59      1.0000 0.11580  0.26980  0.19820  Biso   1.000  H
  C118     1.0000 0.09033  0.38342  0.34200  Biso   1.000  C
  C119     1.0000 0.10800  0.28775  0.24510  Biso   1.000  C
  H60      1.0000 0.10600  0.31060  0.23860  Biso   1.000  H
  O60      1.0000 0.08780  0.39150  0.30934  Biso   1.000  O
  C120     1.0000 0.07940  0.42840  0.30090  Biso   1.000  C
  O61      1.0000 0.62457  0.71408  0.17377  Biso   1.000  O
  C121     1.0000 0.61371  0.76352  0.22111  Biso   1.000  C
  H61      1.0000 0.61580  0.76980  0.19820  Biso   1.000  H
  C122     1.0000 0.59033  0.88342  0.34200  Biso   1.000  C
  C123     1.0000 0.60800  0.78775  0.24510  Biso   1.000  C
  H62      1.0000 0.60600  0.81060  0.23860  Biso   1.000  H
  O62      1.0000 0.58780  0.89150  0.30934  Biso   1.000  O
  C124     1.0000 0.57940  0.92840  0.30090  Biso   1.000  C
  O63      1.0000 0.62457  0.21408  0.67377  Biso   1.000  O
  C125     1.0000 0.61371  0.26352  0.72111  Biso   1.000  C
  H63      1.0000 0.61580  0.26980  0.69820  Biso   1.000  H
  C126     1.0000 0.59033  0.38342  0.84200  Biso   1.000  C
  C127     1.0000 0.60800  0.28775  0.74510  Biso   1.000  C
  H64      1.0000 0.60600  0.31060  0.73860  Biso   1.000  H
  O64      1.0000 0.58780  0.39150  0.80934  Biso   1.000  O
  C128     1.0000 0.57940  0.42840  0.80090  Biso   1.000  C
  O65      1.0000 0.07623  0.12543  0.21408  Biso   1.000  O
  C129     1.0000 0.02889  0.13629  0.26352  Biso   1.000  C
  H65      1.0000 0.05180  0.13420  0.26980  Biso   1.000  H
  C130     1.0000 0.90800  0.15967  0.38342  Biso   1.000  C
  C131     1.0000 0.00490  0.14200  0.28775  Biso   1.000  C
  H66      1.0000 0.01140  0.14400  0.31060  Biso   1.000  H
  O66      1.0000 0.94066  0.16220  0.39150  Biso   1.000  O
  C132     1.0000 0.94910  0.17060  0.42840  Biso   1.000  C
  O67      1.0000 0.07623  0.62543  0.71408  Biso   1.000  O
  C133     1.0000 0.02889  0.63629  0.76352  Biso   1.000  C
  H67      1.0000 0.05180  0.63420  0.76980  Biso   1.000  H
  C134     1.0000 0.90800  0.65967  0.88342  Biso   1.000  C
  C135     1.0000 0.00490  0.64200  0.78775  Biso   1.000  C
  H68      1.0000 0.01140  0.64400  0.81060  Biso   1.000  H
  O68      1.0000 0.94066  0.66220  0.89150  Biso   1.000  O
  C136     1.0000 0.94910  0.67060  0.92840  Biso   1.000  C
  O69      1.0000 0.57623  0.12543  0.71408  Biso   1.000  O
  C137     1.0000 0.52889  0.13629  0.76352  Biso   1.000  C
  H69      1.0000 0.55180  0.13420  0.76980  Biso   1.000  H
  C138     1.0000 0.40800  0.15967  0.88342  Biso   1.000  C
  C139     1.0000 0.50490  0.14200  0.78775  Biso   1.000  C
  H70      1.0000 0.51140  0.14400  0.81060  Biso   1.000  H
  O70      1.0000 0.44066  0.16220  0.89150  Biso   1.000  O
  C140     1.0000 0.44910  0.17060  0.92840  Biso   1.000  C
  O71      1.0000 0.57623  0.62543  0.21408  Biso   1.000  O
  C141     1.0000 0.52889  0.63629  0.26352  Biso   1.000  C
  H71      1.0000 0.55180  0.63420  0.26980  Biso   1.000  H
  C142     1.0000 0.40800  0.65967  0.38342  Biso   1.000  C
  C143     1.0000 0.50490  0.64200  0.28775  Biso   1.000  C
  H72      1.0000 0.51140  0.64400  0.31060  Biso   1.000  H
  O72      1.0000 0.44066  0.66220  0.39150  Biso   1.000  O
  C144     1.0000 0.44910  0.67060  0.42840  Biso   1.000  C
  O73      1.0000 0.17377  0.62543  0.53592  Biso   1.000  O
  C145     1.0000 0.22111  0.63629  0.48648  Biso   1.000  C
  H73      1.0000 0.19820  0.63420  0.48020  Biso   1.000  H
  C146     1.0000 0.34200  0.65967  0.36658  Biso   1.000  C
  C147     1.0000 0.24510  0.64200  0.46225  Biso   1.000  C
  H74      1.0000 0.23860  0.64400  0.43940  Biso   1.000  H
  O74      1.0000 0.30934  0.66220  0.35850  Biso   1.000  O
  C148     1.0000 0.30090  0.67060  0.32160  Biso   1.000  C
  O75      1.0000 0.17377  0.12543  0.03592  Biso   1.000  O
  C149     1.0000 0.22111  0.13629  0.98648  Biso   1.000  C
  H75      1.0000 0.19820  0.13420  0.98020  Biso   1.000  H
  C150     1.0000 0.34200  0.15967  0.86658  Biso   1.000  C
  C151     1.0000 0.24510  0.14200  0.96225  Biso   1.000  C
  H76      1.0000 0.23860  0.14400  0.93940  Biso   1.000  H
  O76      1.0000 0.30934  0.16220  0.85850  Biso   1.000  O
  C152     1.0000 0.30090  0.17060  0.82160  Biso   1.000  C
  O77      1.0000 0.67377  0.62543  0.03592  Biso   1.000  O
  C153     1.0000 0.72111  0.63629  0.98648  Biso   1.000  C
  H77      1.0000 0.69820  0.63420  0.98020  Biso   1.000  H
  C154     1.0000 0.84200  0.65967  0.86658  Biso   1.000  C
  C155     1.0000 0.74510  0.64200  0.96225  Biso   1.000  C
  H78      1.0000 0.73860  0.64400  0.93940  Biso   1.000  H
  O78      1.0000 0.80934  0.66220  0.85850  Biso   1.000  O
  C156     1.0000 0.80090  0.67060  0.82160  Biso   1.000  C
  O79      1.0000 0.67377  0.12543  0.53592  Biso   1.000  O
  C157     1.0000 0.72111  0.13629  0.48648  Biso   1.000  C
  H79      1.0000 0.69820  0.13420  0.48020  Biso   1.000  H
  C158     1.0000 0.84200  0.15967  0.36658  Biso   1.000  C
  C159     1.0000 0.74510  0.14200  0.46225  Biso   1.000  C
  H80      1.0000 0.73860  0.14400  0.43940  Biso   1.000  H
  O80      1.0000 0.80934  0.16220  0.35850  Biso   1.000  O
  C160     1.0000 0.80090  0.17060  0.32160  Biso   1.000  C
  O81      1.0000 0.57623  0.62457  0.03592  Biso   1.000  O
  C161     1.0000 0.52889  0.61371  0.98648  Biso   1.000  C
  H81      1.0000 0.55180  0.61580  0.98020  Biso   1.000  H
  C162     1.0000 0.40800  0.59033  0.86658  Biso   1.000  C
  C163     1.0000 0.50490  0.60800  0.96225  Biso   1.000  C
  H82      1.0000 0.51140  0.60600  0.93940  Biso   1.000  H
  O82      1.0000 0.44066  0.58780  0.85850  Biso   1.000  O
  C164     1.0000 0.44910  0.57940  0.82160  Biso   1.000  C
  O83      1.0000 0.57623  0.12457  0.53592  Biso   1.000  O
  C165     1.0000 0.52889  0.11371  0.48648  Biso   1.000  C
  H83      1.0000 0.55180  0.11580  0.48020  Biso   1.000  H
  C166     1.0000 0.40800  0.09033  0.36658  Biso   1.000  C
  C167     1.0000 0.50490  0.10800  0.46225  Biso   1.000  C
  H84      1.0000 0.51140  0.10600  0.43940  Biso   1.000  H
  O84      1.0000 0.44066  0.08780  0.35850  Biso   1.000  O
  C168     1.0000 0.44910  0.07940  0.32160  Biso   1.000  C
  O85      1.0000 0.07623  0.62457  0.53592  Biso   1.000  O
  C169     1.0000 0.02889  0.61371  0.48648  Biso   1.000  C
  H85      1.0000 0.05180  0.61580  0.48020  Biso   1.000  H
  C170     1.0000 0.90800  0.59033  0.36658  Biso   1.000  C
  C171     1.0000 0.00490  0.60800  0.46225  Biso   1.000  C
  H86      1.0000 0.01140  0.60600  0.43940  Biso   1.000  H
  O86      1.0000 0.94066  0.58780  0.35850  Biso   1.000  O
  C172     1.0000 0.94910  0.57940  0.32160  Biso   1.000  C
  O87      1.0000 0.07623  0.12457  0.03592  Biso   1.000  O
  C173     1.0000 0.02889  0.11371  0.98648  Biso   1.000  C
  H87      1.0000 0.05180  0.11580  0.98020  Biso   1.000  H
  C174     1.0000 0.90800  0.09033  0.86658  Biso   1.000  C
  C175     1.0000 0.00490  0.10800  0.96225  Biso   1.000  C
  H88      1.0000 0.01140  0.10600  0.93940  Biso   1.000  H
  O88      1.0000 0.94066  0.08780  0.85850  Biso   1.000  O
  C176     1.0000 0.94910  0.07940  0.82160  Biso   1.000  C
  O89      1.0000 0.67377  0.12457  0.71408  Biso   1.000  O
  C177     1.0000 0.72111  0.11371  0.76352  Biso   1.000  C
  H89      1.0000 0.69820  0.11580  0.76980  Biso   1.000  H
  C178     1.0000 0.84200  0.09033  0.88342  Biso   1.000  C
  C179     1.0000 0.74510  0.10800  0.78775  Biso   1.000  C
  H90      1.0000 0.73860  0.10600  0.81060  Biso   1.000  H
  O90      1.0000 0.80934  0.08780  0.89150  Biso   1.000  O
  C180     1.0000 0.80090  0.07940  0.92840  Biso   1.000  C
  O91      1.0000 0.67377  0.62457  0.21408  Biso   1.000  O
  C181     1.0000 0.72111  0.61371  0.26352  Biso   1.000  C
  H91      1.0000 0.69820  0.61580  0.26980  Biso   1.000  H
  C182     1.0000 0.84200  0.59033  0.38342  Biso   1.000  C
  C183     1.0000 0.74510  0.60800  0.28775  Biso   1.000  C
  H92      1.0000 0.73860  0.60600  0.31060  Biso   1.000  H
  O92      1.0000 0.80934  0.58780  0.39150  Biso   1.000  O
  C184     1.0000 0.80090  0.57940  0.42840  Biso   1.000  C
  O93      1.0000 0.17377  0.12457  0.21408  Biso   1.000  O
  C185     1.0000 0.22111  0.11371  0.26352  Biso   1.000  C
  H93      1.0000 0.19820  0.11580  0.26980  Biso   1.000  H
  C186     1.0000 0.34200  0.09033  0.38342  Biso   1.000  C
  C187     1.0000 0.24510  0.10800  0.28775  Biso   1.000  C
  H94      1.0000 0.23860  0.10600  0.31060  Biso   1.000  H
  O94      1.0000 0.30934  0.08780  0.39150  Biso   1.000  O
  C188     1.0000 0.30090  0.07940  0.42840  Biso   1.000  C
  O95      1.0000 0.17377  0.62457  0.71408  Biso   1.000  O
  C189     1.0000 0.22111  0.61371  0.76352  Biso   1.000  C
  H95      1.0000 0.19820  0.61580  0.76980  Biso   1.000  H
  C190     1.0000 0.34200  0.59033  0.88342  Biso   1.000  C
  C191     1.0000 0.24510  0.60800  0.78775  Biso   1.000  C
  H96      1.0000 0.23860  0.60600  0.81060  Biso   1.000  H
  O96      1.0000 0.30934  0.58780  0.89150  Biso   1.000  O
  C192     1.0000 0.30090  0.57940  0.92840  Biso   1.000  C
  O97      1.0000 0.17377  0.53592  0.62543  Biso   1.000  O
  C193     1.0000 0.22111  0.48648  0.63629  Biso   1.000  C
  H97      1.0000 0.19820  0.48020  0.63420  Biso   1.000  H
  C194     1.0000 0.34200  0.36658  0.65967  Biso   1.000  C
  C195     1.0000 0.24510  0.46225  0.64200  Biso   1.000  C
  H98      1.0000 0.23860  0.43940  0.64400  Biso   1.000  H
  O98      1.0000 0.30934  0.35850  0.66220  Biso   1.000  O
  C196     1.0000 0.30090  0.32160  0.67060  Biso   1.000  C
  O99      1.0000 0.17377  0.03592  0.12543  Biso   1.000  O
  C197     1.0000 0.22111  0.98648  0.13629  Biso   1.000  C
  H99      1.0000 0.19820  0.98020  0.13420  Biso   1.000  H
  C198     1.0000 0.34200  0.86658  0.15967  Biso   1.000  C
  C199     1.0000 0.24510  0.96225  0.14200  Biso   1.000  C
  H100     1.0000 0.23860  0.93940  0.14400  Biso   1.000  H
  O100     1.0000 0.30934  0.85850  0.16220  Biso   1.000  O
  C200     1.0000 0.30090  0.82160  0.17060  Biso   1.000  C
  O101     1.0000 0.67377  0.53592  0.12543  Biso   1.000  O
  C201     1.0000 0.72111  0.48648  0.13629  Biso   1.000  C
  H101     1.0000 0.69820  0.48020  0.13420  Biso   1.000  H
  C202     1.0000 0.84200  0.36658  0.15967  Biso   1.000  C
  C203     1.0000 0.74510  0.46225  0.14200  Biso   1.000  C
  H102     1.0000 0.73860  0.43940  0.14400  Biso   1.000  H
  O102     1.0000 0.80934  0.35850  0.16220  Biso   1.000  O
  C204     1.0000 0.80090  0.32160  0.17060  Biso   1.000  C
  O103     1.0000 0.67377  0.03592  0.62543  Biso   1.000  O
  C205     1.0000 0.72111  0.98648  0.63629  Biso   1.000  C
  H103     1.0000 0.69820  0.98020  0.63420  Biso   1.000  H
  C206     1.0000 0.84200  0.86658  0.65967  Biso   1.000  C
  C207     1.0000 0.74510  0.96225  0.64200  Biso   1.000  C
  H104     1.0000 0.73860  0.93940  0.64400  Biso   1.000  H
  O104     1.0000 0.80934  0.85850  0.66220  Biso   1.000  O
  C208     1.0000 0.80090  0.82160  0.67060  Biso   1.000  C
  O105     1.0000 0.07623  0.21408  0.12543  Biso   1.000  O
  C209     1.0000 0.02889  0.26352  0.13629  Biso   1.000  C
  H105     1.0000 0.05180  0.26980  0.13420  Biso   1.000  H
  C210     1.0000 0.90800  0.38342  0.15967  Biso   1.000  C
  C211     1.0000 0.00490  0.28775  0.14200  Biso   1.000  C
  H106     1.0000 0.01140  0.31060  0.14400  Biso   1.000  H
  O106     1.0000 0.94066  0.39150  0.16220  Biso   1.000  O
  C212     1.0000 0.94910  0.42840  0.17060  Biso   1.000  C
  O107     1.0000 0.07623  0.71408  0.62543  Biso   1.000  O
  C213     1.0000 0.02889  0.76352  0.63629  Biso   1.000  C
  H107     1.0000 0.05180  0.76980  0.63420  Biso   1.000  H
  C214     1.0000 0.90800  0.88342  0.65967  Biso   1.000  C
  C215     1.0000 0.00490  0.78775  0.64200  Biso   1.000  C
  H108     1.0000 0.01140  0.81060  0.64400  Biso   1.000  H
  O108     1.0000 0.94066  0.89150  0.66220  Biso   1.000  O
  C216     1.0000 0.94910  0.92840  0.67060  Biso   1.000  C
  O109     1.0000 0.57623  0.21408  0.62543  Biso   1.000  O
  C217     1.0000 0.52889  0.26352  0.63629  Biso   1.000  C
  H109     1.0000 0.55180  0.26980  0.63420  Biso   1.000  H
  C218     1.0000 0.40800  0.38342  0.65967  Biso   1.000  C
  C219     1.0000 0.50490  0.28775  0.64200  Biso   1.000  C
  H110     1.0000 0.51140  0.31060  0.64400  Biso   1.000  H
  O110     1.0000 0.44066  0.39150  0.66220  Biso   1.000  O
  C220     1.0000 0.44910  0.42840  0.67060  Biso   1.000  C
  O111     1.0000 0.57623  0.71408  0.12543  Biso   1.000  O
  C221     1.0000 0.52889  0.76352  0.13629  Biso   1.000  C
  H111     1.0000 0.55180  0.76980  0.13420  Biso   1.000  H
  C222     1.0000 0.40800  0.88342  0.15967  Biso   1.000  C
  C223     1.0000 0.50490  0.78775  0.14200  Biso   1.000  C
  H112     1.0000 0.51140  0.81060  0.14400  Biso   1.000  H
  O112     1.0000 0.44066  0.89150  0.16220  Biso   1.000  O
  C224     1.0000 0.44910  0.92840  0.17060  Biso   1.000  C
  O113     1.0000 0.67377  0.71408  0.12457  Biso   1.000  O
  C225     1.0000 0.72111  0.76352  0.11371  Biso   1.000  C
  H113     1.0000 0.69820  0.76980  0.11580  Biso   1.000  H
  C226     1.0000 0.84200  0.88342  0.09033  Biso   1.000  C
  C227     1.0000 0.74510  0.78775  0.10800  Biso   1.000  C
  H114     1.0000 0.73860  0.81060  0.10600  Biso   1.000  H
  O114     1.0000 0.80934  0.89150  0.08780  Biso   1.000  O
  C228     1.0000 0.80090  0.92840  0.07940  Biso   1.000  C
  O115     1.0000 0.67377  0.21408  0.62457  Biso   1.000  O
  C229     1.0000 0.72111  0.26352  0.61371  Biso   1.000  C
  H115     1.0000 0.69820  0.26980  0.61580  Biso   1.000  H
  C230     1.0000 0.84200  0.38342  0.59033  Biso   1.000  C
  C231     1.0000 0.74510  0.28775  0.60800  Biso   1.000  C
  H116     1.0000 0.73860  0.31060  0.60600  Biso   1.000  H
  O116     1.0000 0.80934  0.39150  0.58780  Biso   1.000  O
  C232     1.0000 0.80090  0.42840  0.57940  Biso   1.000  C
  O117     1.0000 0.17377  0.71408  0.62457  Biso   1.000  O
  C233     1.0000 0.22111  0.76352  0.61371  Biso   1.000  C
  H117     1.0000 0.19820  0.76980  0.61580  Biso   1.000  H
  C234     1.0000 0.34200  0.88342  0.59033  Biso   1.000  C
  C235     1.0000 0.24510  0.78775  0.60800  Biso   1.000  C
  H118     1.0000 0.23860  0.81060  0.60600  Biso   1.000  H
  O118     1.0000 0.30934  0.89150  0.58780  Biso   1.000  O
  C236     1.0000 0.30090  0.92840  0.57940  Biso   1.000  C
  O119     1.0000 0.17377  0.21408  0.12457  Biso   1.000  O
  C237     1.0000 0.22111  0.26352  0.11371  Biso   1.000  C
  H119     1.0000 0.19820  0.26980  0.11580  Biso   1.000  H
  C238     1.0000 0.34200  0.38342  0.09033  Biso   1.000  C
  C239     1.0000 0.24510  0.28775  0.10800  Biso   1.000  C
  H120     1.0000 0.23860  0.31060  0.10600  Biso   1.000  H
  O120     1.0000 0.30934  0.39150  0.08780  Biso   1.000  O
  C240     1.0000 0.30090  0.42840  0.07940  Biso   1.000  C
  O121     1.0000 0.57623  0.03592  0.62457  Biso   1.000  O
  C241     1.0000 0.52889  0.98648  0.61371  Biso   1.000  C
  H121     1.0000 0.55180  0.98020  0.61580  Biso   1.000  H
  C242     1.0000 0.40800  0.86658  0.59033  Biso   1.000  C
  C243     1.0000 0.50490  0.96225  0.60800  Biso   1.000  C
  H122     1.0000 0.51140  0.93940  0.60600  Biso   1.000  H
  O122     1.0000 0.44066  0.85850  0.58780  Biso   1.000  O
  C244     1.0000 0.44910  0.82160  0.57940  Biso   1.000  C
  O123     1.0000 0.57623  0.53592  0.12457  Biso   1.000  O
  C245     1.0000 0.52889  0.48648  0.11371  Biso   1.000  C
  H123     1.0000 0.55180  0.48020  0.11580  Biso   1.000  H
  C246     1.0000 0.40800  0.36658  0.09033  Biso   1.000  C
  C247     1.0000 0.50490  0.46225  0.10800  Biso   1.000  C
  H124     1.0000 0.51140  0.43940  0.10600  Biso   1.000  H
  O124     1.0000 0.44066  0.35850  0.08780  Biso   1.000  O
  C248     1.0000 0.44910  0.32160  0.07940  Biso   1.000  C
  O125     1.0000 0.07623  0.03592  0.12457  Biso   1.000  O
  C249     1.0000 0.02889  0.98648  0.11371  Biso   1.000  C
  H125     1.0000 0.05180  0.98020  0.11580  Biso   1.000  H
  C250     1.0000 0.90800  0.86658  0.09033  Biso   1.000  C
  C251     1.0000 0.00490  0.96225  0.10800  Biso   1.000  C
  H126     1.0000 0.01140  0.93940  0.10600  Biso   1.000  H
  O126     1.0000 0.94066  0.85850  0.08780  Biso   1.000  O
  C252     1.0000 0.94910  0.82160  0.07940  Biso   1.000  C
  O127     1.0000 0.07623  0.53592  0.62457  Biso   1.000  O
  C253     1.0000 0.02889  0.48648  0.61371  Biso   1.000  C
  H127     1.0000 0.05180  0.48020  0.61580  Biso   1.000  H
  C254     1.0000 0.90800  0.36658  0.59033  Biso   1.000  C
  C255     1.0000 0.00490  0.46225  0.60800  Biso   1.000  C
  H128     1.0000 0.01140  0.43940  0.60600  Biso   1.000  H
  O128     1.0000 0.94066  0.35850  0.58780  Biso   1.000  O
  C256     1.0000 0.94910  0.32160  0.57940  Biso   1.000  C
  O129     1.0000 0.03592  0.62457  0.57623  Biso   1.000  O
  C257     1.0000 0.98648  0.61371  0.52889  Biso   1.000  C
  H129     1.0000 0.98020  0.61580  0.55180  Biso   1.000  H
  C258     1.0000 0.86658  0.59033  0.40800  Biso   1.000  C
  C259     1.0000 0.96225  0.60800  0.50490  Biso   1.000  C
  H130     1.0000 0.93940  0.60600  0.51140  Biso   1.000  H
  O130     1.0000 0.85850  0.58780  0.44066  Biso   1.000  O
  C260     1.0000 0.82160  0.57940  0.44910  Biso   1.000  C
  O131     1.0000 0.03592  0.12457  0.07623  Biso   1.000  O
  C261     1.0000 0.98648  0.11371  0.02889  Biso   1.000  C
  H131     1.0000 0.98020  0.11580  0.05180  Biso   1.000  H
  C262     1.0000 0.86658  0.09033  0.90800  Biso   1.000  C
  C263     1.0000 0.96225  0.10800  0.00490  Biso   1.000  C
  H132     1.0000 0.93940  0.10600  0.01140  Biso   1.000  H
  O132     1.0000 0.85850  0.08780  0.94066  Biso   1.000  O
  C264     1.0000 0.82160  0.07940  0.94910  Biso   1.000  C
  O133     1.0000 0.53592  0.62457  0.07623  Biso   1.000  O
  C265     1.0000 0.48648  0.61371  0.02889  Biso   1.000  C
  H133     1.0000 0.48020  0.61580  0.05180  Biso   1.000  H
  C266     1.0000 0.36658  0.59033  0.90800  Biso   1.000  C
  C267     1.0000 0.46225  0.60800  0.00490  Biso   1.000  C
  H134     1.0000 0.43940  0.60600  0.01140  Biso   1.000  H
  O134     1.0000 0.35850  0.58780  0.94066  Biso   1.000  O
  C268     1.0000 0.32160  0.57940  0.94910  Biso   1.000  C
  O135     1.0000 0.53592  0.12457  0.57623  Biso   1.000  O
  C269     1.0000 0.48648  0.11371  0.52889  Biso   1.000  C
  H135     1.0000 0.48020  0.11580  0.55180  Biso   1.000  H
  C270     1.0000 0.36658  0.09033  0.40800  Biso   1.000  C
  C271     1.0000 0.46225  0.10800  0.50490  Biso   1.000  C
  H136     1.0000 0.43940  0.10600  0.51140  Biso   1.000  H
  O136     1.0000 0.35850  0.08780  0.44066  Biso   1.000  O
  C272     1.0000 0.32160  0.07940  0.44910  Biso   1.000  C
  O137     1.0000 0.71408  0.12457  0.67377  Biso   1.000  O
  C273     1.0000 0.76352  0.11371  0.72111  Biso   1.000  C
  H137     1.0000 0.76980  0.11580  0.69820  Biso   1.000  H
  C274     1.0000 0.88342  0.09033  0.84200  Biso   1.000  C
  C275     1.0000 0.78775  0.10800  0.74510  Biso   1.000  C
  H138     1.0000 0.81060  0.10600  0.73860  Biso   1.000  H
  O138     1.0000 0.89150  0.08780  0.80934  Biso   1.000  O
  C276     1.0000 0.92840  0.07940  0.80090  Biso   1.000  C
  O139     1.0000 0.71408  0.62457  0.17377  Biso   1.000  O
  C277     1.0000 0.76352  0.61371  0.22111  Biso   1.000  C
  H139     1.0000 0.76980  0.61580  0.19820  Biso   1.000  H
  C278     1.0000 0.88342  0.59033  0.34200  Biso   1.000  C
  C279     1.0000 0.78775  0.60800  0.24510  Biso   1.000  C
  H140     1.0000 0.81060  0.60600  0.23860  Biso   1.000  H
  O140     1.0000 0.89150  0.58780  0.30934  Biso   1.000  O
  C280     1.0000 0.92840  0.57940  0.30090  Biso   1.000  C
  O141     1.0000 0.21408  0.12457  0.17377  Biso   1.000  O
  C281     1.0000 0.26352  0.11371  0.22111  Biso   1.000  C
  H141     1.0000 0.26980  0.11580  0.19820  Biso   1.000  H
  C282     1.0000 0.38342  0.09033  0.34200  Biso   1.000  C
  C283     1.0000 0.28775  0.10800  0.24510  Biso   1.000  C
  H142     1.0000 0.31060  0.10600  0.23860  Biso   1.000  H
  O142     1.0000 0.39150  0.08780  0.30934  Biso   1.000  O
  C284     1.0000 0.42840  0.07940  0.30090  Biso   1.000  C
  O143     1.0000 0.21408  0.62457  0.67377  Biso   1.000  O
  C285     1.0000 0.26352  0.61371  0.72111  Biso   1.000  C
  H143     1.0000 0.26980  0.61580  0.69820  Biso   1.000  H
  C286     1.0000 0.38342  0.59033  0.84200  Biso   1.000  C
  C287     1.0000 0.28775  0.60800  0.74510  Biso   1.000  C
  H144     1.0000 0.31060  0.60600  0.73860  Biso   1.000  H
  O144     1.0000 0.39150  0.58780  0.80934  Biso   1.000  O
  C288     1.0000 0.42840  0.57940  0.80090  Biso   1.000  C
  O145     1.0000 0.21408  0.12543  0.07623  Biso   1.000  O
  C289     1.0000 0.26352  0.13629  0.02889  Biso   1.000  C
  H145     1.0000 0.26980  0.13420  0.05180  Biso   1.000  H
  C290     1.0000 0.38342  0.15967  0.90800  Biso   1.000  C
  C291     1.0000 0.28775  0.14200  0.00490  Biso   1.000  C
  H146     1.0000 0.31060  0.14400  0.01140  Biso   1.000  H
  O146     1.0000 0.39150  0.16220  0.94066  Biso   1.000  O
  C292     1.0000 0.42840  0.17060  0.94910  Biso   1.000  C
  O147     1.0000 0.21408  0.62543  0.57623  Biso   1.000  O
  C293     1.0000 0.26352  0.63629  0.52889  Biso   1.000  C
  H147     1.0000 0.26980  0.63420  0.55180  Biso   1.000  H
  C294     1.0000 0.38342  0.65967  0.40800  Biso   1.000  C
  C295     1.0000 0.28775  0.64200  0.50490  Biso   1.000  C
  H148     1.0000 0.31060  0.64400  0.51140  Biso   1.000  H
  O148     1.0000 0.39150  0.66220  0.44066  Biso   1.000  O
  C296     1.0000 0.42840  0.67060  0.44910  Biso   1.000  C
  O149     1.0000 0.71408  0.12543  0.57623  Biso   1.000  O
  C297     1.0000 0.76352  0.13629  0.52889  Biso   1.000  C
  H149     1.0000 0.76980  0.13420  0.55180  Biso   1.000  H
  C298     1.0000 0.88342  0.15967  0.40800  Biso   1.000  C
  C299     1.0000 0.78775  0.14200  0.50490  Biso   1.000  C
  H150     1.0000 0.81060  0.14400  0.51140  Biso   1.000  H
  O150     1.0000 0.89150  0.16220  0.44066  Biso   1.000  O
  C300     1.0000 0.92840  0.17060  0.44910  Biso   1.000  C
  O151     1.0000 0.71408  0.62543  0.07623  Biso   1.000  O
  C301     1.0000 0.76352  0.63629  0.02889  Biso   1.000  C
  H151     1.0000 0.76980  0.63420  0.05180  Biso   1.000  H
  C302     1.0000 0.88342  0.65967  0.90800  Biso   1.000  C
  C303     1.0000 0.78775  0.64200  0.00490  Biso   1.000  C
  H152     1.0000 0.81060  0.64400  0.01140  Biso   1.000  H
  O152     1.0000 0.89150  0.66220  0.94066  Biso   1.000  O
  C304     1.0000 0.92840  0.67060  0.94910  Biso   1.000  C
  O153     1.0000 0.53592  0.62543  0.17377  Biso   1.000  O
  C305     1.0000 0.48648  0.63629  0.22111  Biso   1.000  C
  H153     1.0000 0.48020  0.63420  0.19820  Biso   1.000  H
  C306     1.0000 0.36658  0.65967  0.34200  Biso   1.000  C
  C307     1.0000 0.46225  0.64200  0.24510  Biso   1.000  C
  H154     1.0000 0.43940  0.64400  0.23860  Biso   1.000  H
  O154     1.0000 0.35850  0.66220  0.30934  Biso   1.000  O
  C308     1.0000 0.32160  0.67060  0.30090  Biso   1.000  C
  O155     1.0000 0.53592  0.12543  0.67377  Biso   1.000  O
  C309     1.0000 0.48648  0.13629  0.72111  Biso   1.000  C
  H155     1.0000 0.48020  0.13420  0.69820  Biso   1.000  H
  C310     1.0000 0.36658  0.15967  0.84200  Biso   1.000  C
  C311     1.0000 0.46225  0.14200  0.74510  Biso   1.000  C
  H156     1.0000 0.43940  0.14400  0.73860  Biso   1.000  H
  O156     1.0000 0.35850  0.16220  0.80934  Biso   1.000  O
  C312     1.0000 0.32160  0.17060  0.80090  Biso   1.000  C
  O157     1.0000 0.03592  0.62543  0.67377  Biso   1.000  O
  C313     1.0000 0.98648  0.63629  0.72111  Biso   1.000  C
  H157     1.0000 0.98020  0.63420  0.69820  Biso   1.000  H
  C314     1.0000 0.86658  0.65967  0.84200  Biso   1.000  C
  C315     1.0000 0.96225  0.64200  0.74510  Biso   1.000  C
  H158     1.0000 0.93940  0.64400  0.73860  Biso   1.000  H
  O158     1.0000 0.85850  0.66220  0.80934  Biso   1.000  O
  C316     1.0000 0.82160  0.67060  0.80090  Biso   1.000  C
  O159     1.0000 0.03592  0.12543  0.17377  Biso   1.000  O
  C317     1.0000 0.98648  0.13629  0.22111  Biso   1.000  C
  H159     1.0000 0.98020  0.13420  0.19820  Biso   1.000  H
  C318     1.0000 0.86658  0.15967  0.34200  Biso   1.000  C
  C319     1.0000 0.96225  0.14200  0.24510  Biso   1.000  C
  H160     1.0000 0.93940  0.14400  0.23860  Biso   1.000  H
  O160     1.0000 0.85850  0.16220  0.30934  Biso   1.000  O
  C320     1.0000 0.82160  0.17060  0.30090  Biso   1.000  C
  O161     1.0000 0.12457  0.67377  0.71408  Biso   1.000  O
  C321     1.0000 0.11371  0.72111  0.76352  Biso   1.000  C
  H161     1.0000 0.11580  0.69820  0.76980  Biso   1.000  H
  C322     1.0000 0.09033  0.84200  0.88342  Biso   1.000  C
  C323     1.0000 0.10800  0.74510  0.78775  Biso   1.000  C
  H162     1.0000 0.10600  0.73860  0.81060  Biso   1.000  H
  O162     1.0000 0.08780  0.80934  0.89150  Biso   1.000  O
  C324     1.0000 0.07940  0.80090  0.92840  Biso   1.000  C
  O163     1.0000 0.12457  0.17377  0.21408  Biso   1.000  O
  C325     1.0000 0.11371  0.22111  0.26352  Biso   1.000  C
  H163     1.0000 0.11580  0.19820  0.26980  Biso   1.000  H
  C326     1.0000 0.09033  0.34200  0.38342  Biso   1.000  C
  C327     1.0000 0.10800  0.24510  0.28775  Biso   1.000  C
  H164     1.0000 0.10600  0.23860  0.31060  Biso   1.000  H
  O164     1.0000 0.08780  0.30934  0.39150  Biso   1.000  O
  C328     1.0000 0.07940  0.30090  0.42840  Biso   1.000  C
  O165     1.0000 0.62457  0.67377  0.21408  Biso   1.000  O
  C329     1.0000 0.61371  0.72111  0.26352  Biso   1.000  C
  H165     1.0000 0.61580  0.69820  0.26980  Biso   1.000  H
  C330     1.0000 0.59033  0.84200  0.38342  Biso   1.000  C
  C331     1.0000 0.60800  0.74510  0.28775  Biso   1.000  C
  H166     1.0000 0.60600  0.73860  0.31060  Biso   1.000  H
  O166     1.0000 0.58780  0.80934  0.39150  Biso   1.000  O
  C332     1.0000 0.57940  0.80090  0.42840  Biso   1.000  C
  O167     1.0000 0.62457  0.17377  0.71408  Biso   1.000  O
  C333     1.0000 0.61371  0.22111  0.76352  Biso   1.000  C
  H167     1.0000 0.61580  0.19820  0.76980  Biso   1.000  H
  C334     1.0000 0.59033  0.34200  0.88342  Biso   1.000  C
  C335     1.0000 0.60800  0.24510  0.78775  Biso   1.000  C
  H168     1.0000 0.60600  0.23860  0.81060  Biso   1.000  H
  O168     1.0000 0.58780  0.30934  0.89150  Biso   1.000  O
  C336     1.0000 0.57940  0.30090  0.92840  Biso   1.000  C
  O169     1.0000 0.62457  0.57623  0.03592  Biso   1.000  O
  C337     1.0000 0.61371  0.52889  0.98648  Biso   1.000  C
  H169     1.0000 0.61580  0.55180  0.98020  Biso   1.000  H
  C338     1.0000 0.59033  0.40800  0.86658  Biso   1.000  C
  C339     1.0000 0.60800  0.50490  0.96225  Biso   1.000  C
  H170     1.0000 0.60600  0.51140  0.93940  Biso   1.000  H
  O170     1.0000 0.58780  0.44066  0.85850  Biso   1.000  O
  C340     1.0000 0.57940  0.44910  0.82160  Biso   1.000  C
  O171     1.0000 0.62457  0.07623  0.53592  Biso   1.000  O
  C341     1.0000 0.61371  0.02889  0.48648  Biso   1.000  C
  H171     1.0000 0.61580  0.05180  0.48020  Biso   1.000  H
  C342     1.0000 0.59033  0.90800  0.36658  Biso   1.000  C
  C343     1.0000 0.60800  0.00490  0.46225  Biso   1.000  C
  H172     1.0000 0.60600  0.01140  0.43940  Biso   1.000  H
  O172     1.0000 0.58780  0.94066  0.35850  Biso   1.000  O
  C344     1.0000 0.57940  0.94910  0.32160  Biso   1.000  C
  O173     1.0000 0.12457  0.57623  0.53592  Biso   1.000  O
  C345     1.0000 0.11371  0.52889  0.48648  Biso   1.000  C
  H173     1.0000 0.11580  0.55180  0.48020  Biso   1.000  H
  C346     1.0000 0.09033  0.40800  0.36658  Biso   1.000  C
  C347     1.0000 0.10800  0.50490  0.46225  Biso   1.000  C
  H174     1.0000 0.10600  0.51140  0.43940  Biso   1.000  H
  O174     1.0000 0.08780  0.44066  0.35850  Biso   1.000  O
  C348     1.0000 0.07940  0.44910  0.32160  Biso   1.000  C
  O175     1.0000 0.12457  0.07623  0.03592  Biso   1.000  O
  C349     1.0000 0.11371  0.02889  0.98648  Biso   1.000  C
  H175     1.0000 0.11580  0.05180  0.98020  Biso   1.000  H
  C350     1.0000 0.09033  0.90800  0.86658  Biso   1.000  C
  C351     1.0000 0.10800  0.00490  0.96225  Biso   1.000  C
  H176     1.0000 0.10600  0.01140  0.93940  Biso   1.000  H
  O176     1.0000 0.08780  0.94066  0.85850  Biso   1.000  O
  C352     1.0000 0.07940  0.94910  0.82160  Biso   1.000  C
  O177     1.0000 0.62543  0.17377  0.53592  Biso   1.000  O
  C353     1.0000 0.63629  0.22111  0.48648  Biso   1.000  C
  H177     1.0000 0.63420  0.19820  0.48020  Biso   1.000  H
  C354     1.0000 0.65967  0.34200  0.36658  Biso   1.000  C
  C355     1.0000 0.64200  0.24510  0.46225  Biso   1.000  C
  H178     1.0000 0.64400  0.23860  0.43940  Biso   1.000  H
  O178     1.0000 0.66220  0.30934  0.35850  Biso   1.000  O
  C356     1.0000 0.67060  0.30090  0.32160  Biso   1.000  C
  O179     1.0000 0.62543  0.67377  0.03592  Biso   1.000  O
  C357     1.0000 0.63629  0.72111  0.98648  Biso   1.000  C
  H179     1.0000 0.63420  0.69820  0.98020  Biso   1.000  H
  C358     1.0000 0.65967  0.84200  0.86658  Biso   1.000  C
  C359     1.0000 0.64200  0.74510  0.96225  Biso   1.000  C
  H180     1.0000 0.64400  0.73860  0.93940  Biso   1.000  H
  O180     1.0000 0.66220  0.80934  0.85850  Biso   1.000  O
  C360     1.0000 0.67060  0.80090  0.82160  Biso   1.000  C
  O181     1.0000 0.12543  0.17377  0.03592  Biso   1.000  O
  C361     1.0000 0.13629  0.22111  0.98648  Biso   1.000  C
  H181     1.0000 0.13420  0.19820  0.98020  Biso   1.000  H
  C362     1.0000 0.15967  0.34200  0.86658  Biso   1.000  C
  C363     1.0000 0.14200  0.24510  0.96225  Biso   1.000  C
  H182     1.0000 0.14400  0.23860  0.93940  Biso   1.000  H
  O182     1.0000 0.16220  0.30934  0.85850  Biso   1.000  O
  C364     1.0000 0.17060  0.30090  0.82160  Biso   1.000  C
  O183     1.0000 0.12543  0.67377  0.53592  Biso   1.000  O
  C365     1.0000 0.13629  0.72111  0.48648  Biso   1.000  C
  H183     1.0000 0.13420  0.69820  0.48020  Biso   1.000  H
  C366     1.0000 0.15967  0.84200  0.36658  Biso   1.000  C
  C367     1.0000 0.14200  0.74510  0.46225  Biso   1.000  C
  H184     1.0000 0.14400  0.73860  0.43940  Biso   1.000  H
  O184     1.0000 0.16220  0.80934  0.35850  Biso   1.000  O
  C368     1.0000 0.17060  0.80090  0.32160  Biso   1.000  C
  O185     1.0000 0.12543  0.07623  0.21408  Biso   1.000  O
  C369     1.0000 0.13629  0.02889  0.26352  Biso   1.000  C
  H185     1.0000 0.13420  0.05180  0.26980  Biso   1.000  H
  C370     1.0000 0.15967  0.90800  0.38342  Biso   1.000  C
  C371     1.0000 0.14200  0.00490  0.28775  Biso   1.000  C
  H186     1.0000 0.14400  0.01140  0.31060  Biso   1.000  H
  O186     1.0000 0.16220  0.94066  0.39150  Biso   1.000  O
  C372     1.0000 0.17060  0.94910  0.42840  Biso   1.000  C
  O187     1.0000 0.12543  0.57623  0.71408  Biso   1.000  O
  C373     1.0000 0.13629  0.52889  0.76352  Biso   1.000  C
  H187     1.0000 0.13420  0.55180  0.76980  Biso   1.000  H
  C374     1.0000 0.15967  0.40800  0.88342  Biso   1.000  C
  C375     1.0000 0.14200  0.50490  0.78775  Biso   1.000  C
  H188     1.0000 0.14400  0.51140  0.81060  Biso   1.000  H
  O188     1.0000 0.16220  0.44066  0.89150  Biso   1.000  O
  C376     1.0000 0.17060  0.44910  0.92840  Biso   1.000  C
  O189     1.0000 0.62543  0.07623  0.71408  Biso   1.000  O
  C377     1.0000 0.63629  0.02889  0.76352  Biso   1.000  C
  H189     1.0000 0.63420  0.05180  0.76980  Biso   1.000  H
  C378     1.0000 0.65967  0.90800  0.88342  Biso   1.000  C
  C379     1.0000 0.64200  0.00490  0.78775  Biso   1.000  C
  H190     1.0000 0.64400  0.01140  0.81060  Biso   1.000  H
  O190     1.0000 0.66220  0.94066  0.89150  Biso   1.000  O
  C380     1.0000 0.67060  0.94910  0.92840  Biso   1.000  C
  O191     1.0000 0.62543  0.57623  0.21408  Biso   1.000  O
  C381     1.0000 0.63629  0.52889  0.26352  Biso   1.000  C
  H191     1.0000 0.63420  0.55180  0.26980  Biso   1.000  H
  C382     1.0000 0.65967  0.40800  0.38342  Biso   1.000  C
  C383     1.0000 0.64200  0.50490  0.28775  Biso   1.000  C
  H192     1.0000 0.64400  0.51140  0.31060  Biso   1.000  H
  O192     1.0000 0.66220  0.44066  0.39150  Biso   1.000  O
  C384     1.0000 0.67060  0.44910  0.42840  Biso   1.000  C
  Zr1      1.0000 0.18716  0.12500  0.12500  Biso   1.000  Zr
  Zr2      1.0000 0.18716  0.62500  0.62500  Biso   1.000  Zr
  Zr3      1.0000 0.68716  0.12500  0.62500  Biso   1.000  Zr
  Zr4      1.0000 0.68716  0.62500  0.12500  Biso   1.000  Zr
  Zr5      1.0000 0.56284  0.12500  0.62500  Biso   1.000  Zr
  Zr6      1.0000 0.06284  0.62500  0.62500  Biso   1.000  Zr
  Zr7      1.0000 0.06284  0.12500  0.12500  Biso   1.000  Zr
  Zr8      1.0000 0.12500  0.18716  0.12500  Biso   1.000  Zr
  Zr9      1.0000 0.12500  0.68716  0.62500  Biso   1.000  Zr
  Zr10     1.0000 0.62500  0.68716  0.12500  Biso   1.000  Zr
  Zr11     1.0000 0.62500  0.56284  0.12500  Biso   1.000  Zr
  Zr12     1.0000 0.62500  0.06284  0.62500  Biso   1.000  Zr
  Zr13     1.0000 0.62500  0.18716  0.62500  Biso   1.000  Zr
  Zr14     1.0000 0.12500  0.12500  0.18716  Biso   1.000  Zr
  Zr15     1.0000 0.12500  0.62500  0.68716  Biso   1.000  Zr
  Zr16     1.0000 0.62500  0.12500  0.68716  Biso   1.000  Zr
  Zr17     1.0000 0.12500  0.62500  0.56284  Biso   1.000  Zr
  Zr18     1.0000 0.12500  0.12500  0.06284  Biso   1.000  Zr
  Zr19     1.0000 0.62500  0.62500  0.06284  Biso   1.000  Zr
  Zr20     1.0000 0.62500  0.62500  0.18716  Biso   1.000  Zr
  Zr21     1.0000 0.12500  0.56284  0.62500  Biso   1.000  Zr
  Zr22     1.0000 0.12500  0.06284  0.12500  Biso   1.000  Zr
  Zr23     1.0000 0.56284  0.62500  0.12500  Biso   1.000  Zr
  Zr24     1.0000 0.62500  0.12500  0.56284  Biso   1.000  Zr
  C385     1.0000 0.20385  0.04615  0.12776  Biso   1.000  C
  C386     1.0000 0.23016  0.01984  0.13355  Biso   1.000  C
  C387     1.0000 0.35029  0.89971  0.15738  Biso   1.000  C
  C388     1.0000 0.27880  0.97120  0.14482  Biso   1.000  C
  C389     1.0000 0.30412  0.94588  0.15041  Biso   1.000  C
  C390     1.0000 0.32495  0.92505  0.15477  Biso   1.000  C
  C391     1.0000 0.20385  0.54615  0.62776  Biso   1.000  C
  C392     1.0000 0.23016  0.51984  0.63355  Biso   1.000  C
  C393     1.0000 0.35029  0.39971  0.65738  Biso   1.000  C
  C394     1.0000 0.27880  0.47120  0.64482  Biso   1.000  C
  C395     1.0000 0.30412  0.44588  0.65041  Biso   1.000  C
  C396     1.0000 0.32495  0.42505  0.65477  Biso   1.000  C
  C397     1.0000 0.70385  0.04615  0.62776  Biso   1.000  C
  C398     1.0000 0.73016  0.01984  0.63355  Biso   1.000  C
  C399     1.0000 0.85029  0.89971  0.65738  Biso   1.000  C
  C400     1.0000 0.77880  0.97120  0.64482  Biso   1.000  C
  C401     1.0000 0.80412  0.94588  0.65041  Biso   1.000  C
  C402     1.0000 0.82495  0.92505  0.65477  Biso   1.000  C
  C403     1.0000 0.54615  0.20385  0.62776  Biso   1.000  C
  C404     1.0000 0.51984  0.23016  0.63355  Biso   1.000  C
  C405     1.0000 0.39971  0.35029  0.65738  Biso   1.000  C
  C406     1.0000 0.47120  0.27880  0.64482  Biso   1.000  C
  C407     1.0000 0.44588  0.30412  0.65041  Biso   1.000  C
  C408     1.0000 0.42505  0.32495  0.65477  Biso   1.000  C
  C409     1.0000 0.54615  0.70385  0.12776  Biso   1.000  C
  C410     1.0000 0.51984  0.73016  0.13355  Biso   1.000  C
  C411     1.0000 0.39971  0.85029  0.15738  Biso   1.000  C
  C412     1.0000 0.47120  0.77880  0.14482  Biso   1.000  C
  C413     1.0000 0.44588  0.80412  0.15041  Biso   1.000  C
  C414     1.0000 0.42505  0.82495  0.15477  Biso   1.000  C
  C415     1.0000 0.04615  0.54615  0.62224  Biso   1.000  C
  C416     1.0000 0.01984  0.51984  0.61645  Biso   1.000  C
  C417     1.0000 0.89971  0.39971  0.59262  Biso   1.000  C
  C418     1.0000 0.97120  0.47120  0.60518  Biso   1.000  C
  C419     1.0000 0.94588  0.44588  0.59959  Biso   1.000  C
  C420     1.0000 0.92505  0.42505  0.59523  Biso   1.000  C
  C421     1.0000 0.04615  0.04615  0.12224  Biso   1.000  C
  C422     1.0000 0.01984  0.01984  0.11645  Biso   1.000  C
  C423     1.0000 0.89971  0.89971  0.09262  Biso   1.000  C
  C424     1.0000 0.97120  0.97120  0.10518  Biso   1.000  C
  C425     1.0000 0.94588  0.94588  0.09959  Biso   1.000  C
  C426     1.0000 0.92505  0.92505  0.09523  Biso   1.000  C
  C427     1.0000 0.54615  0.54615  0.12224  Biso   1.000  C
  C428     1.0000 0.51984  0.51984  0.11645  Biso   1.000  C
  C429     1.0000 0.39971  0.39971  0.09262  Biso   1.000  C
  C430     1.0000 0.47120  0.47120  0.10518  Biso   1.000  C
  C431     1.0000 0.44588  0.44588  0.09959  Biso   1.000  C
  C432     1.0000 0.42505  0.42505  0.09523  Biso   1.000  C
  C433     1.0000 0.70385  0.70385  0.12224  Biso   1.000  C
  C434     1.0000 0.73016  0.73016  0.11645  Biso   1.000  C
  C435     1.0000 0.85029  0.85029  0.09262  Biso   1.000  C
  C436     1.0000 0.77880  0.77880  0.10518  Biso   1.000  C
  C437     1.0000 0.80412  0.80412  0.09959  Biso   1.000  C
  C438     1.0000 0.82495  0.82495  0.09523  Biso   1.000  C
  C439     1.0000 0.70385  0.20385  0.62224  Biso   1.000  C
  C440     1.0000 0.73016  0.23016  0.61645  Biso   1.000  C
  C441     1.0000 0.85029  0.35029  0.59262  Biso   1.000  C
  C442     1.0000 0.77880  0.27880  0.60518  Biso   1.000  C
  C443     1.0000 0.80412  0.30412  0.59959  Biso   1.000  C
  C444     1.0000 0.82495  0.32495  0.59523  Biso   1.000  C
  C445     1.0000 0.20385  0.70385  0.62224  Biso   1.000  C
  C446     1.0000 0.23016  0.73016  0.61645  Biso   1.000  C
  C447     1.0000 0.35029  0.85029  0.59262  Biso   1.000  C
  C448     1.0000 0.27880  0.77880  0.60518  Biso   1.000  C
  C449     1.0000 0.30412  0.80412  0.59959  Biso   1.000  C
  C450     1.0000 0.32495  0.82495  0.59523  Biso   1.000  C
  C451     1.0000 0.20385  0.20385  0.12224  Biso   1.000  C
  C452     1.0000 0.23016  0.23016  0.11645  Biso   1.000  C
  C453     1.0000 0.35029  0.35029  0.09262  Biso   1.000  C
  C454     1.0000 0.27880  0.27880  0.10518  Biso   1.000  C
  C455     1.0000 0.30412  0.30412  0.09959  Biso   1.000  C
  C456     1.0000 0.32495  0.32495  0.09523  Biso   1.000  C
  C457     1.0000 0.12776  0.20385  0.04615  Biso   1.000  C
  C458     1.0000 0.13355  0.23016  0.01984  Biso   1.000  C
  C459     1.0000 0.15738  0.35029  0.89971  Biso   1.000  C
  C460     1.0000 0.14482  0.27880  0.97120  Biso   1.000  C
  C461     1.0000 0.15041  0.30412  0.94588  Biso   1.000  C
  C462     1.0000 0.15477  0.32495  0.92505  Biso   1.000  C
  C463     1.0000 0.12776  0.70385  0.54615  Biso   1.000  C
  C464     1.0000 0.13355  0.73016  0.51984  Biso   1.000  C
  C465     1.0000 0.15738  0.85029  0.39971  Biso   1.000  C
  C466     1.0000 0.14482  0.77880  0.47120  Biso   1.000  C
  C467     1.0000 0.15041  0.80412  0.44588  Biso   1.000  C
  C468     1.0000 0.15477  0.82495  0.42505  Biso   1.000  C
  C469     1.0000 0.62776  0.20385  0.54615  Biso   1.000  C
  C470     1.0000 0.63355  0.23016  0.51984  Biso   1.000  C
  C471     1.0000 0.65738  0.35029  0.39971  Biso   1.000  C
  C472     1.0000 0.64482  0.27880  0.47120  Biso   1.000  C
  C473     1.0000 0.65041  0.30412  0.44588  Biso   1.000  C
  C474     1.0000 0.65477  0.32495  0.42505  Biso   1.000  C
  C475     1.0000 0.62776  0.54615  0.20385  Biso   1.000  C
  C476     1.0000 0.63355  0.51984  0.23016  Biso   1.000  C
  C477     1.0000 0.65738  0.39971  0.35029  Biso   1.000  C
  C478     1.0000 0.64482  0.47120  0.27880  Biso   1.000  C
  C479     1.0000 0.65041  0.44588  0.30412  Biso   1.000  C
  C480     1.0000 0.65477  0.42505  0.32495  Biso   1.000  C
  C481     1.0000 0.62776  0.04615  0.70385  Biso   1.000  C
  C482     1.0000 0.63355  0.01984  0.73016  Biso   1.000  C
  C483     1.0000 0.65738  0.89971  0.85029  Biso   1.000  C
  C484     1.0000 0.64482  0.97120  0.77880  Biso   1.000  C
  C485     1.0000 0.65041  0.94588  0.80412  Biso   1.000  C
  C486     1.0000 0.65477  0.92505  0.82495  Biso   1.000  C
  C487     1.0000 0.62224  0.04615  0.54615  Biso   1.000  C
  C488     1.0000 0.61645  0.01984  0.51984  Biso   1.000  C
  C489     1.0000 0.59262  0.89971  0.39971  Biso   1.000  C
  C490     1.0000 0.60518  0.97120  0.47120  Biso   1.000  C
  C491     1.0000 0.59959  0.94588  0.44588  Biso   1.000  C
  C492     1.0000 0.59523  0.92505  0.42505  Biso   1.000  C
  C493     1.0000 0.12224  0.04615  0.04615  Biso   1.000  C
  C494     1.0000 0.11645  0.01984  0.01984  Biso   1.000  C
  C495     1.0000 0.09262  0.89971  0.89971  Biso   1.000  C
  C496     1.0000 0.10518  0.97120  0.97120  Biso   1.000  C
  C497     1.0000 0.09959  0.94588  0.94588  Biso   1.000  C
  C498     1.0000 0.09523  0.92505  0.92505  Biso   1.000  C
  C499     1.0000 0.12224  0.54615  0.54615  Biso   1.000  C
  C500     1.0000 0.11645  0.51984  0.51984  Biso   1.000  C
  C501     1.0000 0.09262  0.39971  0.39971  Biso   1.000  C
  C502     1.0000 0.10518  0.47120  0.47120  Biso   1.000  C
  C503     1.0000 0.09959  0.44588  0.44588  Biso   1.000  C
  C504     1.0000 0.09523  0.42505  0.42505  Biso   1.000  C
  C505     1.0000 0.12224  0.70385  0.70385  Biso   1.000  C
  C506     1.0000 0.11645  0.73016  0.73016  Biso   1.000  C
  C507     1.0000 0.09262  0.85029  0.85029  Biso   1.000  C
  C508     1.0000 0.10518  0.77880  0.77880  Biso   1.000  C
  C509     1.0000 0.09959  0.80412  0.80412  Biso   1.000  C
  C510     1.0000 0.09523  0.82495  0.82495  Biso   1.000  C
  C511     1.0000 0.12224  0.20385  0.20385  Biso   1.000  C
  C512     1.0000 0.11645  0.23016  0.23016  Biso   1.000  C
  C513     1.0000 0.09262  0.35029  0.35029  Biso   1.000  C
  C514     1.0000 0.10518  0.27880  0.27880  Biso   1.000  C
  C515     1.0000 0.09959  0.30412  0.30412  Biso   1.000  C
  C516     1.0000 0.09523  0.32495  0.32495  Biso   1.000  C
  C517     1.0000 0.62224  0.70385  0.20385  Biso   1.000  C
  C518     1.0000 0.61645  0.73016  0.23016  Biso   1.000  C
  C519     1.0000 0.59262  0.85029  0.35029  Biso   1.000  C
  C520     1.0000 0.60518  0.77880  0.27880  Biso   1.000  C
  C521     1.0000 0.59959  0.80412  0.30412  Biso   1.000  C
  C522     1.0000 0.59523  0.82495  0.32495  Biso   1.000  C
  C523     1.0000 0.62224  0.20385  0.70385  Biso   1.000  C
  C524     1.0000 0.61645  0.23016  0.73016  Biso   1.000  C
  C525     1.0000 0.59262  0.35029  0.85029  Biso   1.000  C
  C526     1.0000 0.60518  0.27880  0.77880  Biso   1.000  C
  C527     1.0000 0.59959  0.30412  0.80412  Biso   1.000  C
  C528     1.0000 0.59523  0.32495  0.82495  Biso   1.000  C
  C529     1.0000 0.04615  0.12776  0.20385  Biso   1.000  C
  C530     1.0000 0.01984  0.13355  0.23016  Biso   1.000  C
  C531     1.0000 0.89971  0.15738  0.35029  Biso   1.000  C
  C532     1.0000 0.97120  0.14482  0.27880  Biso   1.000  C
  C533     1.0000 0.94588  0.15041  0.30412  Biso   1.000  C
  C534     1.0000 0.92505  0.15477  0.32495  Biso   1.000  C
  C535     1.0000 0.04615  0.62776  0.70385  Biso   1.000  C
  C536     1.0000 0.01984  0.63355  0.73016  Biso   1.000  C
  C537     1.0000 0.89971  0.65738  0.85029  Biso   1.000  C
  C538     1.0000 0.97120  0.64482  0.77880  Biso   1.000  C
  C539     1.0000 0.94588  0.65041  0.80412  Biso   1.000  C
  C540     1.0000 0.92505  0.65477  0.82495  Biso   1.000  C
  C541     1.0000 0.54615  0.62776  0.20385  Biso   1.000  C
  C542     1.0000 0.51984  0.63355  0.23016  Biso   1.000  C
  C543     1.0000 0.39971  0.65738  0.35029  Biso   1.000  C
  C544     1.0000 0.47120  0.64482  0.27880  Biso   1.000  C
  C545     1.0000 0.44588  0.65041  0.30412  Biso   1.000  C
  C546     1.0000 0.42505  0.65477  0.32495  Biso   1.000  C
  C547     1.0000 0.20385  0.62776  0.54615  Biso   1.000  C
  C548     1.0000 0.23016  0.63355  0.51984  Biso   1.000  C
  C549     1.0000 0.35029  0.65738  0.39971  Biso   1.000  C
  C550     1.0000 0.27880  0.64482  0.47120  Biso   1.000  C
  C551     1.0000 0.30412  0.65041  0.44588  Biso   1.000  C
  C552     1.0000 0.32495  0.65477  0.42505  Biso   1.000  C
  C553     1.0000 0.70385  0.62776  0.04615  Biso   1.000  C
  C554     1.0000 0.73016  0.63355  0.01984  Biso   1.000  C
  C555     1.0000 0.85029  0.65738  0.89971  Biso   1.000  C
  C556     1.0000 0.77880  0.64482  0.97120  Biso   1.000  C
  C557     1.0000 0.80412  0.65041  0.94588  Biso   1.000  C
  C558     1.0000 0.82495  0.65477  0.92505  Biso   1.000  C
  C559     1.0000 0.54615  0.62224  0.04615  Biso   1.000  C
  C560     1.0000 0.51984  0.61645  0.01984  Biso   1.000  C
  C561     1.0000 0.39971  0.59262  0.89971  Biso   1.000  C
  C562     1.0000 0.47120  0.60518  0.97120  Biso   1.000  C
  C563     1.0000 0.44588  0.59959  0.94588  Biso   1.000  C
  C564     1.0000 0.42505  0.59523  0.92505  Biso   1.000  C
  C565     1.0000 0.54615  0.12224  0.54615  Biso   1.000  C
  C566     1.0000 0.51984  0.11645  0.51984  Biso   1.000  C
  C567     1.0000 0.39971  0.09262  0.39971  Biso   1.000  C
  C568     1.0000 0.47120  0.10518  0.47120  Biso   1.000  C
  C569     1.0000 0.44588  0.09959  0.44588  Biso   1.000  C
  C570     1.0000 0.42505  0.09523  0.42505  Biso   1.000  C
  C571     1.0000 0.70385  0.12224  0.70385  Biso   1.000  C
  C572     1.0000 0.73016  0.11645  0.73016  Biso   1.000  C
  C573     1.0000 0.85029  0.09262  0.85029  Biso   1.000  C
  C574     1.0000 0.77880  0.10518  0.77880  Biso   1.000  C
  C575     1.0000 0.80412  0.09959  0.80412  Biso   1.000  C
  C576     1.0000 0.82495  0.09523  0.82495  Biso   1.000  C
  C577     1.0000 0.70385  0.62224  0.20385  Biso   1.000  C
  C578     1.0000 0.73016  0.61645  0.23016  Biso   1.000  C
  C579     1.0000 0.85029  0.59262  0.35029  Biso   1.000  C
  C580     1.0000 0.77880  0.60518  0.27880  Biso   1.000  C
  C581     1.0000 0.80412  0.59959  0.30412  Biso   1.000  C
  C582     1.0000 0.82495  0.59523  0.32495  Biso   1.000  C
  C583     1.0000 0.20385  0.12224  0.20385  Biso   1.000  C
  C584     1.0000 0.23016  0.11645  0.23016  Biso   1.000  C
  C585     1.0000 0.35029  0.09262  0.35029  Biso   1.000  C
  C586     1.0000 0.27880  0.10518  0.27880  Biso   1.000  C
  C587     1.0000 0.30412  0.09959  0.30412  Biso   1.000  C
  C588     1.0000 0.32495  0.09523  0.32495  Biso   1.000  C
  C589     1.0000 0.20385  0.62224  0.70385  Biso   1.000  C
  C590     1.0000 0.23016  0.61645  0.73016  Biso   1.000  C
  C591     1.0000 0.35029  0.59262  0.85029  Biso   1.000  C
  C592     1.0000 0.27880  0.60518  0.77880  Biso   1.000  C
  C593     1.0000 0.30412  0.59959  0.80412  Biso   1.000  C
  C594     1.0000 0.32495  0.59523  0.82495  Biso   1.000  C
  C595     1.0000 0.70385  0.54615  0.12776  Biso   1.000  C
  C596     1.0000 0.73016  0.51984  0.13355  Biso   1.000  C
  C597     1.0000 0.85029  0.39971  0.15738  Biso   1.000  C
  C598     1.0000 0.77880  0.47120  0.14482  Biso   1.000  C
  C599     1.0000 0.80412  0.44588  0.15041  Biso   1.000  C
  C600     1.0000 0.82495  0.42505  0.15477  Biso   1.000  C
  C601     1.0000 0.04615  0.20385  0.12776  Biso   1.000  C
  C602     1.0000 0.01984  0.23016  0.13355  Biso   1.000  C
  C603     1.0000 0.89971  0.35029  0.15738  Biso   1.000  C
  C604     1.0000 0.97120  0.27880  0.14482  Biso   1.000  C
  C605     1.0000 0.94588  0.30412  0.15041  Biso   1.000  C
  C606     1.0000 0.92505  0.32495  0.15477  Biso   1.000  C
  C607     1.0000 0.04615  0.70385  0.62776  Biso   1.000  C
  C608     1.0000 0.01984  0.73016  0.63355  Biso   1.000  C
  C609     1.0000 0.89971  0.85029  0.65738  Biso   1.000  C
  C610     1.0000 0.97120  0.77880  0.64482  Biso   1.000  C
  C611     1.0000 0.94588  0.80412  0.65041  Biso   1.000  C
  C612     1.0000 0.92505  0.82495  0.65477  Biso   1.000  C
  C613     1.0000 0.54615  0.04615  0.62224  Biso   1.000  C
  C614     1.0000 0.51984  0.01984  0.61645  Biso   1.000  C
  C615     1.0000 0.39971  0.89971  0.59262  Biso   1.000  C
  C616     1.0000 0.47120  0.97120  0.60518  Biso   1.000  C
  C617     1.0000 0.44588  0.94588  0.59959  Biso   1.000  C
  C618     1.0000 0.42505  0.92505  0.59523  Biso   1.000  C
  C619     1.0000 0.04615  0.62224  0.54615  Biso   1.000  C
  C620     1.0000 0.01984  0.61645  0.51984  Biso   1.000  C
  C621     1.0000 0.89971  0.59262  0.39971  Biso   1.000  C
  C622     1.0000 0.97120  0.60518  0.47120  Biso   1.000  C
  C623     1.0000 0.94588  0.59959  0.44588  Biso   1.000  C
  C624     1.0000 0.92505  0.59523  0.42505  Biso   1.000  C
  C625     1.0000 0.04615  0.12224  0.04615  Biso   1.000  C
  C626     1.0000 0.01984  0.11645  0.01984  Biso   1.000  C
  C627     1.0000 0.89971  0.09262  0.89971  Biso   1.000  C
  C628     1.0000 0.97120  0.10518  0.97120  Biso   1.000  C
  C629     1.0000 0.94588  0.09959  0.94588  Biso   1.000  C
  C630     1.0000 0.92505  0.09523  0.92505  Biso   1.000  C
  C631     1.0000 0.20385  0.12776  0.04615  Biso   1.000  C
  C632     1.0000 0.23016  0.13355  0.01984  Biso   1.000  C
  C633     1.0000 0.35029  0.15738  0.89971  Biso   1.000  C
  C634     1.0000 0.27880  0.14482  0.97120  Biso   1.000  C
  C635     1.0000 0.30412  0.15041  0.94588  Biso   1.000  C
  C636     1.0000 0.32495  0.15477  0.92505  Biso   1.000  C
  C637     1.0000 0.70385  0.12776  0.54615  Biso   1.000  C
  C638     1.0000 0.73016  0.13355  0.51984  Biso   1.000  C
  C639     1.0000 0.85029  0.15738  0.39971  Biso   1.000  C
  C640     1.0000 0.77880  0.14482  0.47120  Biso   1.000  C
  C641     1.0000 0.80412  0.15041  0.44588  Biso   1.000  C
  C642     1.0000 0.82495  0.15477  0.42505  Biso   1.000  C
  C643     1.0000 0.54615  0.12776  0.70385  Biso   1.000  C
  C644     1.0000 0.51984  0.13355  0.73016  Biso   1.000  C
  C645     1.0000 0.39971  0.15738  0.85029  Biso   1.000  C
  C646     1.0000 0.47120  0.14482  0.77880  Biso   1.000  C
  C647     1.0000 0.44588  0.15041  0.80412  Biso   1.000  C
  C648     1.0000 0.42505  0.15477  0.82495  Biso   1.000  C
  C649     1.0000 0.62224  0.54615  0.04615  Biso   1.000  C
  C650     1.0000 0.61645  0.51984  0.01984  Biso   1.000  C
  C651     1.0000 0.59262  0.39971  0.89971  Biso   1.000  C
  C652     1.0000 0.60518  0.47120  0.97120  Biso   1.000  C
  C653     1.0000 0.59959  0.44588  0.94588  Biso   1.000  C
  C654     1.0000 0.59523  0.42505  0.92505  Biso   1.000  C
  C655     1.0000 0.62776  0.70385  0.04615  Biso   1.000  C
  C656     1.0000 0.63355  0.73016  0.01984  Biso   1.000  C
  C657     1.0000 0.65738  0.85029  0.89971  Biso   1.000  C
  C658     1.0000 0.64482  0.77880  0.97120  Biso   1.000  C
  C659     1.0000 0.65041  0.80412  0.94588  Biso   1.000  C
  C660     1.0000 0.65477  0.82495  0.92505  Biso   1.000  C
  C661     1.0000 0.12776  0.04615  0.20385  Biso   1.000  C
  C662     1.0000 0.13355  0.01984  0.23016  Biso   1.000  C
  C663     1.0000 0.15738  0.89971  0.35029  Biso   1.000  C
  C664     1.0000 0.14482  0.97120  0.27880  Biso   1.000  C
  C665     1.0000 0.15041  0.94588  0.30412  Biso   1.000  C
  C666     1.0000 0.15477  0.92505  0.32495  Biso   1.000  C
  C667     1.0000 0.12776  0.54615  0.70385  Biso   1.000  C
  C668     1.0000 0.13355  0.51984  0.73016  Biso   1.000  C
  C669     1.0000 0.15738  0.39971  0.85029  Biso   1.000  C
  C670     1.0000 0.14482  0.47120  0.77880  Biso   1.000  C
  C671     1.0000 0.15041  0.44588  0.80412  Biso   1.000  C
  C672     1.0000 0.15477  0.42505  0.82495  Biso   1.000  C
  O193     1.0000 0.15448  0.15448  0.09552  Biso   1.000  O
  O194     1.0000 0.15448  0.65448  0.59552  Biso   1.000  O
  O195     1.0000 0.65448  0.15448  0.59552  Biso   1.000  O
  O196     1.0000 0.65448  0.65448  0.09552  Biso   1.000  O
  O197     1.0000 0.59552  0.09552  0.59552  Biso   1.000  O
  O198     1.0000 0.09552  0.65448  0.65448  Biso   1.000  O
  O199     1.0000 0.65448  0.59552  0.15448  Biso   1.000  O
  O200     1.0000 0.09552  0.15448  0.15448  Biso   1.000  O
  O201     1.0000 0.59552  0.15448  0.65448  Biso   1.000  O
  O202     1.0000 0.59552  0.65448  0.15448  Biso   1.000  O
  O203     1.0000 0.59552  0.59552  0.09552  Biso   1.000  O
  O204     1.0000 0.65448  0.09552  0.65448  Biso   1.000  O
  O205     1.0000 0.15448  0.09552  0.15448  Biso   1.000  O
  O206     1.0000 0.15448  0.59552  0.65448  Biso   1.000  O
  O207     1.0000 0.09552  0.59552  0.59552  Biso   1.000  O
  O208     1.0000 0.09552  0.09552  0.09552  Biso   1.000  O
  O209     1.0000 0.15711  0.09289  0.09289  Biso   1.000  O
  O210     1.0000 0.15711  0.59289  0.59289  Biso   1.000  O
  O211     1.0000 0.65711  0.09289  0.59289  Biso   1.000  O
  O212     1.0000 0.65711  0.59289  0.09289  Biso   1.000  O
  O213     1.0000 0.59289  0.15711  0.59289  Biso   1.000  O
  O214     1.0000 0.09289  0.59289  0.65711  Biso   1.000  O
  O215     1.0000 0.65711  0.65711  0.15711  Biso   1.000  O
  O216     1.0000 0.09289  0.15711  0.09289  Biso   1.000  O
  O217     1.0000 0.09289  0.65711  0.59289  Biso   1.000  O
  O218     1.0000 0.59289  0.65711  0.09289  Biso   1.000  O
  O219     1.0000 0.59289  0.59289  0.15711  Biso   1.000  O
  O220     1.0000 0.15711  0.65711  0.65711  Biso   1.000  O
  O221     1.0000 0.15711  0.15711  0.15711  Biso   1.000  O
  O222     1.0000 0.09289  0.09289  0.15711  Biso   1.000  O
  O223     1.0000 0.59289  0.09289  0.65711  Biso   1.000  O
  O224     1.0000 0.65711  0.15711  0.65711  Biso   1.000  O
  O225     1.0000 0.82623  0.46408  0.37457  Biso   1.000  O
  C673     1.0000 0.77889  0.51352  0.36371  Biso   1.000  C
  H193     1.0000 0.80180  0.51980  0.36580  Biso   1.000  H
  C674     1.0000 0.65800  0.63342  0.34033  Biso   1.000  C
  C675     1.0000 0.75490  0.53775  0.35800  Biso   1.000  C
  H194     1.0000 0.76140  0.56060  0.35600  Biso   1.000  H
  O226     1.0000 0.69066  0.64150  0.33780  Biso   1.000  O
  C676     1.0000 0.69910  0.67840  0.32940  Biso   1.000  C
  O227     1.0000 0.82623  0.96408  0.87457  Biso   1.000  O
  C677     1.0000 0.77889  0.01352  0.86371  Biso   1.000  C
  H195     1.0000 0.80180  0.01980  0.86580  Biso   1.000  H
  C678     1.0000 0.65800  0.13342  0.84033  Biso   1.000  C
  C679     1.0000 0.75490  0.03775  0.85800  Biso   1.000  C
  H196     1.0000 0.76140  0.06060  0.85600  Biso   1.000  H
  O228     1.0000 0.69066  0.14150  0.83780  Biso   1.000  O
  C680     1.0000 0.69910  0.17840  0.82940  Biso   1.000  C
  O229     1.0000 0.32623  0.46408  0.87457  Biso   1.000  O
  C681     1.0000 0.27889  0.51352  0.86371  Biso   1.000  C
  H197     1.0000 0.30180  0.51980  0.86580  Biso   1.000  H
  C682     1.0000 0.15800  0.63342  0.84033  Biso   1.000  C
  C683     1.0000 0.25490  0.53775  0.85800  Biso   1.000  C
  H198     1.0000 0.26140  0.56060  0.85600  Biso   1.000  H
  O230     1.0000 0.19066  0.64150  0.83780  Biso   1.000  O
  C684     1.0000 0.19910  0.67840  0.82940  Biso   1.000  C
  O231     1.0000 0.32623  0.96408  0.37457  Biso   1.000  O
  C685     1.0000 0.27889  0.01352  0.36371  Biso   1.000  C
  H199     1.0000 0.30180  0.01980  0.36580  Biso   1.000  H
  C686     1.0000 0.15800  0.13342  0.34033  Biso   1.000  C
  C687     1.0000 0.25490  0.03775  0.35800  Biso   1.000  C
  H200     1.0000 0.26140  0.06060  0.35600  Biso   1.000  H
  O232     1.0000 0.19066  0.14150  0.33780  Biso   1.000  O
  C688     1.0000 0.19910  0.17840  0.32940  Biso   1.000  C
  O233     1.0000 0.92377  0.78592  0.87457  Biso   1.000  O
  C689     1.0000 0.97111  0.73648  0.86371  Biso   1.000  C
  H201     1.0000 0.94820  0.73020  0.86580  Biso   1.000  H
  C690     1.0000 0.09200  0.61658  0.84033  Biso   1.000  C
  C691     1.0000 0.99510  0.71225  0.85800  Biso   1.000  C
  H202     1.0000 0.98860  0.68940  0.85600  Biso   1.000  H
  O234     1.0000 0.05934  0.60850  0.83780  Biso   1.000  O
  C692     1.0000 0.05090  0.57160  0.82940  Biso   1.000  C
  O235     1.0000 0.92377  0.28592  0.37457  Biso   1.000  O
  C693     1.0000 0.97111  0.23648  0.36371  Biso   1.000  C
  H203     1.0000 0.94820  0.23020  0.36580  Biso   1.000  H
  C694     1.0000 0.09200  0.11658  0.34033  Biso   1.000  C
  C695     1.0000 0.99510  0.21225  0.35800  Biso   1.000  C
  H204     1.0000 0.98860  0.18940  0.35600  Biso   1.000  H
  O236     1.0000 0.05934  0.10850  0.33780  Biso   1.000  O
  C696     1.0000 0.05090  0.07160  0.32940  Biso   1.000  C
  O237     1.0000 0.42377  0.78592  0.37457  Biso   1.000  O
  C697     1.0000 0.47111  0.73648  0.36371  Biso   1.000  C
  H205     1.0000 0.44820  0.73020  0.36580  Biso   1.000  H
  C698     1.0000 0.59200  0.61658  0.34033  Biso   1.000  C
  C699     1.0000 0.49510  0.71225  0.35800  Biso   1.000  C
  H206     1.0000 0.48860  0.68940  0.35600  Biso   1.000  H
  O238     1.0000 0.55934  0.60850  0.33780  Biso   1.000  O
  C700     1.0000 0.55090  0.57160  0.32940  Biso   1.000  C
  O239     1.0000 0.42377  0.28592  0.87457  Biso   1.000  O
  C701     1.0000 0.47111  0.23648  0.86371  Biso   1.000  C
  H207     1.0000 0.44820  0.23020  0.86580  Biso   1.000  H
  C702     1.0000 0.59200  0.11658  0.84033  Biso   1.000  C
  C703     1.0000 0.49510  0.21225  0.85800  Biso   1.000  C
  H208     1.0000 0.48860  0.18940  0.85600  Biso   1.000  H
  O240     1.0000 0.55934  0.10850  0.83780  Biso   1.000  O
  C704     1.0000 0.55090  0.07160  0.82940  Biso   1.000  C
  O241     1.0000 0.32623  0.28592  0.87543  Biso   1.000  O
  C705     1.0000 0.27889  0.23648  0.88629  Biso   1.000  C
  H209     1.0000 0.30180  0.23020  0.88420  Biso   1.000  H
  C706     1.0000 0.15800  0.11658  0.90967  Biso   1.000  C
  C707     1.0000 0.25490  0.21225  0.89200  Biso   1.000  C
  H210     1.0000 0.26140  0.18940  0.89400  Biso   1.000  H
  O242     1.0000 0.19066  0.10850  0.91220  Biso   1.000  O
  C708     1.0000 0.19910  0.07160  0.92060  Biso   1.000  C
  O243     1.0000 0.32623  0.78592  0.37543  Biso   1.000  O
  C709     1.0000 0.27889  0.73648  0.38629  Biso   1.000  C
  H211     1.0000 0.30180  0.73020  0.38420  Biso   1.000  H
  C710     1.0000 0.15800  0.61658  0.40967  Biso   1.000  C
  C711     1.0000 0.25490  0.71225  0.39200  Biso   1.000  C
  H212     1.0000 0.26140  0.68940  0.39400  Biso   1.000  H
  O244     1.0000 0.19066  0.60850  0.41220  Biso   1.000  O
  C712     1.0000 0.19910  0.57160  0.42060  Biso   1.000  C
  O245     1.0000 0.82623  0.28592  0.37543  Biso   1.000  O
  C713     1.0000 0.77889  0.23648  0.38629  Biso   1.000  C
  H213     1.0000 0.80180  0.23020  0.38420  Biso   1.000  H
  C714     1.0000 0.65800  0.11658  0.40967  Biso   1.000  C
  C715     1.0000 0.75490  0.21225  0.39200  Biso   1.000  C
  H214     1.0000 0.76140  0.18940  0.39400  Biso   1.000  H
  O246     1.0000 0.69066  0.10850  0.41220  Biso   1.000  O
  C716     1.0000 0.69910  0.07160  0.42060  Biso   1.000  C
  O247     1.0000 0.82623  0.78592  0.87543  Biso   1.000  O
  C717     1.0000 0.77889  0.73648  0.88629  Biso   1.000  C
  H215     1.0000 0.80180  0.73020  0.88420  Biso   1.000  H
  C718     1.0000 0.65800  0.61658  0.90967  Biso   1.000  C
  C719     1.0000 0.75490  0.71225  0.89200  Biso   1.000  C
  H216     1.0000 0.76140  0.68940  0.89400  Biso   1.000  H
  O248     1.0000 0.69066  0.60850  0.91220  Biso   1.000  O
  C720     1.0000 0.69910  0.57160  0.92060  Biso   1.000  C
  O249     1.0000 0.42377  0.96408  0.37543  Biso   1.000  O
  C721     1.0000 0.47111  0.01352  0.38629  Biso   1.000  C
  H217     1.0000 0.44820  0.01980  0.38420  Biso   1.000  H
  C722     1.0000 0.59200  0.13342  0.40967  Biso   1.000  C
  C723     1.0000 0.49510  0.03775  0.39200  Biso   1.000  C
  H218     1.0000 0.48860  0.06060  0.39400  Biso   1.000  H
  O250     1.0000 0.55934  0.14150  0.41220  Biso   1.000  O
  C724     1.0000 0.55090  0.17840  0.42060  Biso   1.000  C
  O251     1.0000 0.42377  0.46408  0.87543  Biso   1.000  O
  C725     1.0000 0.47111  0.51352  0.88629  Biso   1.000  C
  H219     1.0000 0.44820  0.51980  0.88420  Biso   1.000  H
  C726     1.0000 0.59200  0.63342  0.90967  Biso   1.000  C
  C727     1.0000 0.49510  0.53775  0.89200  Biso   1.000  C
  H220     1.0000 0.48860  0.56060  0.89400  Biso   1.000  H
  O252     1.0000 0.55934  0.64150  0.91220  Biso   1.000  O
  C728     1.0000 0.55090  0.67840  0.92060  Biso   1.000  C
  O253     1.0000 0.92377  0.96408  0.87543  Biso   1.000  O
  C729     1.0000 0.97111  0.01352  0.88629  Biso   1.000  C
  H221     1.0000 0.94820  0.01980  0.88420  Biso   1.000  H
  C730     1.0000 0.09200  0.13342  0.90967  Biso   1.000  C
  C731     1.0000 0.99510  0.03775  0.89200  Biso   1.000  C
  H222     1.0000 0.98860  0.06060  0.89400  Biso   1.000  H
  O254     1.0000 0.05934  0.14150  0.91220  Biso   1.000  O
  C732     1.0000 0.05090  0.17840  0.92060  Biso   1.000  C
  O255     1.0000 0.92377  0.46408  0.37543  Biso   1.000  O
  C733     1.0000 0.97111  0.51352  0.38629  Biso   1.000  C
  H223     1.0000 0.94820  0.51980  0.38420  Biso   1.000  H
  C734     1.0000 0.09200  0.63342  0.40967  Biso   1.000  C
  C735     1.0000 0.99510  0.53775  0.39200  Biso   1.000  C
  H224     1.0000 0.98860  0.56060  0.39400  Biso   1.000  H
  O256     1.0000 0.05934  0.64150  0.41220  Biso   1.000  O
  C736     1.0000 0.05090  0.67840  0.42060  Biso   1.000  C
  O257     1.0000 0.96408  0.37543  0.42377  Biso   1.000  O
  C737     1.0000 0.01352  0.38629  0.47111  Biso   1.000  C
  H225     1.0000 0.01980  0.38420  0.44820  Biso   1.000  H
  C738     1.0000 0.13342  0.40967  0.59200  Biso   1.000  C
  C739     1.0000 0.03775  0.39200  0.49510  Biso   1.000  C
  H226     1.0000 0.06060  0.39400  0.48860  Biso   1.000  H
  O258     1.0000 0.14150  0.41220  0.55934  Biso   1.000  O
  C740     1.0000 0.17840  0.42060  0.55090  Biso   1.000  C
  O259     1.0000 0.96408  0.87543  0.92377  Biso   1.000  O
  C741     1.0000 0.01352  0.88629  0.97111  Biso   1.000  C
  H227     1.0000 0.01980  0.88420  0.94820  Biso   1.000  H
  C742     1.0000 0.13342  0.90967  0.09200  Biso   1.000  C
  C743     1.0000 0.03775  0.89200  0.99510  Biso   1.000  C
  H228     1.0000 0.06060  0.89400  0.98860  Biso   1.000  H
  O260     1.0000 0.14150  0.91220  0.05934  Biso   1.000  O
  C744     1.0000 0.17840  0.92060  0.05090  Biso   1.000  C
  O261     1.0000 0.46408  0.37543  0.92377  Biso   1.000  O
  C745     1.0000 0.51352  0.38629  0.97111  Biso   1.000  C
  H229     1.0000 0.51980  0.38420  0.94820  Biso   1.000  H
  C746     1.0000 0.63342  0.40967  0.09200  Biso   1.000  C
  C747     1.0000 0.53775  0.39200  0.99510  Biso   1.000  C
  H230     1.0000 0.56060  0.39400  0.98860  Biso   1.000  H
  O262     1.0000 0.64150  0.41220  0.05934  Biso   1.000  O
  C748     1.0000 0.67840  0.42060  0.05090  Biso   1.000  C
  O263     1.0000 0.46408  0.87543  0.42377  Biso   1.000  O
  C749     1.0000 0.51352  0.88629  0.47111  Biso   1.000  C
  H231     1.0000 0.51980  0.88420  0.44820  Biso   1.000  H
  C750     1.0000 0.63342  0.90967  0.59200  Biso   1.000  C
  C751     1.0000 0.53775  0.89200  0.49510  Biso   1.000  C
  H232     1.0000 0.56060  0.89400  0.48860  Biso   1.000  H
  O264     1.0000 0.64150  0.91220  0.55934  Biso   1.000  O
  C752     1.0000 0.67840  0.92060  0.55090  Biso   1.000  C
  O265     1.0000 0.28592  0.87543  0.32623  Biso   1.000  O
  C753     1.0000 0.23648  0.88629  0.27889  Biso   1.000  C
  H233     1.0000 0.23020  0.88420  0.30180  Biso   1.000  H
  C754     1.0000 0.11658  0.90967  0.15800  Biso   1.000  C
  C755     1.0000 0.21225  0.89200  0.25490  Biso   1.000  C
  H234     1.0000 0.18940  0.89400  0.26140  Biso   1.000  H
  O266     1.0000 0.10850  0.91220  0.19066  Biso   1.000  O
  C756     1.0000 0.07160  0.92060  0.19910  Biso   1.000  C
  O267     1.0000 0.28592  0.37543  0.82623  Biso   1.000  O
  C757     1.0000 0.23648  0.38629  0.77889  Biso   1.000  C
  H235     1.0000 0.23020  0.38420  0.80180  Biso   1.000  H
  C758     1.0000 0.11658  0.40967  0.65800  Biso   1.000  C
  C759     1.0000 0.21225  0.39200  0.75490  Biso   1.000  C
  H236     1.0000 0.18940  0.39400  0.76140  Biso   1.000  H
  O268     1.0000 0.10850  0.41220  0.69066  Biso   1.000  O
  C760     1.0000 0.07160  0.42060  0.69910  Biso   1.000  C
  O269     1.0000 0.78592  0.87543  0.82623  Biso   1.000  O
  C761     1.0000 0.73648  0.88629  0.77889  Biso   1.000  C
  H237     1.0000 0.73020  0.88420  0.80180  Biso   1.000  H
  C762     1.0000 0.61658  0.90967  0.65800  Biso   1.000  C
  C763     1.0000 0.71225  0.89200  0.75490  Biso   1.000  C
  H238     1.0000 0.68940  0.89400  0.76140  Biso   1.000  H
  O270     1.0000 0.60850  0.91220  0.69066  Biso   1.000  O
  C764     1.0000 0.57160  0.92060  0.69910  Biso   1.000  C
  O271     1.0000 0.78592  0.37543  0.32623  Biso   1.000  O
  C765     1.0000 0.73648  0.38629  0.27889  Biso   1.000  C
  H239     1.0000 0.73020  0.38420  0.30180  Biso   1.000  H
  C766     1.0000 0.61658  0.40967  0.15800  Biso   1.000  C
  C767     1.0000 0.71225  0.39200  0.25490  Biso   1.000  C
  H240     1.0000 0.68940  0.39400  0.26140  Biso   1.000  H
  O272     1.0000 0.60850  0.41220  0.19066  Biso   1.000  O
  C768     1.0000 0.57160  0.42060  0.19910  Biso   1.000  C
  O273     1.0000 0.78592  0.87457  0.92377  Biso   1.000  O
  C769     1.0000 0.73648  0.86371  0.97111  Biso   1.000  C
  H241     1.0000 0.73020  0.86580  0.94820  Biso   1.000  H
  C770     1.0000 0.61658  0.84033  0.09200  Biso   1.000  C
  C771     1.0000 0.71225  0.85800  0.99510  Biso   1.000  C
  H242     1.0000 0.68940  0.85600  0.98860  Biso   1.000  H
  O274     1.0000 0.60850  0.83780  0.05934  Biso   1.000  O
  C772     1.0000 0.57160  0.82940  0.05090  Biso   1.000  C
  O275     1.0000 0.78592  0.37457  0.42377  Biso   1.000  O
  C773     1.0000 0.73648  0.36371  0.47111  Biso   1.000  C
  H243     1.0000 0.73020  0.36580  0.44820  Biso   1.000  H
  C774     1.0000 0.61658  0.34033  0.59200  Biso   1.000  C
  C775     1.0000 0.71225  0.35800  0.49510  Biso   1.000  C
  H244     1.0000 0.68940  0.35600  0.48860  Biso   1.000  H
  O276     1.0000 0.60850  0.33780  0.55934  Biso   1.000  O
  C776     1.0000 0.57160  0.32940  0.55090  Biso   1.000  C
  O277     1.0000 0.28592  0.87457  0.42377  Biso   1.000  O
  C777     1.0000 0.23648  0.86371  0.47111  Biso   1.000  C
  H245     1.0000 0.23020  0.86580  0.44820  Biso   1.000  H
  C778     1.0000 0.11658  0.84033  0.59200  Biso   1.000  C
  C779     1.0000 0.21225  0.85800  0.49510  Biso   1.000  C
  H246     1.0000 0.18940  0.85600  0.48860  Biso   1.000  H
  O278     1.0000 0.10850  0.83780  0.55934  Biso   1.000  O
  C780     1.0000 0.07160  0.82940  0.55090  Biso   1.000  C
  O279     1.0000 0.28592  0.37457  0.92377  Biso   1.000  O
  C781     1.0000 0.23648  0.36371  0.97111  Biso   1.000  C
  H247     1.0000 0.23020  0.36580  0.94820  Biso   1.000  H
  C782     1.0000 0.11658  0.34033  0.09200  Biso   1.000  C
  C783     1.0000 0.21225  0.35800  0.99510  Biso   1.000  C
  H248     1.0000 0.18940  0.35600  0.98860  Biso   1.000  H
  O280     1.0000 0.10850  0.33780  0.05934  Biso   1.000  O
  C784     1.0000 0.07160  0.32940  0.05090  Biso   1.000  C
  O281     1.0000 0.46408  0.37457  0.82623  Biso   1.000  O
  C785     1.0000 0.51352  0.36371  0.77889  Biso   1.000  C
  H249     1.0000 0.51980  0.36580  0.80180  Biso   1.000  H
  C786     1.0000 0.63342  0.34033  0.65800  Biso   1.000  C
  C787     1.0000 0.53775  0.35800  0.75490  Biso   1.000  C
  H250     1.0000 0.56060  0.35600  0.76140  Biso   1.000  H
  O282     1.0000 0.64150  0.33780  0.69066  Biso   1.000  O
  C788     1.0000 0.67840  0.32940  0.69910  Biso   1.000  C
  O283     1.0000 0.46408  0.87457  0.32623  Biso   1.000  O
  C789     1.0000 0.51352  0.86371  0.27889  Biso   1.000  C
  H251     1.0000 0.51980  0.86580  0.30180  Biso   1.000  H
  C790     1.0000 0.63342  0.84033  0.15800  Biso   1.000  C
  C791     1.0000 0.53775  0.85800  0.25490  Biso   1.000  C
  H252     1.0000 0.56060  0.85600  0.26140  Biso   1.000  H
  O284     1.0000 0.64150  0.83780  0.19066  Biso   1.000  O
  C792     1.0000 0.67840  0.82940  0.19910  Biso   1.000  C
  O285     1.0000 0.96408  0.37457  0.32623  Biso   1.000  O
  C793     1.0000 0.01352  0.36371  0.27889  Biso   1.000  C
  H253     1.0000 0.01980  0.36580  0.30180  Biso   1.000  H
  C794     1.0000 0.13342  0.34033  0.15800  Biso   1.000  C
  C795     1.0000 0.03775  0.35800  0.25490  Biso   1.000  C
  H254     1.0000 0.06060  0.35600  0.26140  Biso   1.000  H
  O286     1.0000 0.14150  0.33780  0.19066  Biso   1.000  O
  C796     1.0000 0.17840  0.32940  0.19910  Biso   1.000  C
  O287     1.0000 0.96408  0.87457  0.82623  Biso   1.000  O
  C797     1.0000 0.01352  0.86371  0.77889  Biso   1.000  C
  H255     1.0000 0.01980  0.86580  0.80180  Biso   1.000  H
  C798     1.0000 0.13342  0.84033  0.65800  Biso   1.000  C
  C799     1.0000 0.03775  0.85800  0.75490  Biso   1.000  C
  H256     1.0000 0.06060  0.85600  0.76140  Biso   1.000  H
  O288     1.0000 0.14150  0.83780  0.69066  Biso   1.000  O
  C800     1.0000 0.17840  0.82940  0.69910  Biso   1.000  C
  O289     1.0000 0.87543  0.32623  0.28592  Biso   1.000  O
  C801     1.0000 0.88629  0.27889  0.23648  Biso   1.000  C
  H257     1.0000 0.88420  0.30180  0.23020  Biso   1.000  H
  C802     1.0000 0.90967  0.15800  0.11658  Biso   1.000  C
  C803     1.0000 0.89200  0.25490  0.21225  Biso   1.000  C
  H258     1.0000 0.89400  0.26140  0.18940  Biso   1.000  H
  O290     1.0000 0.91220  0.19066  0.10850  Biso   1.000  O
  C804     1.0000 0.92060  0.19910  0.07160  Biso   1.000  C
  O291     1.0000 0.87543  0.82623  0.78592  Biso   1.000  O
  C805     1.0000 0.88629  0.77889  0.73648  Biso   1.000  C
  H259     1.0000 0.88420  0.80180  0.73020  Biso   1.000  H
  C806     1.0000 0.90967  0.65800  0.61658  Biso   1.000  C
  C807     1.0000 0.89200  0.75490  0.71225  Biso   1.000  C
  H260     1.0000 0.89400  0.76140  0.68940  Biso   1.000  H
  O292     1.0000 0.91220  0.69066  0.60850  Biso   1.000  O
  C808     1.0000 0.92060  0.69910  0.57160  Biso   1.000  C
  O293     1.0000 0.37543  0.32623  0.78592  Biso   1.000  O
  C809     1.0000 0.38629  0.27889  0.73648  Biso   1.000  C
  H261     1.0000 0.38420  0.30180  0.73020  Biso   1.000  H
  C810     1.0000 0.40967  0.15800  0.61658  Biso   1.000  C
  C811     1.0000 0.39200  0.25490  0.71225  Biso   1.000  C
  H262     1.0000 0.39400  0.26140  0.68940  Biso   1.000  H
  O294     1.0000 0.41220  0.19066  0.60850  Biso   1.000  O
  C812     1.0000 0.42060  0.19910  0.57160  Biso   1.000  C
  O295     1.0000 0.37543  0.82623  0.28592  Biso   1.000  O
  C813     1.0000 0.38629  0.77889  0.23648  Biso   1.000  C
  H263     1.0000 0.38420  0.80180  0.23020  Biso   1.000  H
  C814     1.0000 0.40967  0.65800  0.11658  Biso   1.000  C
  C815     1.0000 0.39200  0.75490  0.21225  Biso   1.000  C
  H264     1.0000 0.39400  0.76140  0.18940  Biso   1.000  H
  O296     1.0000 0.41220  0.69066  0.10850  Biso   1.000  O
  C816     1.0000 0.42060  0.69910  0.07160  Biso   1.000  C
  O297     1.0000 0.37543  0.42377  0.96408  Biso   1.000  O
  C817     1.0000 0.38629  0.47111  0.01352  Biso   1.000  C
  H265     1.0000 0.38420  0.44820  0.01980  Biso   1.000  H
  C818     1.0000 0.40967  0.59200  0.13342  Biso   1.000  C
  C819     1.0000 0.39200  0.49510  0.03775  Biso   1.000  C
  H266     1.0000 0.39400  0.48860  0.06060  Biso   1.000  H
  O298     1.0000 0.41220  0.55934  0.14150  Biso   1.000  O
  C820     1.0000 0.42060  0.55090  0.17840  Biso   1.000  C
  O299     1.0000 0.37543  0.92377  0.46408  Biso   1.000  O
  C821     1.0000 0.38629  0.97111  0.51352  Biso   1.000  C
  H267     1.0000 0.38420  0.94820  0.51980  Biso   1.000  H
  C822     1.0000 0.40967  0.09200  0.63342  Biso   1.000  C
  C823     1.0000 0.39200  0.99510  0.53775  Biso   1.000  C
  H268     1.0000 0.39400  0.98860  0.56060  Biso   1.000  H
  O300     1.0000 0.41220  0.05934  0.64150  Biso   1.000  O
  C824     1.0000 0.42060  0.05090  0.67840  Biso   1.000  C
  O301     1.0000 0.87543  0.42377  0.46408  Biso   1.000  O
  C825     1.0000 0.88629  0.47111  0.51352  Biso   1.000  C
  H269     1.0000 0.88420  0.44820  0.51980  Biso   1.000  H
  C826     1.0000 0.90967  0.59200  0.63342  Biso   1.000  C
  C827     1.0000 0.89200  0.49510  0.53775  Biso   1.000  C
  H270     1.0000 0.89400  0.48860  0.56060  Biso   1.000  H
  O302     1.0000 0.91220  0.55934  0.64150  Biso   1.000  O
  C828     1.0000 0.92060  0.55090  0.67840  Biso   1.000  C
  O303     1.0000 0.87543  0.92377  0.96408  Biso   1.000  O
  C829     1.0000 0.88629  0.97111  0.01352  Biso   1.000  C
  H271     1.0000 0.88420  0.94820  0.01980  Biso   1.000  H
  C830     1.0000 0.90967  0.09200  0.13342  Biso   1.000  C
  C831     1.0000 0.89200  0.99510  0.03775  Biso   1.000  C
  H272     1.0000 0.89400  0.98860  0.06060  Biso   1.000  H
  O304     1.0000 0.91220  0.05934  0.14150  Biso   1.000  O
  C832     1.0000 0.92060  0.05090  0.17840  Biso   1.000  C
  O305     1.0000 0.37457  0.82623  0.46408  Biso   1.000  O
  C833     1.0000 0.36371  0.77889  0.51352  Biso   1.000  C
  H273     1.0000 0.36580  0.80180  0.51980  Biso   1.000  H
  C834     1.0000 0.34033  0.65800  0.63342  Biso   1.000  C
  C835     1.0000 0.35800  0.75490  0.53775  Biso   1.000  C
  H274     1.0000 0.35600  0.76140  0.56060  Biso   1.000  H
  O306     1.0000 0.33780  0.69066  0.64150  Biso   1.000  O
  C836     1.0000 0.32940  0.69910  0.67840  Biso   1.000  C
  O307     1.0000 0.37457  0.32623  0.96408  Biso   1.000  O
  C837     1.0000 0.36371  0.27889  0.01352  Biso   1.000  C
  H275     1.0000 0.36580  0.30180  0.01980  Biso   1.000  H
  C838     1.0000 0.34033  0.15800  0.13342  Biso   1.000  C
  C839     1.0000 0.35800  0.25490  0.03775  Biso   1.000  C
  H276     1.0000 0.35600  0.26140  0.06060  Biso   1.000  H
  O308     1.0000 0.33780  0.19066  0.14150  Biso   1.000  O
  C840     1.0000 0.32940  0.19910  0.17840  Biso   1.000  C
  O309     1.0000 0.87457  0.82623  0.96408  Biso   1.000  O
  C841     1.0000 0.86371  0.77889  0.01352  Biso   1.000  C
  H277     1.0000 0.86580  0.80180  0.01980  Biso   1.000  H
  C842     1.0000 0.84033  0.65800  0.13342  Biso   1.000  C
  C843     1.0000 0.85800  0.75490  0.03775  Biso   1.000  C
  H278     1.0000 0.85600  0.76140  0.06060  Biso   1.000  H
  O310     1.0000 0.83780  0.69066  0.14150  Biso   1.000  O
  C844     1.0000 0.82940  0.69910  0.17840  Biso   1.000  C
  O311     1.0000 0.87457  0.32623  0.46408  Biso   1.000  O
  C845     1.0000 0.86371  0.27889  0.51352  Biso   1.000  C
  H279     1.0000 0.86580  0.30180  0.51980  Biso   1.000  H
  C846     1.0000 0.84033  0.15800  0.63342  Biso   1.000  C
  C847     1.0000 0.85800  0.25490  0.53775  Biso   1.000  C
  H280     1.0000 0.85600  0.26140  0.56060  Biso   1.000  H
  O312     1.0000 0.83780  0.19066  0.64150  Biso   1.000  O
  C848     1.0000 0.82940  0.19910  0.67840  Biso   1.000  C
  O313     1.0000 0.87457  0.92377  0.78592  Biso   1.000  O
  C849     1.0000 0.86371  0.97111  0.73648  Biso   1.000  C
  H281     1.0000 0.86580  0.94820  0.73020  Biso   1.000  H
  C850     1.0000 0.84033  0.09200  0.61658  Biso   1.000  C
  C851     1.0000 0.85800  0.99510  0.71225  Biso   1.000  C
  H282     1.0000 0.85600  0.98860  0.68940  Biso   1.000  H
  O314     1.0000 0.83780  0.05934  0.60850  Biso   1.000  O
  C852     1.0000 0.82940  0.05090  0.57160  Biso   1.000  C
  O315     1.0000 0.87457  0.42377  0.28592  Biso   1.000  O
  C853     1.0000 0.86371  0.47111  0.23648  Biso   1.000  C
  H283     1.0000 0.86580  0.44820  0.23020  Biso   1.000  H
  C854     1.0000 0.84033  0.59200  0.11658  Biso   1.000  C
  C855     1.0000 0.85800  0.49510  0.21225  Biso   1.000  C
  H284     1.0000 0.85600  0.48860  0.18940  Biso   1.000  H
  O316     1.0000 0.83780  0.55934  0.10850  Biso   1.000  O
  C856     1.0000 0.82940  0.55090  0.07160  Biso   1.000  C
  O317     1.0000 0.37457  0.92377  0.28592  Biso   1.000  O
  C857     1.0000 0.36371  0.97111  0.23648  Biso   1.000  C
  H285     1.0000 0.36580  0.94820  0.23020  Biso   1.000  H
  C858     1.0000 0.34033  0.09200  0.11658  Biso   1.000  C
  C859     1.0000 0.35800  0.99510  0.21225  Biso   1.000  C
  H286     1.0000 0.35600  0.98860  0.18940  Biso   1.000  H
  O318     1.0000 0.33780  0.05934  0.10850  Biso   1.000  O
  C860     1.0000 0.32940  0.05090  0.07160  Biso   1.000  C
  O319     1.0000 0.37457  0.42377  0.78592  Biso   1.000  O
  C861     1.0000 0.36371  0.47111  0.73648  Biso   1.000  C
  H287     1.0000 0.36580  0.44820  0.73020  Biso   1.000  H
  C862     1.0000 0.34033  0.59200  0.61658  Biso   1.000  C
  C863     1.0000 0.35800  0.49510  0.71225  Biso   1.000  C
  H288     1.0000 0.35600  0.48860  0.68940  Biso   1.000  H
  O320     1.0000 0.33780  0.55934  0.60850  Biso   1.000  O
  C864     1.0000 0.32940  0.55090  0.57160  Biso   1.000  C
  O321     1.0000 0.78592  0.92377  0.87457  Biso   1.000  O
  C865     1.0000 0.73648  0.97111  0.86371  Biso   1.000  C
  H289     1.0000 0.73020  0.94820  0.86580  Biso   1.000  H
  C866     1.0000 0.61658  0.09200  0.84033  Biso   1.000  C
  C867     1.0000 0.71225  0.99510  0.85800  Biso   1.000  C
  H290     1.0000 0.68940  0.98860  0.85600  Biso   1.000  H
  O322     1.0000 0.60850  0.05934  0.83780  Biso   1.000  O
  C868     1.0000 0.57160  0.05090  0.82940  Biso   1.000  C
  O323     1.0000 0.78592  0.42377  0.37457  Biso   1.000  O
  C869     1.0000 0.73648  0.47111  0.36371  Biso   1.000  C
  H291     1.0000 0.73020  0.44820  0.36580  Biso   1.000  H
  C870     1.0000 0.61658  0.59200  0.34033  Biso   1.000  C
  C871     1.0000 0.71225  0.49510  0.35800  Biso   1.000  C
  H292     1.0000 0.68940  0.48860  0.35600  Biso   1.000  H
  O324     1.0000 0.60850  0.55934  0.33780  Biso   1.000  O
  C872     1.0000 0.57160  0.55090  0.32940  Biso   1.000  C
  O325     1.0000 0.28592  0.92377  0.37457  Biso   1.000  O
  C873     1.0000 0.23648  0.97111  0.36371  Biso   1.000  C
  H293     1.0000 0.23020  0.94820  0.36580  Biso   1.000  H
  C874     1.0000 0.11658  0.09200  0.34033  Biso   1.000  C
  C875     1.0000 0.21225  0.99510  0.35800  Biso   1.000  C
  H294     1.0000 0.18940  0.98860  0.35600  Biso   1.000  H
  O326     1.0000 0.10850  0.05934  0.33780  Biso   1.000  O
  C876     1.0000 0.07160  0.05090  0.32940  Biso   1.000  C
  O327     1.0000 0.28592  0.42377  0.87457  Biso   1.000  O
  C877     1.0000 0.23648  0.47111  0.86371  Biso   1.000  C
  H295     1.0000 0.23020  0.44820  0.86580  Biso   1.000  H
  C878     1.0000 0.11658  0.59200  0.84033  Biso   1.000  C
  C879     1.0000 0.21225  0.49510  0.85800  Biso   1.000  C
  H296     1.0000 0.18940  0.48860  0.85600  Biso   1.000  H
  O328     1.0000 0.10850  0.55934  0.83780  Biso   1.000  O
  C880     1.0000 0.07160  0.55090  0.82940  Biso   1.000  C
  O329     1.0000 0.46408  0.82623  0.37457  Biso   1.000  O
  C881     1.0000 0.51352  0.77889  0.36371  Biso   1.000  C
  H297     1.0000 0.51980  0.80180  0.36580  Biso   1.000  H
  C882     1.0000 0.63342  0.65800  0.34033  Biso   1.000  C
  C883     1.0000 0.53775  0.75490  0.35800  Biso   1.000  C
  H298     1.0000 0.56060  0.76140  0.35600  Biso   1.000  H
  O330     1.0000 0.64150  0.69066  0.33780  Biso   1.000  O
  C884     1.0000 0.67840  0.69910  0.32940  Biso   1.000  C
  O331     1.0000 0.46408  0.32623  0.87457  Biso   1.000  O
  C885     1.0000 0.51352  0.27889  0.86371  Biso   1.000  C
  H299     1.0000 0.51980  0.30180  0.86580  Biso   1.000  H
  C886     1.0000 0.63342  0.15800  0.84033  Biso   1.000  C
  C887     1.0000 0.53775  0.25490  0.85800  Biso   1.000  C
  H300     1.0000 0.56060  0.26140  0.85600  Biso   1.000  H
  O332     1.0000 0.64150  0.19066  0.83780  Biso   1.000  O
  C888     1.0000 0.67840  0.19910  0.82940  Biso   1.000  C
  O333     1.0000 0.96408  0.82623  0.87457  Biso   1.000  O
  C889     1.0000 0.01352  0.77889  0.86371  Biso   1.000  C
  H301     1.0000 0.01980  0.80180  0.86580  Biso   1.000  H
  C890     1.0000 0.13342  0.65800  0.84033  Biso   1.000  C
  C891     1.0000 0.03775  0.75490  0.85800  Biso   1.000  C
  H302     1.0000 0.06060  0.76140  0.85600  Biso   1.000  H
  O334     1.0000 0.14150  0.69066  0.83780  Biso   1.000  O
  C892     1.0000 0.17840  0.69910  0.82940  Biso   1.000  C
  O335     1.0000 0.96408  0.32623  0.37457  Biso   1.000  O
  C893     1.0000 0.01352  0.27889  0.36371  Biso   1.000  C
  H303     1.0000 0.01980  0.30180  0.36580  Biso   1.000  H
  C894     1.0000 0.13342  0.15800  0.34033  Biso   1.000  C
  C895     1.0000 0.03775  0.25490  0.35800  Biso   1.000  C
  H304     1.0000 0.06060  0.26140  0.35600  Biso   1.000  H
  O336     1.0000 0.14150  0.19066  0.33780  Biso   1.000  O
  C896     1.0000 0.17840  0.19910  0.32940  Biso   1.000  C
  O337     1.0000 0.96408  0.42377  0.37543  Biso   1.000  O
  C897     1.0000 0.01352  0.47111  0.38629  Biso   1.000  C
  H305     1.0000 0.01980  0.44820  0.38420  Biso   1.000  H
  C898     1.0000 0.13342  0.59200  0.40967  Biso   1.000  C
  C899     1.0000 0.03775  0.49510  0.39200  Biso   1.000  C
  H306     1.0000 0.06060  0.48860  0.39400  Biso   1.000  H
  O338     1.0000 0.14150  0.55934  0.41220  Biso   1.000  O
  C900     1.0000 0.17840  0.55090  0.42060  Biso   1.000  C
  O339     1.0000 0.96408  0.92377  0.87543  Biso   1.000  O
  C901     1.0000 0.01352  0.97111  0.88629  Biso   1.000  C
  H307     1.0000 0.01980  0.94820  0.88420  Biso   1.000  H
  C902     1.0000 0.13342  0.09200  0.90967  Biso   1.000  C
  C903     1.0000 0.03775  0.99510  0.89200  Biso   1.000  C
  H308     1.0000 0.06060  0.98860  0.89400  Biso   1.000  H
  O340     1.0000 0.14150  0.05934  0.91220  Biso   1.000  O
  C904     1.0000 0.17840  0.05090  0.92060  Biso   1.000  C
  O341     1.0000 0.46408  0.42377  0.87543  Biso   1.000  O
  C905     1.0000 0.51352  0.47111  0.88629  Biso   1.000  C
  H309     1.0000 0.51980  0.44820  0.88420  Biso   1.000  H
  C906     1.0000 0.63342  0.59200  0.90967  Biso   1.000  C
  C907     1.0000 0.53775  0.49510  0.89200  Biso   1.000  C
  H310     1.0000 0.56060  0.48860  0.89400  Biso   1.000  H
  O342     1.0000 0.64150  0.55934  0.91220  Biso   1.000  O
  C908     1.0000 0.67840  0.55090  0.92060  Biso   1.000  C
  O343     1.0000 0.46408  0.92377  0.37543  Biso   1.000  O
  C909     1.0000 0.51352  0.97111  0.38629  Biso   1.000  C
  H311     1.0000 0.51980  0.94820  0.38420  Biso   1.000  H
  C910     1.0000 0.63342  0.09200  0.40967  Biso   1.000  C
  C911     1.0000 0.53775  0.99510  0.39200  Biso   1.000  C
  H312     1.0000 0.56060  0.98860  0.39400  Biso   1.000  H
  O344     1.0000 0.64150  0.05934  0.41220  Biso   1.000  O
  C912     1.0000 0.67840  0.05090  0.42060  Biso   1.000  C
  O345     1.0000 0.28592  0.32623  0.87543  Biso   1.000  O
  C913     1.0000 0.23648  0.27889  0.88629  Biso   1.000  C
  H313     1.0000 0.23020  0.30180  0.88420  Biso   1.000  H
  C914     1.0000 0.11658  0.15800  0.90967  Biso   1.000  C
  C915     1.0000 0.21225  0.25490  0.89200  Biso   1.000  C
  H314     1.0000 0.18940  0.26140  0.89400  Biso   1.000  H
  O346     1.0000 0.10850  0.19066  0.91220  Biso   1.000  O
  C916     1.0000 0.07160  0.19910  0.92060  Biso   1.000  C
  O347     1.0000 0.28592  0.82623  0.37543  Biso   1.000  O
  C917     1.0000 0.23648  0.77889  0.38629  Biso   1.000  C
  H315     1.0000 0.23020  0.80180  0.38420  Biso   1.000  H
  C918     1.0000 0.11658  0.65800  0.40967  Biso   1.000  C
  C919     1.0000 0.21225  0.75490  0.39200  Biso   1.000  C
  H316     1.0000 0.18940  0.76140  0.39400  Biso   1.000  H
  O348     1.0000 0.10850  0.69066  0.41220  Biso   1.000  O
  C920     1.0000 0.07160  0.69910  0.42060  Biso   1.000  C
  O349     1.0000 0.78592  0.32623  0.37543  Biso   1.000  O
  C921     1.0000 0.73648  0.27889  0.38629  Biso   1.000  C
  H317     1.0000 0.73020  0.30180  0.38420  Biso   1.000  H
  C922     1.0000 0.61658  0.15800  0.40967  Biso   1.000  C
  C923     1.0000 0.71225  0.25490  0.39200  Biso   1.000  C
  H318     1.0000 0.68940  0.26140  0.39400  Biso   1.000  H
  O350     1.0000 0.60850  0.19066  0.41220  Biso   1.000  O
  C924     1.0000 0.57160  0.19910  0.42060  Biso   1.000  C
  O351     1.0000 0.78592  0.82623  0.87543  Biso   1.000  O
  C925     1.0000 0.73648  0.77889  0.88629  Biso   1.000  C
  H319     1.0000 0.73020  0.80180  0.88420  Biso   1.000  H
  C926     1.0000 0.61658  0.65800  0.90967  Biso   1.000  C
  C927     1.0000 0.71225  0.75490  0.89200  Biso   1.000  C
  H320     1.0000 0.68940  0.76140  0.89400  Biso   1.000  H
  O352     1.0000 0.60850  0.69066  0.91220  Biso   1.000  O
  C928     1.0000 0.57160  0.69910  0.92060  Biso   1.000  C
  O353     1.0000 0.87457  0.78592  0.92377  Biso   1.000  O
  C929     1.0000 0.86371  0.73648  0.97111  Biso   1.000  C
  H321     1.0000 0.86580  0.73020  0.94820  Biso   1.000  H
  C930     1.0000 0.84033  0.61658  0.09200  Biso   1.000  C
  C931     1.0000 0.85800  0.71225  0.99510  Biso   1.000  C
  H322     1.0000 0.85600  0.68940  0.98860  Biso   1.000  H
  O354     1.0000 0.83780  0.60850  0.05934  Biso   1.000  O
  C932     1.0000 0.82940  0.57160  0.05090  Biso   1.000  C
  O355     1.0000 0.87457  0.28592  0.42377  Biso   1.000  O
  C933     1.0000 0.86371  0.23648  0.47111  Biso   1.000  C
  H323     1.0000 0.86580  0.23020  0.44820  Biso   1.000  H
  C934     1.0000 0.84033  0.11658  0.59200  Biso   1.000  C
  C935     1.0000 0.85800  0.21225  0.49510  Biso   1.000  C
  H324     1.0000 0.85600  0.18940  0.48860  Biso   1.000  H
  O356     1.0000 0.83780  0.10850  0.55934  Biso   1.000  O
  C936     1.0000 0.82940  0.07160  0.55090  Biso   1.000  C
  O357     1.0000 0.37457  0.78592  0.42377  Biso   1.000  O
  C937     1.0000 0.36371  0.73648  0.47111  Biso   1.000  C
  H325     1.0000 0.36580  0.73020  0.44820  Biso   1.000  H
  C938     1.0000 0.34033  0.61658  0.59200  Biso   1.000  C
  C939     1.0000 0.35800  0.71225  0.49510  Biso   1.000  C
  H326     1.0000 0.35600  0.68940  0.48860  Biso   1.000  H
  O358     1.0000 0.33780  0.60850  0.55934  Biso   1.000  O
  C940     1.0000 0.32940  0.57160  0.55090  Biso   1.000  C
  O359     1.0000 0.37457  0.28592  0.92377  Biso   1.000  O
  C941     1.0000 0.36371  0.23648  0.97111  Biso   1.000  C
  H327     1.0000 0.36580  0.23020  0.94820  Biso   1.000  H
  C942     1.0000 0.34033  0.11658  0.09200  Biso   1.000  C
  C943     1.0000 0.35800  0.21225  0.99510  Biso   1.000  C
  H328     1.0000 0.35600  0.18940  0.98860  Biso   1.000  H
  O360     1.0000 0.33780  0.10850  0.05934  Biso   1.000  O
  C944     1.0000 0.32940  0.07160  0.05090  Biso   1.000  C
  O361     1.0000 0.37457  0.46408  0.82623  Biso   1.000  O
  C945     1.0000 0.36371  0.51352  0.77889  Biso   1.000  C
  H329     1.0000 0.36580  0.51980  0.80180  Biso   1.000  H
  C946     1.0000 0.34033  0.63342  0.65800  Biso   1.000  C
  C947     1.0000 0.35800  0.53775  0.75490  Biso   1.000  C
  H330     1.0000 0.35600  0.56060  0.76140  Biso   1.000  H
  O362     1.0000 0.33780  0.64150  0.69066  Biso   1.000  O
  C948     1.0000 0.32940  0.67840  0.69910  Biso   1.000  C
  O363     1.0000 0.37457  0.96408  0.32623  Biso   1.000  O
  C949     1.0000 0.36371  0.01352  0.27889  Biso   1.000  C
  H331     1.0000 0.36580  0.01980  0.30180  Biso   1.000  H
  C950     1.0000 0.34033  0.13342  0.15800  Biso   1.000  C
  C951     1.0000 0.35800  0.03775  0.25490  Biso   1.000  C
  H332     1.0000 0.35600  0.06060  0.26140  Biso   1.000  H
  O364     1.0000 0.33780  0.14150  0.19066  Biso   1.000  O
  C952     1.0000 0.32940  0.17840  0.19910  Biso   1.000  C
  O365     1.0000 0.87457  0.46408  0.32623  Biso   1.000  O
  C953     1.0000 0.86371  0.51352  0.27889  Biso   1.000  C
  H333     1.0000 0.86580  0.51980  0.30180  Biso   1.000  H
  C954     1.0000 0.84033  0.63342  0.15800  Biso   1.000  C
  C955     1.0000 0.85800  0.53775  0.25490  Biso   1.000  C
  H334     1.0000 0.85600  0.56060  0.26140  Biso   1.000  H
  O366     1.0000 0.83780  0.64150  0.19066  Biso   1.000  O
  C956     1.0000 0.82940  0.67840  0.19910  Biso   1.000  C
  O367     1.0000 0.87457  0.96408  0.82623  Biso   1.000  O
  C957     1.0000 0.86371  0.01352  0.77889  Biso   1.000  C
  H335     1.0000 0.86580  0.01980  0.80180  Biso   1.000  H
  C958     1.0000 0.84033  0.13342  0.65800  Biso   1.000  C
  C959     1.0000 0.85800  0.03775  0.75490  Biso   1.000  C
  H336     1.0000 0.85600  0.06060  0.76140  Biso   1.000  H
  O368     1.0000 0.83780  0.14150  0.69066  Biso   1.000  O
  C960     1.0000 0.82940  0.17840  0.69910  Biso   1.000  C
  O369     1.0000 0.37543  0.96408  0.42377  Biso   1.000  O
  C961     1.0000 0.38629  0.01352  0.47111  Biso   1.000  C
  H337     1.0000 0.38420  0.01980  0.44820  Biso   1.000  H
  C962     1.0000 0.40967  0.13342  0.59200  Biso   1.000  C
  C963     1.0000 0.39200  0.03775  0.49510  Biso   1.000  C
  H338     1.0000 0.39400  0.06060  0.48860  Biso   1.000  H
  O370     1.0000 0.41220  0.14150  0.55934  Biso   1.000  O
  C964     1.0000 0.42060  0.17840  0.55090  Biso   1.000  C
  O371     1.0000 0.37543  0.46408  0.92377  Biso   1.000  O
  C965     1.0000 0.38629  0.51352  0.97111  Biso   1.000  C
  H339     1.0000 0.38420  0.51980  0.94820  Biso   1.000  H
  C966     1.0000 0.40967  0.63342  0.09200  Biso   1.000  C
  C967     1.0000 0.39200  0.53775  0.99510  Biso   1.000  C
  H340     1.0000 0.39400  0.56060  0.98860  Biso   1.000  H
  O372     1.0000 0.41220  0.64150  0.05934  Biso   1.000  O
  C968     1.0000 0.42060  0.67840  0.05090  Biso   1.000  C
  O373     1.0000 0.87543  0.96408  0.92377  Biso   1.000  O
  C969     1.0000 0.88629  0.01352  0.97111  Biso   1.000  C
  H341     1.0000 0.88420  0.01980  0.94820  Biso   1.000  H
  C970     1.0000 0.90967  0.13342  0.09200  Biso   1.000  C
  C971     1.0000 0.89200  0.03775  0.99510  Biso   1.000  C
  H342     1.0000 0.89400  0.06060  0.98860  Biso   1.000  H
  O374     1.0000 0.91220  0.14150  0.05934  Biso   1.000  O
  C972     1.0000 0.92060  0.17840  0.05090  Biso   1.000  C
  O375     1.0000 0.87543  0.46408  0.42377  Biso   1.000  O
  C973     1.0000 0.88629  0.51352  0.47111  Biso   1.000  C
  H343     1.0000 0.88420  0.51980  0.44820  Biso   1.000  H
  C974     1.0000 0.90967  0.63342  0.59200  Biso   1.000  C
  C975     1.0000 0.89200  0.53775  0.49510  Biso   1.000  C
  H344     1.0000 0.89400  0.56060  0.48860  Biso   1.000  H
  O376     1.0000 0.91220  0.64150  0.55934  Biso   1.000  O
  C976     1.0000 0.92060  0.67840  0.55090  Biso   1.000  C
  O377     1.0000 0.87543  0.28592  0.32623  Biso   1.000  O
  C977     1.0000 0.88629  0.23648  0.27889  Biso   1.000  C
  H345     1.0000 0.88420  0.23020  0.30180  Biso   1.000  H
  C978     1.0000 0.90967  0.11658  0.15800  Biso   1.000  C
  C979     1.0000 0.89200  0.21225  0.25490  Biso   1.000  C
  H346     1.0000 0.89400  0.18940  0.26140  Biso   1.000  H
  O378     1.0000 0.91220  0.10850  0.19066  Biso   1.000  O
  C980     1.0000 0.92060  0.07160  0.19910  Biso   1.000  C
  O379     1.0000 0.87543  0.78592  0.82623  Biso   1.000  O
  C981     1.0000 0.88629  0.73648  0.77889  Biso   1.000  C
  H347     1.0000 0.88420  0.73020  0.80180  Biso   1.000  H
  C982     1.0000 0.90967  0.61658  0.65800  Biso   1.000  C
  C983     1.0000 0.89200  0.71225  0.75490  Biso   1.000  C
  H348     1.0000 0.89400  0.68940  0.76140  Biso   1.000  H
  O380     1.0000 0.91220  0.60850  0.69066  Biso   1.000  O
  C984     1.0000 0.92060  0.57160  0.69910  Biso   1.000  C
  O381     1.0000 0.37543  0.28592  0.82623  Biso   1.000  O
  C985     1.0000 0.38629  0.23648  0.77889  Biso   1.000  C
  H349     1.0000 0.38420  0.23020  0.80180  Biso   1.000  H
  C986     1.0000 0.40967  0.11658  0.65800  Biso   1.000  C
  C987     1.0000 0.39200  0.21225  0.75490  Biso   1.000  C
  H350     1.0000 0.39400  0.18940  0.76140  Biso   1.000  H
  O382     1.0000 0.41220  0.10850  0.69066  Biso   1.000  O
  C988     1.0000 0.42060  0.07160  0.69910  Biso   1.000  C
  O383     1.0000 0.37543  0.78592  0.32623  Biso   1.000  O
  C989     1.0000 0.38629  0.73648  0.27889  Biso   1.000  C
  H351     1.0000 0.38420  0.73020  0.30180  Biso   1.000  H
  C990     1.0000 0.40967  0.61658  0.15800  Biso   1.000  C
  C991     1.0000 0.39200  0.71225  0.25490  Biso   1.000  C
  H352     1.0000 0.39400  0.68940  0.26140  Biso   1.000  H
  O384     1.0000 0.41220  0.60850  0.19066  Biso   1.000  O
  C992     1.0000 0.42060  0.57160  0.19910  Biso   1.000  C
  O385     1.0000 0.92377  0.87457  0.78592  Biso   1.000  O
  C993     1.0000 0.97111  0.86371  0.73648  Biso   1.000  C
  H353     1.0000 0.94820  0.86580  0.73020  Biso   1.000  H
  C994     1.0000 0.09200  0.84033  0.61658  Biso   1.000  C
  C995     1.0000 0.99510  0.85800  0.71225  Biso   1.000  C
  H354     1.0000 0.98860  0.85600  0.68940  Biso   1.000  H
  O386     1.0000 0.05934  0.83780  0.60850  Biso   1.000  O
  C996     1.0000 0.05090  0.82940  0.57160  Biso   1.000  C
  O387     1.0000 0.92377  0.37457  0.28592  Biso   1.000  O
  C997     1.0000 0.97111  0.36371  0.23648  Biso   1.000  C
  H355     1.0000 0.94820  0.36580  0.23020  Biso   1.000  H
  C998     1.0000 0.09200  0.34033  0.11658  Biso   1.000  C
  C999     1.0000 0.99510  0.35800  0.21225  Biso   1.000  C
  H356     1.0000 0.98860  0.35600  0.18940  Biso   1.000  H
  O388     1.0000 0.05934  0.33780  0.10850  Biso   1.000  O
  C1000    1.0000 0.05090  0.32940  0.07160  Biso   1.000  C
  O389     1.0000 0.42377  0.87457  0.28592  Biso   1.000  O
  C1001    1.0000 0.47111  0.86371  0.23648  Biso   1.000  C
  H357     1.0000 0.44820  0.86580  0.23020  Biso   1.000  H
  C1002    1.0000 0.59200  0.84033  0.11658  Biso   1.000  C
  C1003    1.0000 0.49510  0.85800  0.21225  Biso   1.000  C
  H358     1.0000 0.48860  0.85600  0.18940  Biso   1.000  H
  O390     1.0000 0.55934  0.83780  0.10850  Biso   1.000  O
  C1004    1.0000 0.55090  0.82940  0.07160  Biso   1.000  C
  O391     1.0000 0.42377  0.37457  0.78592  Biso   1.000  O
  C1005    1.0000 0.47111  0.36371  0.73648  Biso   1.000  C
  H359     1.0000 0.44820  0.36580  0.73020  Biso   1.000  H
  C1006    1.0000 0.59200  0.34033  0.61658  Biso   1.000  C
  C1007    1.0000 0.49510  0.35800  0.71225  Biso   1.000  C
  H360     1.0000 0.48860  0.35600  0.68940  Biso   1.000  H
  O392     1.0000 0.55934  0.33780  0.60850  Biso   1.000  O
  C1008    1.0000 0.55090  0.32940  0.57160  Biso   1.000  C
  O393     1.0000 0.82623  0.37457  0.46408  Biso   1.000  O
  C1009    1.0000 0.77889  0.36371  0.51352  Biso   1.000  C
  H361     1.0000 0.80180  0.36580  0.51980  Biso   1.000  H
  C1010    1.0000 0.65800  0.34033  0.63342  Biso   1.000  C
  C1011    1.0000 0.75490  0.35800  0.53775  Biso   1.000  C
  H362     1.0000 0.76140  0.35600  0.56060  Biso   1.000  H
  O394     1.0000 0.69066  0.33780  0.64150  Biso   1.000  O
  C1012    1.0000 0.69910  0.32940  0.67840  Biso   1.000  C
  O395     1.0000 0.82623  0.87457  0.96408  Biso   1.000  O
  C1013    1.0000 0.77889  0.86371  0.01352  Biso   1.000  C
  H363     1.0000 0.80180  0.86580  0.01980  Biso   1.000  H
  C1014    1.0000 0.65800  0.84033  0.13342  Biso   1.000  C
  C1015    1.0000 0.75490  0.85800  0.03775  Biso   1.000  C
  H364     1.0000 0.76140  0.85600  0.06060  Biso   1.000  H
  O396     1.0000 0.69066  0.83780  0.14150  Biso   1.000  O
  C1016    1.0000 0.69910  0.82940  0.17840  Biso   1.000  C
  O397     1.0000 0.32623  0.37457  0.96408  Biso   1.000  O
  C1017    1.0000 0.27889  0.36371  0.01352  Biso   1.000  C
  H365     1.0000 0.30180  0.36580  0.01980  Biso   1.000  H
  C1018    1.0000 0.15800  0.34033  0.13342  Biso   1.000  C
  C1019    1.0000 0.25490  0.35800  0.03775  Biso   1.000  C
  H366     1.0000 0.26140  0.35600  0.06060  Biso   1.000  H
  O398     1.0000 0.19066  0.33780  0.14150  Biso   1.000  O
  C1020    1.0000 0.19910  0.32940  0.17840  Biso   1.000  C
  O399     1.0000 0.32623  0.87457  0.46408  Biso   1.000  O
  C1021    1.0000 0.27889  0.86371  0.51352  Biso   1.000  C
  H367     1.0000 0.30180  0.86580  0.51980  Biso   1.000  H
  C1022    1.0000 0.15800  0.84033  0.63342  Biso   1.000  C
  C1023    1.0000 0.25490  0.85800  0.53775  Biso   1.000  C
  H368     1.0000 0.26140  0.85600  0.56060  Biso   1.000  H
  O400     1.0000 0.19066  0.83780  0.64150  Biso   1.000  O
  C1024    1.0000 0.19910  0.82940  0.67840  Biso   1.000  C
  O401     1.0000 0.42377  0.37543  0.96408  Biso   1.000  O
  C1025    1.0000 0.47111  0.38629  0.01352  Biso   1.000  C
  H369     1.0000 0.44820  0.38420  0.01980  Biso   1.000  H
  C1026    1.0000 0.59200  0.40967  0.13342  Biso   1.000  C
  C1027    1.0000 0.49510  0.39200  0.03775  Biso   1.000  C
  H370     1.0000 0.48860  0.39400  0.06060  Biso   1.000  H
  O402     1.0000 0.55934  0.41220  0.14150  Biso   1.000  O
  C1028    1.0000 0.55090  0.42060  0.17840  Biso   1.000  C
  O403     1.0000 0.42377  0.87543  0.46408  Biso   1.000  O
  C1029    1.0000 0.47111  0.88629  0.51352  Biso   1.000  C
  H371     1.0000 0.44820  0.88420  0.51980  Biso   1.000  H
  C1030    1.0000 0.59200  0.90967  0.63342  Biso   1.000  C
  C1031    1.0000 0.49510  0.89200  0.53775  Biso   1.000  C
  H372     1.0000 0.48860  0.89400  0.56060  Biso   1.000  H
  O404     1.0000 0.55934  0.91220  0.64150  Biso   1.000  O
  C1032    1.0000 0.55090  0.92060  0.67840  Biso   1.000  C
  O405     1.0000 0.92377  0.37543  0.46408  Biso   1.000  O
  C1033    1.0000 0.97111  0.38629  0.51352  Biso   1.000  C
  H373     1.0000 0.94820  0.38420  0.51980  Biso   1.000  H
  C1034    1.0000 0.09200  0.40967  0.63342  Biso   1.000  C
  C1035    1.0000 0.99510  0.39200  0.53775  Biso   1.000  C
  H374     1.0000 0.98860  0.39400  0.56060  Biso   1.000  H
  O406     1.0000 0.05934  0.41220  0.64150  Biso   1.000  O
  C1036    1.0000 0.05090  0.42060  0.67840  Biso   1.000  C
  O407     1.0000 0.92377  0.87543  0.96408  Biso   1.000  O
  C1037    1.0000 0.97111  0.88629  0.01352  Biso   1.000  C
  H375     1.0000 0.94820  0.88420  0.01980  Biso   1.000  H
  C1038    1.0000 0.09200  0.90967  0.13342  Biso   1.000  C
  C1039    1.0000 0.99510  0.89200  0.03775  Biso   1.000  C
  H376     1.0000 0.98860  0.89400  0.06060  Biso   1.000  H
  O408     1.0000 0.05934  0.91220  0.14150  Biso   1.000  O
  C1040    1.0000 0.05090  0.92060  0.17840  Biso   1.000  C
  O409     1.0000 0.32623  0.87543  0.28592  Biso   1.000  O
  C1041    1.0000 0.27889  0.88629  0.23648  Biso   1.000  C
  H377     1.0000 0.30180  0.88420  0.23020  Biso   1.000  H
  C1042    1.0000 0.15800  0.90967  0.11658  Biso   1.000  C
  C1043    1.0000 0.25490  0.89200  0.21225  Biso   1.000  C
  H378     1.0000 0.26140  0.89400  0.18940  Biso   1.000  H
  O410     1.0000 0.19066  0.91220  0.10850  Biso   1.000  O
  C1044    1.0000 0.19910  0.92060  0.07160  Biso   1.000  C
  O411     1.0000 0.32623  0.37543  0.78592  Biso   1.000  O
  C1045    1.0000 0.27889  0.38629  0.73648  Biso   1.000  C
  H379     1.0000 0.30180  0.38420  0.73020  Biso   1.000  H
  C1046    1.0000 0.15800  0.40967  0.61658  Biso   1.000  C
  C1047    1.0000 0.25490  0.39200  0.71225  Biso   1.000  C
  H380     1.0000 0.26140  0.39400  0.68940  Biso   1.000  H
  O412     1.0000 0.19066  0.41220  0.60850  Biso   1.000  O
  C1048    1.0000 0.19910  0.42060  0.57160  Biso   1.000  C
  O413     1.0000 0.82623  0.87543  0.78592  Biso   1.000  O
  C1049    1.0000 0.77889  0.88629  0.73648  Biso   1.000  C
  H381     1.0000 0.80180  0.88420  0.73020  Biso   1.000  H
  C1050    1.0000 0.65800  0.90967  0.61658  Biso   1.000  C
  C1051    1.0000 0.75490  0.89200  0.71225  Biso   1.000  C
  H382     1.0000 0.76140  0.89400  0.68940  Biso   1.000  H
  O414     1.0000 0.69066  0.91220  0.60850  Biso   1.000  O
  C1052    1.0000 0.69910  0.92060  0.57160  Biso   1.000  C
  O415     1.0000 0.82623  0.37543  0.28592  Biso   1.000  O
  C1053    1.0000 0.77889  0.38629  0.23648  Biso   1.000  C
  H383     1.0000 0.80180  0.38420  0.23020  Biso   1.000  H
  C1054    1.0000 0.65800  0.40967  0.11658  Biso   1.000  C
  C1055    1.0000 0.75490  0.39200  0.21225  Biso   1.000  C
  H384     1.0000 0.76140  0.39400  0.18940  Biso   1.000  H
  O416     1.0000 0.69066  0.41220  0.10850  Biso   1.000  O
  C1056    1.0000 0.69910  0.42060  0.07160  Biso   1.000  C
  Zr25     1.0000 0.87500  0.43716  0.37500  Biso   1.000  Zr
  Zr26     1.0000 0.87500  0.93716  0.87500  Biso   1.000  Zr
  Zr27     1.0000 0.87500  0.81284  0.87500  Biso   1.000  Zr
  Zr28     1.0000 0.37500  0.31284  0.87500  Biso   1.000  Zr
  Zr29     1.0000 0.37500  0.81284  0.37500  Biso   1.000  Zr
  Zr30     1.0000 0.37500  0.93716  0.37500  Biso   1.000  Zr
  Zr31     1.0000 0.93716  0.37500  0.37500  Biso   1.000  Zr
  Zr32     1.0000 0.93716  0.87500  0.87500  Biso   1.000  Zr
  Zr33     1.0000 0.31284  0.87500  0.37500  Biso   1.000  Zr
  Zr34     1.0000 0.81284  0.87500  0.87500  Biso   1.000  Zr
  Zr35     1.0000 0.81284  0.37500  0.37500  Biso   1.000  Zr
  Zr36     1.0000 0.43716  0.37500  0.87500  Biso   1.000  Zr
  Zr37     1.0000 0.87500  0.37500  0.31284  Biso   1.000  Zr
  Zr38     1.0000 0.37500  0.37500  0.93716  Biso   1.000  Zr
  Zr39     1.0000 0.87500  0.87500  0.93716  Biso   1.000  Zr
  Zr40     1.0000 0.37500  0.87500  0.43716  Biso   1.000  Zr
  Zr41     1.0000 0.87500  0.87500  0.81284  Biso   1.000  Zr
  Zr42     1.0000 0.43716  0.87500  0.37500  Biso   1.000  Zr
  Zr43     1.0000 0.31284  0.37500  0.87500  Biso   1.000  Zr
  Zr44     1.0000 0.37500  0.43716  0.87500  Biso   1.000  Zr
  Zr45     1.0000 0.87500  0.31284  0.37500  Biso   1.000  Zr
  Zr46     1.0000 0.87500  0.37500  0.43716  Biso   1.000  Zr
  Zr47     1.0000 0.37500  0.87500  0.31284  Biso   1.000  Zr
  Zr48     1.0000 0.37500  0.37500  0.81284  Biso   1.000  Zr
  C1057    1.0000 0.79615  0.45385  0.37224  Biso   1.000  C
  C1058    1.0000 0.76984  0.48016  0.36645  Biso   1.000  C
  C1059    1.0000 0.64971  0.60029  0.34262  Biso   1.000  C
  C1060    1.0000 0.72120  0.52880  0.35518  Biso   1.000  C
  C1061    1.0000 0.69588  0.55412  0.34959  Biso   1.000  C
  C1062    1.0000 0.67505  0.57495  0.34523  Biso   1.000  C
  C1063    1.0000 0.29615  0.45385  0.87224  Biso   1.000  C
  C1064    1.0000 0.26984  0.48016  0.86645  Biso   1.000  C
  C1065    1.0000 0.14971  0.60029  0.84262  Biso   1.000  C
  C1066    1.0000 0.22120  0.52880  0.85518  Biso   1.000  C
  C1067    1.0000 0.19588  0.55412  0.84959  Biso   1.000  C
  C1068    1.0000 0.17505  0.57495  0.84523  Biso   1.000  C
  C1069    1.0000 0.95385  0.79615  0.87224  Biso   1.000  C
  C1070    1.0000 0.98016  0.76984  0.86645  Biso   1.000  C
  C1071    1.0000 0.10029  0.64971  0.84262  Biso   1.000  C
  C1072    1.0000 0.02880  0.72120  0.85518  Biso   1.000  C
  C1073    1.0000 0.05412  0.69588  0.84959  Biso   1.000  C
  C1074    1.0000 0.07495  0.67505  0.84523  Biso   1.000  C
  C1075    1.0000 0.95385  0.29615  0.37224  Biso   1.000  C
  C1076    1.0000 0.98016  0.26984  0.36645  Biso   1.000  C
  C1077    1.0000 0.10029  0.14971  0.34262  Biso   1.000  C
  C1078    1.0000 0.02880  0.22120  0.35518  Biso   1.000  C
  C1079    1.0000 0.05412  0.19588  0.34959  Biso   1.000  C
  C1080    1.0000 0.07495  0.17505  0.34523  Biso   1.000  C
  C1081    1.0000 0.29615  0.29615  0.87776  Biso   1.000  C
  C1082    1.0000 0.26984  0.26984  0.88355  Biso   1.000  C
  C1083    1.0000 0.14971  0.14971  0.90738  Biso   1.000  C
  C1084    1.0000 0.22120  0.22120  0.89482  Biso   1.000  C
  C1085    1.0000 0.19588  0.19588  0.90041  Biso   1.000  C
  C1086    1.0000 0.17505  0.17505  0.90477  Biso   1.000  C
  C1087    1.0000 0.29615  0.79615  0.37776  Biso   1.000  C
  C1088    1.0000 0.26984  0.76984  0.38355  Biso   1.000  C
  C1089    1.0000 0.14971  0.64971  0.40738  Biso   1.000  C
  C1090    1.0000 0.22120  0.72120  0.39482  Biso   1.000  C
  C1091    1.0000 0.19588  0.69588  0.40041  Biso   1.000  C
  C1092    1.0000 0.17505  0.67505  0.40477  Biso   1.000  C
  C1093    1.0000 0.79615  0.29615  0.37776  Biso   1.000  C
  C1094    1.0000 0.76984  0.26984  0.38355  Biso   1.000  C
  C1095    1.0000 0.64971  0.14971  0.40738  Biso   1.000  C
  C1096    1.0000 0.72120  0.22120  0.39482  Biso   1.000  C
  C1097    1.0000 0.69588  0.19588  0.40041  Biso   1.000  C
  C1098    1.0000 0.67505  0.17505  0.40477  Biso   1.000  C
  C1099    1.0000 0.79615  0.79615  0.87776  Biso   1.000  C
  C1100    1.0000 0.76984  0.76984  0.88355  Biso   1.000  C
  C1101    1.0000 0.64971  0.64971  0.90738  Biso   1.000  C
  C1102    1.0000 0.72120  0.72120  0.89482  Biso   1.000  C
  C1103    1.0000 0.69588  0.69588  0.90041  Biso   1.000  C
  C1104    1.0000 0.67505  0.67505  0.90477  Biso   1.000  C
  C1105    1.0000 0.45385  0.95385  0.37776  Biso   1.000  C
  C1106    1.0000 0.48016  0.98016  0.38355  Biso   1.000  C
  C1107    1.0000 0.60029  0.10029  0.40738  Biso   1.000  C
  C1108    1.0000 0.52880  0.02880  0.39482  Biso   1.000  C
  C1109    1.0000 0.55412  0.05412  0.40041  Biso   1.000  C
  C1110    1.0000 0.57495  0.07495  0.40477  Biso   1.000  C
  C1111    1.0000 0.45385  0.45385  0.87776  Biso   1.000  C
  C1112    1.0000 0.48016  0.48016  0.88355  Biso   1.000  C
  C1113    1.0000 0.60029  0.60029  0.90738  Biso   1.000  C
  C1114    1.0000 0.52880  0.52880  0.89482  Biso   1.000  C
  C1115    1.0000 0.55412  0.55412  0.90041  Biso   1.000  C
  C1116    1.0000 0.57495  0.57495  0.90477  Biso   1.000  C
  C1117    1.0000 0.95385  0.95385  0.87776  Biso   1.000  C
  C1118    1.0000 0.98016  0.98016  0.88355  Biso   1.000  C
  C1119    1.0000 0.10029  0.10029  0.90738  Biso   1.000  C
  C1120    1.0000 0.02880  0.02880  0.89482  Biso   1.000  C
  C1121    1.0000 0.05412  0.05412  0.90041  Biso   1.000  C
  C1122    1.0000 0.07495  0.07495  0.90477  Biso   1.000  C
  C1123    1.0000 0.95385  0.37776  0.45385  Biso   1.000  C
  C1124    1.0000 0.98016  0.38355  0.48016  Biso   1.000  C
  C1125    1.0000 0.10029  0.40738  0.60029  Biso   1.000  C
  C1126    1.0000 0.02880  0.39482  0.52880  Biso   1.000  C
  C1127    1.0000 0.05412  0.40041  0.55412  Biso   1.000  C
  C1128    1.0000 0.07495  0.40477  0.57495  Biso   1.000  C
  C1129    1.0000 0.95385  0.87776  0.95385  Biso   1.000  C
  C1130    1.0000 0.98016  0.88355  0.98016  Biso   1.000  C
  C1131    1.0000 0.10029  0.90738  0.10029  Biso   1.000  C
  C1132    1.0000 0.02880  0.89482  0.02880  Biso   1.000  C
  C1133    1.0000 0.05412  0.90041  0.05412  Biso   1.000  C
  C1134    1.0000 0.07495  0.90477  0.07495  Biso   1.000  C
  C1135    1.0000 0.29615  0.87776  0.29615  Biso   1.000  C
  C1136    1.0000 0.26984  0.88355  0.26984  Biso   1.000  C
  C1137    1.0000 0.14971  0.90738  0.14971  Biso   1.000  C
  C1138    1.0000 0.22120  0.89482  0.22120  Biso   1.000  C
  C1139    1.0000 0.19588  0.90041  0.19588  Biso   1.000  C
  C1140    1.0000 0.17505  0.90477  0.17505  Biso   1.000  C
  C1141    1.0000 0.29615  0.37776  0.79615  Biso   1.000  C
  C1142    1.0000 0.26984  0.38355  0.76984  Biso   1.000  C
  C1143    1.0000 0.14971  0.40738  0.64971  Biso   1.000  C
  C1144    1.0000 0.22120  0.39482  0.72120  Biso   1.000  C
  C1145    1.0000 0.19588  0.40041  0.69588  Biso   1.000  C
  C1146    1.0000 0.17505  0.40477  0.67505  Biso   1.000  C
  C1147    1.0000 0.79615  0.87776  0.79615  Biso   1.000  C
  C1148    1.0000 0.76984  0.88355  0.76984  Biso   1.000  C
  C1149    1.0000 0.64971  0.90738  0.64971  Biso   1.000  C
  C1150    1.0000 0.72120  0.89482  0.72120  Biso   1.000  C
  C1151    1.0000 0.69588  0.90041  0.69588  Biso   1.000  C
  C1152    1.0000 0.67505  0.90477  0.67505  Biso   1.000  C
  C1153    1.0000 0.79615  0.37776  0.29615  Biso   1.000  C
  C1154    1.0000 0.76984  0.38355  0.26984  Biso   1.000  C
  C1155    1.0000 0.64971  0.40738  0.14971  Biso   1.000  C
  C1156    1.0000 0.72120  0.39482  0.22120  Biso   1.000  C
  C1157    1.0000 0.69588  0.40041  0.19588  Biso   1.000  C
  C1158    1.0000 0.67505  0.40477  0.17505  Biso   1.000  C
  C1159    1.0000 0.79615  0.87224  0.95385  Biso   1.000  C
  C1160    1.0000 0.76984  0.86645  0.98016  Biso   1.000  C
  C1161    1.0000 0.64971  0.84262  0.10029  Biso   1.000  C
  C1162    1.0000 0.72120  0.85518  0.02880  Biso   1.000  C
  C1163    1.0000 0.69588  0.84959  0.05412  Biso   1.000  C
  C1164    1.0000 0.67505  0.84523  0.07495  Biso   1.000  C
  C1165    1.0000 0.29615  0.87224  0.45385  Biso   1.000  C
  C1166    1.0000 0.26984  0.86645  0.48016  Biso   1.000  C
  C1167    1.0000 0.14971  0.84262  0.60029  Biso   1.000  C
  C1168    1.0000 0.22120  0.85518  0.52880  Biso   1.000  C
  C1169    1.0000 0.19588  0.84959  0.55412  Biso   1.000  C
  C1170    1.0000 0.17505  0.84523  0.57495  Biso   1.000  C
  C1171    1.0000 0.45385  0.37224  0.79615  Biso   1.000  C
  C1172    1.0000 0.48016  0.36645  0.76984  Biso   1.000  C
  C1173    1.0000 0.60029  0.34262  0.64971  Biso   1.000  C
  C1174    1.0000 0.52880  0.35518  0.72120  Biso   1.000  C
  C1175    1.0000 0.55412  0.34959  0.69588  Biso   1.000  C
  C1176    1.0000 0.57495  0.34523  0.67505  Biso   1.000  C
  C1177    1.0000 0.45385  0.87224  0.29615  Biso   1.000  C
  C1178    1.0000 0.48016  0.86645  0.26984  Biso   1.000  C
  C1179    1.0000 0.60029  0.84262  0.14971  Biso   1.000  C
  C1180    1.0000 0.52880  0.85518  0.22120  Biso   1.000  C
  C1181    1.0000 0.55412  0.84959  0.19588  Biso   1.000  C
  C1182    1.0000 0.57495  0.84523  0.17505  Biso   1.000  C
  C1183    1.0000 0.87776  0.29615  0.29615  Biso   1.000  C
  C1184    1.0000 0.88355  0.26984  0.26984  Biso   1.000  C
  C1185    1.0000 0.90738  0.14971  0.14971  Biso   1.000  C
  C1186    1.0000 0.89482  0.22120  0.22120  Biso   1.000  C
  C1187    1.0000 0.90041  0.19588  0.19588  Biso   1.000  C
  C1188    1.0000 0.90477  0.17505  0.17505  Biso   1.000  C
  C1189    1.0000 0.87776  0.79615  0.79615  Biso   1.000  C
  C1190    1.0000 0.88355  0.76984  0.76984  Biso   1.000  C
  C1191    1.0000 0.90738  0.64971  0.64971  Biso   1.000  C
  C1192    1.0000 0.89482  0.72120  0.72120  Biso   1.000  C
  C1193    1.0000 0.90041  0.69588  0.69588  Biso   1.000  C
  C1194    1.0000 0.90477  0.67505  0.67505  Biso   1.000  C
  C1195    1.0000 0.37776  0.29615  0.79615  Biso   1.000  C
  C1196    1.0000 0.38355  0.26984  0.76984  Biso   1.000  C
  C1197    1.0000 0.40738  0.14971  0.64971  Biso   1.000  C
  C1198    1.0000 0.39482  0.22120  0.72120  Biso   1.000  C
  C1199    1.0000 0.40041  0.19588  0.69588  Biso   1.000  C
  C1200    1.0000 0.40477  0.17505  0.67505  Biso   1.000  C
  C1201    1.0000 0.37776  0.79615  0.29615  Biso   1.000  C
  C1202    1.0000 0.38355  0.76984  0.26984  Biso   1.000  C
  C1203    1.0000 0.40738  0.64971  0.14971  Biso   1.000  C
  C1204    1.0000 0.39482  0.72120  0.22120  Biso   1.000  C
  C1205    1.0000 0.40041  0.69588  0.19588  Biso   1.000  C
  C1206    1.0000 0.40477  0.67505  0.17505  Biso   1.000  C
  C1207    1.0000 0.37776  0.45385  0.95385  Biso   1.000  C
  C1208    1.0000 0.38355  0.48016  0.98016  Biso   1.000  C
  C1209    1.0000 0.40738  0.60029  0.10029  Biso   1.000  C
  C1210    1.0000 0.39482  0.52880  0.02880  Biso   1.000  C
  C1211    1.0000 0.40041  0.55412  0.05412  Biso   1.000  C
  C1212    1.0000 0.40477  0.57495  0.07495  Biso   1.000  C
  C1213    1.0000 0.87776  0.45385  0.45385  Biso   1.000  C
  C1214    1.0000 0.88355  0.48016  0.48016  Biso   1.000  C
  C1215    1.0000 0.90738  0.60029  0.60029  Biso   1.000  C
  C1216    1.0000 0.89482  0.52880  0.52880  Biso   1.000  C
  C1217    1.0000 0.90041  0.55412  0.55412  Biso   1.000  C
  C1218    1.0000 0.90477  0.57495  0.57495  Biso   1.000  C
  C1219    1.0000 0.87776  0.95385  0.95385  Biso   1.000  C
  C1220    1.0000 0.88355  0.98016  0.98016  Biso   1.000  C
  C1221    1.0000 0.90738  0.10029  0.10029  Biso   1.000  C
  C1222    1.0000 0.89482  0.02880  0.02880  Biso   1.000  C
  C1223    1.0000 0.90041  0.05412  0.05412  Biso   1.000  C
  C1224    1.0000 0.90477  0.07495  0.07495  Biso   1.000  C
  C1225    1.0000 0.37224  0.79615  0.45385  Biso   1.000  C
  C1226    1.0000 0.36645  0.76984  0.48016  Biso   1.000  C
  C1227    1.0000 0.34262  0.64971  0.60029  Biso   1.000  C
  C1228    1.0000 0.35518  0.72120  0.52880  Biso   1.000  C
  C1229    1.0000 0.34959  0.69588  0.55412  Biso   1.000  C
  C1230    1.0000 0.34523  0.67505  0.57495  Biso   1.000  C
  C1231    1.0000 0.37224  0.29615  0.95385  Biso   1.000  C
  C1232    1.0000 0.36645  0.26984  0.98016  Biso   1.000  C
  C1233    1.0000 0.34262  0.14971  0.10029  Biso   1.000  C
  C1234    1.0000 0.35518  0.22120  0.02880  Biso   1.000  C
  C1235    1.0000 0.34959  0.19588  0.05412  Biso   1.000  C
  C1236    1.0000 0.34523  0.17505  0.07495  Biso   1.000  C
  C1237    1.0000 0.87224  0.95385  0.79615  Biso   1.000  C
  C1238    1.0000 0.86645  0.98016  0.76984  Biso   1.000  C
  C1239    1.0000 0.84262  0.10029  0.64971  Biso   1.000  C
  C1240    1.0000 0.85518  0.02880  0.72120  Biso   1.000  C
  C1241    1.0000 0.84959  0.05412  0.69588  Biso   1.000  C
  C1242    1.0000 0.84523  0.07495  0.67505  Biso   1.000  C
  C1243    1.0000 0.87224  0.45385  0.29615  Biso   1.000  C
  C1244    1.0000 0.86645  0.48016  0.26984  Biso   1.000  C
  C1245    1.0000 0.84262  0.60029  0.14971  Biso   1.000  C
  C1246    1.0000 0.85518  0.52880  0.22120  Biso   1.000  C
  C1247    1.0000 0.84959  0.55412  0.19588  Biso   1.000  C
  C1248    1.0000 0.84523  0.57495  0.17505  Biso   1.000  C
  C1249    1.0000 0.79615  0.95385  0.87224  Biso   1.000  C
  C1250    1.0000 0.76984  0.98016  0.86645  Biso   1.000  C
  C1251    1.0000 0.64971  0.10029  0.84262  Biso   1.000  C
  C1252    1.0000 0.72120  0.02880  0.85518  Biso   1.000  C
  C1253    1.0000 0.69588  0.05412  0.84959  Biso   1.000  C
  C1254    1.0000 0.67505  0.07495  0.84523  Biso   1.000  C
  C1255    1.0000 0.29615  0.95385  0.37224  Biso   1.000  C
  C1256    1.0000 0.26984  0.98016  0.36645  Biso   1.000  C
  C1257    1.0000 0.14971  0.10029  0.34262  Biso   1.000  C
  C1258    1.0000 0.22120  0.02880  0.35518  Biso   1.000  C
  C1259    1.0000 0.19588  0.05412  0.34959  Biso   1.000  C
  C1260    1.0000 0.17505  0.07495  0.34523  Biso   1.000  C
  C1261    1.0000 0.45385  0.79615  0.37224  Biso   1.000  C
  C1262    1.0000 0.48016  0.76984  0.36645  Biso   1.000  C
  C1263    1.0000 0.60029  0.64971  0.34262  Biso   1.000  C
  C1264    1.0000 0.52880  0.72120  0.35518  Biso   1.000  C
  C1265    1.0000 0.55412  0.69588  0.34959  Biso   1.000  C
  C1266    1.0000 0.57495  0.67505  0.34523  Biso   1.000  C
  C1267    1.0000 0.45385  0.29615  0.87224  Biso   1.000  C
  C1268    1.0000 0.48016  0.26984  0.86645  Biso   1.000  C
  C1269    1.0000 0.60029  0.14971  0.84262  Biso   1.000  C
  C1270    1.0000 0.52880  0.22120  0.85518  Biso   1.000  C
  C1271    1.0000 0.55412  0.19588  0.84959  Biso   1.000  C
  C1272    1.0000 0.57495  0.17505  0.84523  Biso   1.000  C
  C1273    1.0000 0.95385  0.45385  0.37776  Biso   1.000  C
  C1274    1.0000 0.98016  0.48016  0.38355  Biso   1.000  C
  C1275    1.0000 0.10029  0.60029  0.40738  Biso   1.000  C
  C1276    1.0000 0.02880  0.52880  0.39482  Biso   1.000  C
  C1277    1.0000 0.05412  0.55412  0.40041  Biso   1.000  C
  C1278    1.0000 0.07495  0.57495  0.40477  Biso   1.000  C
  C1279    1.0000 0.87224  0.79615  0.95385  Biso   1.000  C
  C1280    1.0000 0.86645  0.76984  0.98016  Biso   1.000  C
  C1281    1.0000 0.84262  0.64971  0.10029  Biso   1.000  C
  C1282    1.0000 0.85518  0.72120  0.02880  Biso   1.000  C
  C1283    1.0000 0.84959  0.69588  0.05412  Biso   1.000  C
  C1284    1.0000 0.84523  0.67505  0.07495  Biso   1.000  C
  C1285    1.0000 0.87224  0.29615  0.45385  Biso   1.000  C
  C1286    1.0000 0.86645  0.26984  0.48016  Biso   1.000  C
  C1287    1.0000 0.84262  0.14971  0.60029  Biso   1.000  C
  C1288    1.0000 0.85518  0.22120  0.52880  Biso   1.000  C
  C1289    1.0000 0.84959  0.19588  0.55412  Biso   1.000  C
  C1290    1.0000 0.84523  0.17505  0.57495  Biso   1.000  C
  C1291    1.0000 0.37224  0.45385  0.79615  Biso   1.000  C
  C1292    1.0000 0.36645  0.48016  0.76984  Biso   1.000  C
  C1293    1.0000 0.34262  0.60029  0.64971  Biso   1.000  C
  C1294    1.0000 0.35518  0.52880  0.72120  Biso   1.000  C
  C1295    1.0000 0.34959  0.55412  0.69588  Biso   1.000  C
  C1296    1.0000 0.34523  0.57495  0.67505  Biso   1.000  C
  C1297    1.0000 0.37224  0.95385  0.29615  Biso   1.000  C
  C1298    1.0000 0.36645  0.98016  0.26984  Biso   1.000  C
  C1299    1.0000 0.34262  0.10029  0.14971  Biso   1.000  C
  C1300    1.0000 0.35518  0.02880  0.22120  Biso   1.000  C
  C1301    1.0000 0.34959  0.05412  0.19588  Biso   1.000  C
  C1302    1.0000 0.34523  0.07495  0.17505  Biso   1.000  C
  C1303    1.0000 0.37776  0.95385  0.45385  Biso   1.000  C
  C1304    1.0000 0.38355  0.98016  0.48016  Biso   1.000  C
  C1305    1.0000 0.40738  0.10029  0.60029  Biso   1.000  C
  C1306    1.0000 0.39482  0.02880  0.52880  Biso   1.000  C
  C1307    1.0000 0.40041  0.05412  0.55412  Biso   1.000  C
  C1308    1.0000 0.40477  0.07495  0.57495  Biso   1.000  C
  C1309    1.0000 0.95385  0.87224  0.79615  Biso   1.000  C
  C1310    1.0000 0.98016  0.86645  0.76984  Biso   1.000  C
  C1311    1.0000 0.10029  0.84262  0.64971  Biso   1.000  C
  C1312    1.0000 0.02880  0.85518  0.72120  Biso   1.000  C
  C1313    1.0000 0.05412  0.84959  0.69588  Biso   1.000  C
  C1314    1.0000 0.07495  0.84523  0.67505  Biso   1.000  C
  C1315    1.0000 0.95385  0.37224  0.29615  Biso   1.000  C
  C1316    1.0000 0.98016  0.36645  0.26984  Biso   1.000  C
  C1317    1.0000 0.10029  0.34262  0.14971  Biso   1.000  C
  C1318    1.0000 0.02880  0.35518  0.22120  Biso   1.000  C
  C1319    1.0000 0.05412  0.34959  0.19588  Biso   1.000  C
  C1320    1.0000 0.07495  0.34523  0.17505  Biso   1.000  C
  C1321    1.0000 0.79615  0.37224  0.45385  Biso   1.000  C
  C1322    1.0000 0.76984  0.36645  0.48016  Biso   1.000  C
  C1323    1.0000 0.64971  0.34262  0.60029  Biso   1.000  C
  C1324    1.0000 0.72120  0.35518  0.52880  Biso   1.000  C
  C1325    1.0000 0.69588  0.34959  0.55412  Biso   1.000  C
  C1326    1.0000 0.67505  0.34523  0.57495  Biso   1.000  C
  C1327    1.0000 0.29615  0.37224  0.95385  Biso   1.000  C
  C1328    1.0000 0.26984  0.36645  0.98016  Biso   1.000  C
  C1329    1.0000 0.14971  0.34262  0.10029  Biso   1.000  C
  C1330    1.0000 0.22120  0.35518  0.02880  Biso   1.000  C
  C1331    1.0000 0.19588  0.34959  0.05412  Biso   1.000  C
  C1332    1.0000 0.17505  0.34523  0.07495  Biso   1.000  C
  C1333    1.0000 0.45385  0.37776  0.95385  Biso   1.000  C
  C1334    1.0000 0.48016  0.38355  0.98016  Biso   1.000  C
  C1335    1.0000 0.60029  0.40738  0.10029  Biso   1.000  C
  C1336    1.0000 0.52880  0.39482  0.02880  Biso   1.000  C
  C1337    1.0000 0.55412  0.40041  0.05412  Biso   1.000  C
  C1338    1.0000 0.57495  0.40477  0.07495  Biso   1.000  C
  C1339    1.0000 0.45385  0.87776  0.45385  Biso   1.000  C
  C1340    1.0000 0.48016  0.88355  0.48016  Biso   1.000  C
  C1341    1.0000 0.60029  0.90738  0.60029  Biso   1.000  C
  C1342    1.0000 0.52880  0.89482  0.52880  Biso   1.000  C
  C1343    1.0000 0.55412  0.90041  0.55412  Biso   1.000  C
  C1344    1.0000 0.57495  0.90477  0.57495  Biso   1.000  C
  O417     1.0000 0.90448  0.40448  0.40448  Biso   1.000  O
  O418     1.0000 0.90448  0.90448  0.90448  Biso   1.000  O
  O419     1.0000 0.84552  0.84552  0.90448  Biso   1.000  O
  O420     1.0000 0.40448  0.34552  0.84552  Biso   1.000  O
  O421     1.0000 0.34552  0.90448  0.34552  Biso   1.000  O
  O422     1.0000 0.90448  0.34552  0.34552  Biso   1.000  O
  O423     1.0000 0.34552  0.84552  0.40448  Biso   1.000  O
  O424     1.0000 0.84552  0.90448  0.84552  Biso   1.000  O
  O425     1.0000 0.40448  0.40448  0.90448  Biso   1.000  O
  O426     1.0000 0.84552  0.40448  0.34552  Biso   1.000  O
  O427     1.0000 0.34552  0.34552  0.90448  Biso   1.000  O
  O428     1.0000 0.40448  0.90448  0.40448  Biso   1.000  O
  O429     1.0000 0.90448  0.84552  0.84552  Biso   1.000  O
  O430     1.0000 0.34552  0.40448  0.84552  Biso   1.000  O
  O431     1.0000 0.84552  0.34552  0.40448  Biso   1.000  O
  O432     1.0000 0.40448  0.84552  0.34552  Biso   1.000  O
  O433     1.0000 0.84289  0.40711  0.40711  Biso   1.000  O
  O434     1.0000 0.90711  0.84289  0.90711  Biso   1.000  O
  O435     1.0000 0.34289  0.34289  0.84289  Biso   1.000  O
  O436     1.0000 0.84289  0.84289  0.84289  Biso   1.000  O
  O437     1.0000 0.40711  0.90711  0.34289  Biso   1.000  O
  O438     1.0000 0.90711  0.34289  0.40711  Biso   1.000  O
  O439     1.0000 0.34289  0.84289  0.34289  Biso   1.000  O
  O440     1.0000 0.84289  0.90711  0.90711  Biso   1.000  O
  O441     1.0000 0.40711  0.40711  0.84289  Biso   1.000  O
  O442     1.0000 0.84289  0.34289  0.34289  Biso   1.000  O
  O443     1.0000 0.34289  0.40711  0.90711  Biso   1.000  O
  O444     1.0000 0.40711  0.84289  0.40711  Biso   1.000  O
  O445     1.0000 0.90711  0.90711  0.84289  Biso   1.000  O
  O446     1.0000 0.90711  0.40711  0.34289  Biso   1.000  O
  O447     1.0000 0.34289  0.90711  0.40711  Biso   1.000  O
  O448     1.0000 0.40711  0.34289  0.90711  Biso   1.000  O
