data_image0
_cell_length_a       39.8015
_cell_length_b       39.8015
_cell_length_c       39.8015
_cell_angle_alpha    90
_cell_angle_beta     90
_cell_angle_gamma    90

_symmetry_space_group_name_H-M    "P 1"
_symmetry_int_tables_number       1

loop_
  _symmetry_equiv_pos_as_xyz
  'x, y, z'

loop_
  _atom_site_label
  _atom_site_occupancy
  _atom_site_fract_x
  _atom_site_fract_y
  _atom_site_fract_z
  _atom_site_thermal_displace_type
  _atom_site_B_iso_or_equiv
  _atom_site_type_symbol
  O1       1.0000 0.21411  0.07618  0.12543  Biso   1.000  O
  C1       1.0000 0.26354  0.02899  0.13620  Biso   1.000  C
  H1       1.0000 0.26980  0.05190  0.13380  Biso   1.000  H
  C2       1.0000 0.38399  0.90858  0.15930  Biso   1.000  C
  C3       1.0000 0.28780  0.00464  0.14240  Biso   1.000  C
  H2       1.0000 0.31070  0.01100  0.14430  Biso   1.000  H
  O2       1.0000 0.39210  0.94180  0.16010  Biso   1.000  O
  O3       1.0000 0.21411  0.57618  0.62543  Biso   1.000  O
  C4       1.0000 0.26354  0.52899  0.63620  Biso   1.000  C
  H3       1.0000 0.26980  0.55190  0.63380  Biso   1.000  H
  C5       1.0000 0.38399  0.40858  0.65930  Biso   1.000  C
  C6       1.0000 0.28780  0.50464  0.64240  Biso   1.000  C
  H4       1.0000 0.31070  0.51100  0.64430  Biso   1.000  H
  O4       1.0000 0.39210  0.44180  0.66010  Biso   1.000  O
  O5       1.0000 0.71411  0.07618  0.62543  Biso   1.000  O
  C7       1.0000 0.76354  0.02899  0.63620  Biso   1.000  C
  H5       1.0000 0.76980  0.05190  0.63380  Biso   1.000  H
  C8       1.0000 0.88399  0.90858  0.65930  Biso   1.000  C
  C9       1.0000 0.78780  0.00464  0.64240  Biso   1.000  C
  H6       1.0000 0.81070  0.01100  0.64430  Biso   1.000  H
  O6       1.0000 0.89210  0.94180  0.66010  Biso   1.000  O
  O7       1.0000 0.71411  0.57618  0.12543  Biso   1.000  O
  C10      1.0000 0.76354  0.52899  0.13620  Biso   1.000  C
  H7       1.0000 0.76980  0.55190  0.13380  Biso   1.000  H
  C11      1.0000 0.88399  0.40858  0.15930  Biso   1.000  C
  C12      1.0000 0.78780  0.50464  0.14240  Biso   1.000  C
  H8       1.0000 0.81070  0.51100  0.14430  Biso   1.000  H
  O8       1.0000 0.89210  0.44180  0.16010  Biso   1.000  O
  O9       1.0000 0.53589  0.17382  0.62543  Biso   1.000  O
  C13      1.0000 0.48646  0.22101  0.63620  Biso   1.000  C
  H9       1.0000 0.48020  0.19810  0.63380  Biso   1.000  H
  C14      1.0000 0.36601  0.34142  0.65930  Biso   1.000  C
  C15      1.0000 0.46220  0.24536  0.64240  Biso   1.000  C
  H10      1.0000 0.43930  0.23900  0.64430  Biso   1.000  H
  O10      1.0000 0.35790  0.30820  0.66010  Biso   1.000  O
  O11      1.0000 0.53589  0.67382  0.12543  Biso   1.000  O
  C16      1.0000 0.48646  0.72101  0.13620  Biso   1.000  C
  H11      1.0000 0.48020  0.69810  0.13380  Biso   1.000  H
  C17      1.0000 0.36601  0.84142  0.15930  Biso   1.000  C
  C18      1.0000 0.46220  0.74536  0.14240  Biso   1.000  C
  H12      1.0000 0.43930  0.73900  0.14430  Biso   1.000  H
  O12      1.0000 0.35790  0.80820  0.16010  Biso   1.000  O
  O13      1.0000 0.03589  0.17382  0.12543  Biso   1.000  O
  C19      1.0000 0.98646  0.22101  0.13620  Biso   1.000  C
  H13      1.0000 0.98020  0.19810  0.13380  Biso   1.000  H
  C20      1.0000 0.86601  0.34142  0.15930  Biso   1.000  C
  C21      1.0000 0.96220  0.24536  0.14240  Biso   1.000  C
  H14      1.0000 0.93930  0.23900  0.14430  Biso   1.000  H
  O14      1.0000 0.85790  0.30820  0.16010  Biso   1.000  O
  O15      1.0000 0.03589  0.67382  0.62543  Biso   1.000  O
  C22      1.0000 0.98646  0.72101  0.63620  Biso   1.000  C
  H15      1.0000 0.98020  0.69810  0.63380  Biso   1.000  H
  C23      1.0000 0.86601  0.84142  0.65930  Biso   1.000  C
  C24      1.0000 0.96220  0.74536  0.64240  Biso   1.000  C
  H16      1.0000 0.93930  0.73900  0.64430  Biso   1.000  H
  O16      1.0000 0.85790  0.80820  0.66010  Biso   1.000  O
  O17      1.0000 0.03589  0.57618  0.62457  Biso   1.000  O
  C25      1.0000 0.98646  0.52899  0.61380  Biso   1.000  C
  H17      1.0000 0.98020  0.55190  0.61620  Biso   1.000  H
  C26      1.0000 0.86601  0.40858  0.59070  Biso   1.000  C
  C27      1.0000 0.96220  0.50464  0.60760  Biso   1.000  C
  H18      1.0000 0.93930  0.51100  0.60570  Biso   1.000  H
  O18      1.0000 0.85790  0.44180  0.58990  Biso   1.000  O
  O19      1.0000 0.03589  0.07618  0.12457  Biso   1.000  O
  C28      1.0000 0.98646  0.02899  0.11380  Biso   1.000  C
  H19      1.0000 0.98020  0.05190  0.11620  Biso   1.000  H
  C29      1.0000 0.86601  0.90858  0.09070  Biso   1.000  C
  C30      1.0000 0.96220  0.00464  0.10760  Biso   1.000  C
  H20      1.0000 0.93930  0.01100  0.10570  Biso   1.000  H
  O20      1.0000 0.85790  0.94180  0.08990  Biso   1.000  O
  O21      1.0000 0.53589  0.57618  0.12457  Biso   1.000  O
  C31      1.0000 0.48646  0.52899  0.11380  Biso   1.000  C
  H21      1.0000 0.48020  0.55190  0.11620  Biso   1.000  H
  C32      1.0000 0.36601  0.40858  0.09070  Biso   1.000  C
  C33      1.0000 0.46220  0.50464  0.10760  Biso   1.000  C
  H22      1.0000 0.43930  0.51100  0.10570  Biso   1.000  H
  O22      1.0000 0.35790  0.44180  0.08990  Biso   1.000  O
  O23      1.0000 0.53589  0.07618  0.62457  Biso   1.000  O
  C34      1.0000 0.48646  0.02899  0.61380  Biso   1.000  C
  H23      1.0000 0.48020  0.05190  0.61620  Biso   1.000  H
  C35      1.0000 0.36601  0.90858  0.59070  Biso   1.000  C
  C36      1.0000 0.46220  0.00464  0.60760  Biso   1.000  C
  H24      1.0000 0.43930  0.01100  0.60570  Biso   1.000  H
  O24      1.0000 0.35790  0.94180  0.58990  Biso   1.000  O
  O25      1.0000 0.71411  0.67382  0.12457  Biso   1.000  O
  C37      1.0000 0.76354  0.72101  0.11380  Biso   1.000  C
  H25      1.0000 0.76980  0.69810  0.11620  Biso   1.000  H
  C38      1.0000 0.88399  0.84142  0.09070  Biso   1.000  C
  C39      1.0000 0.78780  0.74536  0.10760  Biso   1.000  C
  H26      1.0000 0.81070  0.73900  0.10570  Biso   1.000  H
  O26      1.0000 0.89210  0.80820  0.08990  Biso   1.000  O
  O27      1.0000 0.71411  0.17382  0.62457  Biso   1.000  O
  C40      1.0000 0.76354  0.22101  0.61380  Biso   1.000  C
  H27      1.0000 0.76980  0.19810  0.61620  Biso   1.000  H
  C41      1.0000 0.88399  0.34142  0.59070  Biso   1.000  C
  C42      1.0000 0.78780  0.24536  0.60760  Biso   1.000  C
  H28      1.0000 0.81070  0.23900  0.60570  Biso   1.000  H
  O28      1.0000 0.89210  0.30820  0.58990  Biso   1.000  O
  O29      1.0000 0.21411  0.67382  0.62457  Biso   1.000  O
  C43      1.0000 0.26354  0.72101  0.61380  Biso   1.000  C
  H29      1.0000 0.26980  0.69810  0.61620  Biso   1.000  H
  C44      1.0000 0.38399  0.84142  0.59070  Biso   1.000  C
  C45      1.0000 0.28780  0.74536  0.60760  Biso   1.000  C
  H30      1.0000 0.31070  0.73900  0.60570  Biso   1.000  H
  O30      1.0000 0.39210  0.80820  0.58990  Biso   1.000  O
  O31      1.0000 0.21411  0.17382  0.12457  Biso   1.000  O
  C46      1.0000 0.26354  0.22101  0.11380  Biso   1.000  C
  H31      1.0000 0.26980  0.19810  0.11620  Biso   1.000  H
  C47      1.0000 0.38399  0.34142  0.09070  Biso   1.000  C
  C48      1.0000 0.28780  0.24536  0.10760  Biso   1.000  C
  H32      1.0000 0.31070  0.23900  0.10570  Biso   1.000  H
  O32      1.0000 0.39210  0.30820  0.08990  Biso   1.000  O
  O33      1.0000 0.12543  0.21411  0.07618  Biso   1.000  O
  C49      1.0000 0.13620  0.26354  0.02899  Biso   1.000  C
  H33      1.0000 0.13380  0.26980  0.05190  Biso   1.000  H
  C50      1.0000 0.15930  0.38399  0.90858  Biso   1.000  C
  C51      1.0000 0.14240  0.28780  0.00464  Biso   1.000  C
  H34      1.0000 0.14430  0.31070  0.01100  Biso   1.000  H
  O34      1.0000 0.16010  0.39210  0.94180  Biso   1.000  O
  O35      1.0000 0.12543  0.71411  0.57618  Biso   1.000  O
  C52      1.0000 0.13620  0.76354  0.52899  Biso   1.000  C
  H35      1.0000 0.13380  0.76980  0.55190  Biso   1.000  H
  C53      1.0000 0.15930  0.88399  0.40858  Biso   1.000  C
  C54      1.0000 0.14240  0.78780  0.50464  Biso   1.000  C
  H36      1.0000 0.14430  0.81070  0.51100  Biso   1.000  H
  O36      1.0000 0.16010  0.89210  0.44180  Biso   1.000  O
  O37      1.0000 0.62543  0.21411  0.57618  Biso   1.000  O
  C55      1.0000 0.63620  0.26354  0.52899  Biso   1.000  C
  H37      1.0000 0.63380  0.26980  0.55190  Biso   1.000  H
  C56      1.0000 0.65930  0.38399  0.40858  Biso   1.000  C
  C57      1.0000 0.64240  0.28780  0.50464  Biso   1.000  C
  H38      1.0000 0.64430  0.31070  0.51100  Biso   1.000  H
  O38      1.0000 0.66010  0.39210  0.44180  Biso   1.000  O
  O39      1.0000 0.62543  0.71411  0.07618  Biso   1.000  O
  C58      1.0000 0.63620  0.76354  0.02899  Biso   1.000  C
  H39      1.0000 0.63380  0.76980  0.05190  Biso   1.000  H
  C59      1.0000 0.65930  0.88399  0.90858  Biso   1.000  C
  C60      1.0000 0.64240  0.78780  0.00464  Biso   1.000  C
  H40      1.0000 0.64430  0.81070  0.01100  Biso   1.000  H
  O40      1.0000 0.66010  0.89210  0.94180  Biso   1.000  O
  O41      1.0000 0.62543  0.53589  0.17382  Biso   1.000  O
  C61      1.0000 0.63620  0.48646  0.22101  Biso   1.000  C
  H41      1.0000 0.63380  0.48020  0.19810  Biso   1.000  H
  C62      1.0000 0.65930  0.36601  0.34142  Biso   1.000  C
  C63      1.0000 0.64240  0.46220  0.24536  Biso   1.000  C
  H42      1.0000 0.64430  0.43930  0.23900  Biso   1.000  H
  O42      1.0000 0.66010  0.35790  0.30820  Biso   1.000  O
  O43      1.0000 0.62543  0.03589  0.67382  Biso   1.000  O
  C64      1.0000 0.63620  0.98646  0.72101  Biso   1.000  C
  H43      1.0000 0.63380  0.98020  0.69810  Biso   1.000  H
  C65      1.0000 0.65930  0.86601  0.84142  Biso   1.000  C
  C66      1.0000 0.64240  0.96220  0.74536  Biso   1.000  C
  H44      1.0000 0.64430  0.93930  0.73900  Biso   1.000  H
  O44      1.0000 0.66010  0.85790  0.80820  Biso   1.000  O
  O45      1.0000 0.12543  0.53589  0.67382  Biso   1.000  O
  C67      1.0000 0.13620  0.48646  0.72101  Biso   1.000  C
  H45      1.0000 0.13380  0.48020  0.69810  Biso   1.000  H
  C68      1.0000 0.15930  0.36601  0.84142  Biso   1.000  C
  C69      1.0000 0.14240  0.46220  0.74536  Biso   1.000  C
  H46      1.0000 0.14430  0.43930  0.73900  Biso   1.000  H
  O46      1.0000 0.16010  0.35790  0.80820  Biso   1.000  O
  O47      1.0000 0.12543  0.03589  0.17382  Biso   1.000  O
  C70      1.0000 0.13620  0.98646  0.22101  Biso   1.000  C
  H47      1.0000 0.13380  0.98020  0.19810  Biso   1.000  H
  C71      1.0000 0.15930  0.86601  0.34142  Biso   1.000  C
  C72      1.0000 0.14240  0.96220  0.24536  Biso   1.000  C
  H48      1.0000 0.14430  0.93930  0.23900  Biso   1.000  H
  O48      1.0000 0.16010  0.85790  0.30820  Biso   1.000  O
  O49      1.0000 0.62457  0.03589  0.57618  Biso   1.000  O
  C73      1.0000 0.61380  0.98646  0.52899  Biso   1.000  C
  H49      1.0000 0.61620  0.98020  0.55190  Biso   1.000  H
  C74      1.0000 0.59070  0.86601  0.40858  Biso   1.000  C
  C75      1.0000 0.60760  0.96220  0.50464  Biso   1.000  C
  H50      1.0000 0.60570  0.93930  0.51100  Biso   1.000  H
  O50      1.0000 0.58990  0.85790  0.44180  Biso   1.000  O
  O51      1.0000 0.62457  0.53589  0.07618  Biso   1.000  O
  C76      1.0000 0.61380  0.48646  0.02899  Biso   1.000  C
  H51      1.0000 0.61620  0.48020  0.05190  Biso   1.000  H
  C77      1.0000 0.59070  0.36601  0.90858  Biso   1.000  C
  C78      1.0000 0.60760  0.46220  0.00464  Biso   1.000  C
  H52      1.0000 0.60570  0.43930  0.01100  Biso   1.000  H
  O52      1.0000 0.58990  0.35790  0.94180  Biso   1.000  O
  O53      1.0000 0.12457  0.03589  0.07618  Biso   1.000  O
  C79      1.0000 0.11380  0.98646  0.02899  Biso   1.000  C
  H53      1.0000 0.11620  0.98020  0.05190  Biso   1.000  H
  C80      1.0000 0.09070  0.86601  0.90858  Biso   1.000  C
  C81      1.0000 0.10760  0.96220  0.00464  Biso   1.000  C
  H54      1.0000 0.10570  0.93930  0.01100  Biso   1.000  H
  O54      1.0000 0.08990  0.85790  0.94180  Biso   1.000  O
  O55      1.0000 0.12457  0.53589  0.57618  Biso   1.000  O
  C82      1.0000 0.11380  0.48646  0.52899  Biso   1.000  C
  H55      1.0000 0.11620  0.48020  0.55190  Biso   1.000  H
  C83      1.0000 0.09070  0.36601  0.40858  Biso   1.000  C
  C84      1.0000 0.10760  0.46220  0.50464  Biso   1.000  C
  H56      1.0000 0.10570  0.43930  0.51100  Biso   1.000  H
  O56      1.0000 0.08990  0.35790  0.44180  Biso   1.000  O
  O57      1.0000 0.12457  0.71411  0.67382  Biso   1.000  O
  C85      1.0000 0.11380  0.76354  0.72101  Biso   1.000  C
  H57      1.0000 0.11620  0.76980  0.69810  Biso   1.000  H
  C86      1.0000 0.09070  0.88399  0.84142  Biso   1.000  C
  C87      1.0000 0.10760  0.78780  0.74536  Biso   1.000  C
  H58      1.0000 0.10570  0.81070  0.73900  Biso   1.000  H
  O58      1.0000 0.08990  0.89210  0.80820  Biso   1.000  O
  O59      1.0000 0.12457  0.21411  0.17382  Biso   1.000  O
  C88      1.0000 0.11380  0.26354  0.22101  Biso   1.000  C
  H59      1.0000 0.11620  0.26980  0.19810  Biso   1.000  H
  C89      1.0000 0.09070  0.38399  0.34142  Biso   1.000  C
  C90      1.0000 0.10760  0.28780  0.24536  Biso   1.000  C
  H60      1.0000 0.10570  0.31070  0.23900  Biso   1.000  H
  O60      1.0000 0.08990  0.39210  0.30820  Biso   1.000  O
  O61      1.0000 0.62457  0.71411  0.17382  Biso   1.000  O
  C91      1.0000 0.61380  0.76354  0.22101  Biso   1.000  C
  H61      1.0000 0.61620  0.76980  0.19810  Biso   1.000  H
  C92      1.0000 0.59070  0.88399  0.34142  Biso   1.000  C
  C93      1.0000 0.60760  0.78780  0.24536  Biso   1.000  C
  H62      1.0000 0.60570  0.81070  0.23900  Biso   1.000  H
  O62      1.0000 0.58990  0.89210  0.30820  Biso   1.000  O
  O63      1.0000 0.62457  0.21411  0.67382  Biso   1.000  O
  C94      1.0000 0.61380  0.26354  0.72101  Biso   1.000  C
  H63      1.0000 0.61620  0.26980  0.69810  Biso   1.000  H
  C95      1.0000 0.59070  0.38399  0.84142  Biso   1.000  C
  C96      1.0000 0.60760  0.28780  0.74536  Biso   1.000  C
  H64      1.0000 0.60570  0.31070  0.73900  Biso   1.000  H
  O64      1.0000 0.58990  0.39210  0.80820  Biso   1.000  O
  O65      1.0000 0.07618  0.12543  0.21411  Biso   1.000  O
  C97      1.0000 0.02899  0.13620  0.26354  Biso   1.000  C
  H65      1.0000 0.05190  0.13380  0.26980  Biso   1.000  H
  C98      1.0000 0.90858  0.15930  0.38399  Biso   1.000  C
  C99      1.0000 0.00464  0.14240  0.28780  Biso   1.000  C
  H66      1.0000 0.01100  0.14430  0.31070  Biso   1.000  H
  O66      1.0000 0.94180  0.16010  0.39210  Biso   1.000  O
  O67      1.0000 0.07618  0.62543  0.71411  Biso   1.000  O
  C100     1.0000 0.02899  0.63620  0.76354  Biso   1.000  C
  H67      1.0000 0.05190  0.63380  0.76980  Biso   1.000  H
  C101     1.0000 0.90858  0.65930  0.88399  Biso   1.000  C
  C102     1.0000 0.00464  0.64240  0.78780  Biso   1.000  C
  H68      1.0000 0.01100  0.64430  0.81070  Biso   1.000  H
  O68      1.0000 0.94180  0.66010  0.89210  Biso   1.000  O
  O69      1.0000 0.57618  0.12543  0.71411  Biso   1.000  O
  C103     1.0000 0.52899  0.13620  0.76354  Biso   1.000  C
  H69      1.0000 0.55190  0.13380  0.76980  Biso   1.000  H
  C104     1.0000 0.40858  0.15930  0.88399  Biso   1.000  C
  C105     1.0000 0.50464  0.14240  0.78780  Biso   1.000  C
  H70      1.0000 0.51100  0.14430  0.81070  Biso   1.000  H
  O70      1.0000 0.44180  0.16010  0.89210  Biso   1.000  O
  O71      1.0000 0.57618  0.62543  0.21411  Biso   1.000  O
  C106     1.0000 0.52899  0.63620  0.26354  Biso   1.000  C
  H71      1.0000 0.55190  0.63380  0.26980  Biso   1.000  H
  C107     1.0000 0.40858  0.65930  0.38399  Biso   1.000  C
  C108     1.0000 0.50464  0.64240  0.28780  Biso   1.000  C
  H72      1.0000 0.51100  0.64430  0.31070  Biso   1.000  H
  O72      1.0000 0.44180  0.66010  0.39210  Biso   1.000  O
  O73      1.0000 0.17382  0.62543  0.53589  Biso   1.000  O
  C109     1.0000 0.22101  0.63620  0.48646  Biso   1.000  C
  H73      1.0000 0.19810  0.63380  0.48020  Biso   1.000  H
  C110     1.0000 0.34142  0.65930  0.36601  Biso   1.000  C
  C111     1.0000 0.24536  0.64240  0.46220  Biso   1.000  C
  H74      1.0000 0.23900  0.64430  0.43930  Biso   1.000  H
  O74      1.0000 0.30820  0.66010  0.35790  Biso   1.000  O
  O75      1.0000 0.17382  0.12543  0.03589  Biso   1.000  O
  C112     1.0000 0.22101  0.13620  0.98646  Biso   1.000  C
  H75      1.0000 0.19810  0.13380  0.98020  Biso   1.000  H
  C113     1.0000 0.34142  0.15930  0.86601  Biso   1.000  C
  C114     1.0000 0.24536  0.14240  0.96220  Biso   1.000  C
  H76      1.0000 0.23900  0.14430  0.93930  Biso   1.000  H
  O76      1.0000 0.30820  0.16010  0.85790  Biso   1.000  O
  O77      1.0000 0.67382  0.62543  0.03589  Biso   1.000  O
  C115     1.0000 0.72101  0.63620  0.98646  Biso   1.000  C
  H77      1.0000 0.69810  0.63380  0.98020  Biso   1.000  H
  C116     1.0000 0.84142  0.65930  0.86601  Biso   1.000  C
  C117     1.0000 0.74536  0.64240  0.96220  Biso   1.000  C
  H78      1.0000 0.73900  0.64430  0.93930  Biso   1.000  H
  O78      1.0000 0.80820  0.66010  0.85790  Biso   1.000  O
  O79      1.0000 0.67382  0.12543  0.53589  Biso   1.000  O
  C118     1.0000 0.72101  0.13620  0.48646  Biso   1.000  C
  H79      1.0000 0.69810  0.13380  0.48020  Biso   1.000  H
  C119     1.0000 0.84142  0.15930  0.36601  Biso   1.000  C
  C120     1.0000 0.74536  0.14240  0.46220  Biso   1.000  C
  H80      1.0000 0.73900  0.14430  0.43930  Biso   1.000  H
  O80      1.0000 0.80820  0.16010  0.35790  Biso   1.000  O
  O81      1.0000 0.57618  0.62457  0.03589  Biso   1.000  O
  C121     1.0000 0.52899  0.61380  0.98646  Biso   1.000  C
  H81      1.0000 0.55190  0.61620  0.98020  Biso   1.000  H
  C122     1.0000 0.40858  0.59070  0.86601  Biso   1.000  C
  C123     1.0000 0.50464  0.60760  0.96220  Biso   1.000  C
  H82      1.0000 0.51100  0.60570  0.93930  Biso   1.000  H
  O82      1.0000 0.44180  0.58990  0.85790  Biso   1.000  O
  O83      1.0000 0.57618  0.12457  0.53589  Biso   1.000  O
  C124     1.0000 0.52899  0.11380  0.48646  Biso   1.000  C
  H83      1.0000 0.55190  0.11620  0.48020  Biso   1.000  H
  C125     1.0000 0.40858  0.09070  0.36601  Biso   1.000  C
  C126     1.0000 0.50464  0.10760  0.46220  Biso   1.000  C
  H84      1.0000 0.51100  0.10570  0.43930  Biso   1.000  H
  O84      1.0000 0.44180  0.08990  0.35790  Biso   1.000  O
  O85      1.0000 0.07618  0.62457  0.53589  Biso   1.000  O
  C127     1.0000 0.02899  0.61380  0.48646  Biso   1.000  C
  H85      1.0000 0.05190  0.61620  0.48020  Biso   1.000  H
  C128     1.0000 0.90858  0.59070  0.36601  Biso   1.000  C
  C129     1.0000 0.00464  0.60760  0.46220  Biso   1.000  C
  H86      1.0000 0.01100  0.60570  0.43930  Biso   1.000  H
  O86      1.0000 0.94180  0.58990  0.35790  Biso   1.000  O
  O87      1.0000 0.07618  0.12457  0.03589  Biso   1.000  O
  C130     1.0000 0.02899  0.11380  0.98646  Biso   1.000  C
  H87      1.0000 0.05190  0.11620  0.98020  Biso   1.000  H
  C131     1.0000 0.90858  0.09070  0.86601  Biso   1.000  C
  C132     1.0000 0.00464  0.10760  0.96220  Biso   1.000  C
  H88      1.0000 0.01100  0.10570  0.93930  Biso   1.000  H
  O88      1.0000 0.94180  0.08990  0.85790  Biso   1.000  O
  O89      1.0000 0.67382  0.12457  0.71411  Biso   1.000  O
  C133     1.0000 0.72101  0.11380  0.76354  Biso   1.000  C
  H89      1.0000 0.69810  0.11620  0.76980  Biso   1.000  H
  C134     1.0000 0.84142  0.09070  0.88399  Biso   1.000  C
  C135     1.0000 0.74536  0.10760  0.78780  Biso   1.000  C
  H90      1.0000 0.73900  0.10570  0.81070  Biso   1.000  H
  O90      1.0000 0.80820  0.08990  0.89210  Biso   1.000  O
  O91      1.0000 0.67382  0.62457  0.21411  Biso   1.000  O
  C136     1.0000 0.72101  0.61380  0.26354  Biso   1.000  C
  H91      1.0000 0.69810  0.61620  0.26980  Biso   1.000  H
  C137     1.0000 0.84142  0.59070  0.38399  Biso   1.000  C
  C138     1.0000 0.74536  0.60760  0.28780  Biso   1.000  C
  H92      1.0000 0.73900  0.60570  0.31070  Biso   1.000  H
  O92      1.0000 0.80820  0.58990  0.39210  Biso   1.000  O
  O93      1.0000 0.17382  0.12457  0.21411  Biso   1.000  O
  C139     1.0000 0.22101  0.11380  0.26354  Biso   1.000  C
  H93      1.0000 0.19810  0.11620  0.26980  Biso   1.000  H
  C140     1.0000 0.34142  0.09070  0.38399  Biso   1.000  C
  C141     1.0000 0.24536  0.10760  0.28780  Biso   1.000  C
  H94      1.0000 0.23900  0.10570  0.31070  Biso   1.000  H
  O94      1.0000 0.30820  0.08990  0.39210  Biso   1.000  O
  O95      1.0000 0.17382  0.62457  0.71411  Biso   1.000  O
  C142     1.0000 0.22101  0.61380  0.76354  Biso   1.000  C
  H95      1.0000 0.19810  0.61620  0.76980  Biso   1.000  H
  C143     1.0000 0.34142  0.59070  0.88399  Biso   1.000  C
  C144     1.0000 0.24536  0.60760  0.78780  Biso   1.000  C
  H96      1.0000 0.23900  0.60570  0.81070  Biso   1.000  H
  O96      1.0000 0.30820  0.58990  0.89210  Biso   1.000  O
  O97      1.0000 0.17382  0.53589  0.62543  Biso   1.000  O
  C145     1.0000 0.22101  0.48646  0.63620  Biso   1.000  C
  H97      1.0000 0.19810  0.48020  0.63380  Biso   1.000  H
  C146     1.0000 0.34142  0.36601  0.65930  Biso   1.000  C
  C147     1.0000 0.24536  0.46220  0.64240  Biso   1.000  C
  H98      1.0000 0.23900  0.43930  0.64430  Biso   1.000  H
  O98      1.0000 0.30820  0.35790  0.66010  Biso   1.000  O
  O99      1.0000 0.17382  0.03589  0.12543  Biso   1.000  O
  C148     1.0000 0.22101  0.98646  0.13620  Biso   1.000  C
  H99      1.0000 0.19810  0.98020  0.13380  Biso   1.000  H
  C149     1.0000 0.34142  0.86601  0.15930  Biso   1.000  C
  C150     1.0000 0.24536  0.96220  0.14240  Biso   1.000  C
  H100     1.0000 0.23900  0.93930  0.14430  Biso   1.000  H
  O100     1.0000 0.30820  0.85790  0.16010  Biso   1.000  O
  O101     1.0000 0.67382  0.53589  0.12543  Biso   1.000  O
  C151     1.0000 0.72101  0.48646  0.13620  Biso   1.000  C
  H101     1.0000 0.69810  0.48020  0.13380  Biso   1.000  H
  C152     1.0000 0.84142  0.36601  0.15930  Biso   1.000  C
  C153     1.0000 0.74536  0.46220  0.14240  Biso   1.000  C
  H102     1.0000 0.73900  0.43930  0.14430  Biso   1.000  H
  O102     1.0000 0.80820  0.35790  0.16010  Biso   1.000  O
  O103     1.0000 0.67382  0.03589  0.62543  Biso   1.000  O
  C154     1.0000 0.72101  0.98646  0.63620  Biso   1.000  C
  H103     1.0000 0.69810  0.98020  0.63380  Biso   1.000  H
  C155     1.0000 0.84142  0.86601  0.65930  Biso   1.000  C
  C156     1.0000 0.74536  0.96220  0.64240  Biso   1.000  C
  H104     1.0000 0.73900  0.93930  0.64430  Biso   1.000  H
  O104     1.0000 0.80820  0.85790  0.66010  Biso   1.000  O
  O105     1.0000 0.07618  0.21411  0.12543  Biso   1.000  O
  C157     1.0000 0.02899  0.26354  0.13620  Biso   1.000  C
  H105     1.0000 0.05190  0.26980  0.13380  Biso   1.000  H
  C158     1.0000 0.90858  0.38399  0.15930  Biso   1.000  C
  C159     1.0000 0.00464  0.28780  0.14240  Biso   1.000  C
  H106     1.0000 0.01100  0.31070  0.14430  Biso   1.000  H
  O106     1.0000 0.94180  0.39210  0.16010  Biso   1.000  O
  O107     1.0000 0.07618  0.71411  0.62543  Biso   1.000  O
  C160     1.0000 0.02899  0.76354  0.63620  Biso   1.000  C
  H107     1.0000 0.05190  0.76980  0.63380  Biso   1.000  H
  C161     1.0000 0.90858  0.88399  0.65930  Biso   1.000  C
  C162     1.0000 0.00464  0.78780  0.64240  Biso   1.000  C
  H108     1.0000 0.01100  0.81070  0.64430  Biso   1.000  H
  O108     1.0000 0.94180  0.89210  0.66010  Biso   1.000  O
  O109     1.0000 0.57618  0.21411  0.62543  Biso   1.000  O
  C163     1.0000 0.52899  0.26354  0.63620  Biso   1.000  C
  H109     1.0000 0.55190  0.26980  0.63380  Biso   1.000  H
  C164     1.0000 0.40858  0.38399  0.65930  Biso   1.000  C
  C165     1.0000 0.50464  0.28780  0.64240  Biso   1.000  C
  H110     1.0000 0.51100  0.31070  0.64430  Biso   1.000  H
  O110     1.0000 0.44180  0.39210  0.66010  Biso   1.000  O
  O111     1.0000 0.57618  0.71411  0.12543  Biso   1.000  O
  C166     1.0000 0.52899  0.76354  0.13620  Biso   1.000  C
  H111     1.0000 0.55190  0.76980  0.13380  Biso   1.000  H
  C167     1.0000 0.40858  0.88399  0.15930  Biso   1.000  C
  C168     1.0000 0.50464  0.78780  0.14240  Biso   1.000  C
  H112     1.0000 0.51100  0.81070  0.14430  Biso   1.000  H
  O112     1.0000 0.44180  0.89210  0.16010  Biso   1.000  O
  O113     1.0000 0.67382  0.71411  0.12457  Biso   1.000  O
  C169     1.0000 0.72101  0.76354  0.11380  Biso   1.000  C
  H113     1.0000 0.69810  0.76980  0.11620  Biso   1.000  H
  C170     1.0000 0.84142  0.88399  0.09070  Biso   1.000  C
  C171     1.0000 0.74536  0.78780  0.10760  Biso   1.000  C
  H114     1.0000 0.73900  0.81070  0.10570  Biso   1.000  H
  O114     1.0000 0.80820  0.89210  0.08990  Biso   1.000  O
  O115     1.0000 0.67382  0.21411  0.62457  Biso   1.000  O
  C172     1.0000 0.72101  0.26354  0.61380  Biso   1.000  C
  H115     1.0000 0.69810  0.26980  0.61620  Biso   1.000  H
  C173     1.0000 0.84142  0.38399  0.59070  Biso   1.000  C
  C174     1.0000 0.74536  0.28780  0.60760  Biso   1.000  C
  H116     1.0000 0.73900  0.31070  0.60570  Biso   1.000  H
  O116     1.0000 0.80820  0.39210  0.58990  Biso   1.000  O
  O117     1.0000 0.17382  0.71411  0.62457  Biso   1.000  O
  C175     1.0000 0.22101  0.76354  0.61380  Biso   1.000  C
  H117     1.0000 0.19810  0.76980  0.61620  Biso   1.000  H
  C176     1.0000 0.34142  0.88399  0.59070  Biso   1.000  C
  C177     1.0000 0.24536  0.78780  0.60760  Biso   1.000  C
  H118     1.0000 0.23900  0.81070  0.60570  Biso   1.000  H
  O118     1.0000 0.30820  0.89210  0.58990  Biso   1.000  O
  O119     1.0000 0.17382  0.21411  0.12457  Biso   1.000  O
  C178     1.0000 0.22101  0.26354  0.11380  Biso   1.000  C
  H119     1.0000 0.19810  0.26980  0.11620  Biso   1.000  H
  C179     1.0000 0.34142  0.38399  0.09070  Biso   1.000  C
  C180     1.0000 0.24536  0.28780  0.10760  Biso   1.000  C
  H120     1.0000 0.23900  0.31070  0.10570  Biso   1.000  H
  O120     1.0000 0.30820  0.39210  0.08990  Biso   1.000  O
  O121     1.0000 0.57618  0.03589  0.62457  Biso   1.000  O
  C181     1.0000 0.52899  0.98646  0.61380  Biso   1.000  C
  H121     1.0000 0.55190  0.98020  0.61620  Biso   1.000  H
  C182     1.0000 0.40858  0.86601  0.59070  Biso   1.000  C
  C183     1.0000 0.50464  0.96220  0.60760  Biso   1.000  C
  H122     1.0000 0.51100  0.93930  0.60570  Biso   1.000  H
  O122     1.0000 0.44180  0.85790  0.58990  Biso   1.000  O
  O123     1.0000 0.57618  0.53589  0.12457  Biso   1.000  O
  C184     1.0000 0.52899  0.48646  0.11380  Biso   1.000  C
  H123     1.0000 0.55190  0.48020  0.11620  Biso   1.000  H
  C185     1.0000 0.40858  0.36601  0.09070  Biso   1.000  C
  C186     1.0000 0.50464  0.46220  0.10760  Biso   1.000  C
  H124     1.0000 0.51100  0.43930  0.10570  Biso   1.000  H
  O124     1.0000 0.44180  0.35790  0.08990  Biso   1.000  O
  O125     1.0000 0.07618  0.03589  0.12457  Biso   1.000  O
  C187     1.0000 0.02899  0.98646  0.11380  Biso   1.000  C
  H125     1.0000 0.05190  0.98020  0.11620  Biso   1.000  H
  C188     1.0000 0.90858  0.86601  0.09070  Biso   1.000  C
  C189     1.0000 0.00464  0.96220  0.10760  Biso   1.000  C
  H126     1.0000 0.01100  0.93930  0.10570  Biso   1.000  H
  O126     1.0000 0.94180  0.85790  0.08990  Biso   1.000  O
  O127     1.0000 0.07618  0.53589  0.62457  Biso   1.000  O
  C190     1.0000 0.02899  0.48646  0.61380  Biso   1.000  C
  H127     1.0000 0.05190  0.48020  0.61620  Biso   1.000  H
  C191     1.0000 0.90858  0.36601  0.59070  Biso   1.000  C
  C192     1.0000 0.00464  0.46220  0.60760  Biso   1.000  C
  H128     1.0000 0.01100  0.43930  0.60570  Biso   1.000  H
  O128     1.0000 0.94180  0.35790  0.58990  Biso   1.000  O
  O129     1.0000 0.03589  0.62457  0.57618  Biso   1.000  O
  C193     1.0000 0.98646  0.61380  0.52899  Biso   1.000  C
  H129     1.0000 0.98020  0.61620  0.55190  Biso   1.000  H
  C194     1.0000 0.86601  0.59070  0.40858  Biso   1.000  C
  C195     1.0000 0.96220  0.60760  0.50464  Biso   1.000  C
  H130     1.0000 0.93930  0.60570  0.51100  Biso   1.000  H
  O130     1.0000 0.85790  0.58990  0.44180  Biso   1.000  O
  O131     1.0000 0.03589  0.12457  0.07618  Biso   1.000  O
  C196     1.0000 0.98646  0.11380  0.02899  Biso   1.000  C
  H131     1.0000 0.98020  0.11620  0.05190  Biso   1.000  H
  C197     1.0000 0.86601  0.09070  0.90858  Biso   1.000  C
  C198     1.0000 0.96220  0.10760  0.00464  Biso   1.000  C
  H132     1.0000 0.93930  0.10570  0.01100  Biso   1.000  H
  O132     1.0000 0.85790  0.08990  0.94180  Biso   1.000  O
  O133     1.0000 0.53589  0.62457  0.07618  Biso   1.000  O
  C199     1.0000 0.48646  0.61380  0.02899  Biso   1.000  C
  H133     1.0000 0.48020  0.61620  0.05190  Biso   1.000  H
  C200     1.0000 0.36601  0.59070  0.90858  Biso   1.000  C
  C201     1.0000 0.46220  0.60760  0.00464  Biso   1.000  C
  H134     1.0000 0.43930  0.60570  0.01100  Biso   1.000  H
  O134     1.0000 0.35790  0.58990  0.94180  Biso   1.000  O
  O135     1.0000 0.53589  0.12457  0.57618  Biso   1.000  O
  C202     1.0000 0.48646  0.11380  0.52899  Biso   1.000  C
  H135     1.0000 0.48020  0.11620  0.55190  Biso   1.000  H
  C203     1.0000 0.36601  0.09070  0.40858  Biso   1.000  C
  C204     1.0000 0.46220  0.10760  0.50464  Biso   1.000  C
  H136     1.0000 0.43930  0.10570  0.51100  Biso   1.000  H
  O136     1.0000 0.35790  0.08990  0.44180  Biso   1.000  O
  O137     1.0000 0.71411  0.12457  0.67382  Biso   1.000  O
  C205     1.0000 0.76354  0.11380  0.72101  Biso   1.000  C
  H137     1.0000 0.76980  0.11620  0.69810  Biso   1.000  H
  C206     1.0000 0.88399  0.09070  0.84142  Biso   1.000  C
  C207     1.0000 0.78780  0.10760  0.74536  Biso   1.000  C
  H138     1.0000 0.81070  0.10570  0.73900  Biso   1.000  H
  O138     1.0000 0.89210  0.08990  0.80820  Biso   1.000  O
  O139     1.0000 0.71411  0.62457  0.17382  Biso   1.000  O
  C208     1.0000 0.76354  0.61380  0.22101  Biso   1.000  C
  H139     1.0000 0.76980  0.61620  0.19810  Biso   1.000  H
  C209     1.0000 0.88399  0.59070  0.34142  Biso   1.000  C
  C210     1.0000 0.78780  0.60760  0.24536  Biso   1.000  C
  H140     1.0000 0.81070  0.60570  0.23900  Biso   1.000  H
  O140     1.0000 0.89210  0.58990  0.30820  Biso   1.000  O
  O141     1.0000 0.21411  0.12457  0.17382  Biso   1.000  O
  C211     1.0000 0.26354  0.11380  0.22101  Biso   1.000  C
  H141     1.0000 0.26980  0.11620  0.19810  Biso   1.000  H
  C212     1.0000 0.38399  0.09070  0.34142  Biso   1.000  C
  C213     1.0000 0.28780  0.10760  0.24536  Biso   1.000  C
  H142     1.0000 0.31070  0.10570  0.23900  Biso   1.000  H
  O142     1.0000 0.39210  0.08990  0.30820  Biso   1.000  O
  O143     1.0000 0.21411  0.62457  0.67382  Biso   1.000  O
  C214     1.0000 0.26354  0.61380  0.72101  Biso   1.000  C
  H143     1.0000 0.26980  0.61620  0.69810  Biso   1.000  H
  C215     1.0000 0.38399  0.59070  0.84142  Biso   1.000  C
  C216     1.0000 0.28780  0.60760  0.74536  Biso   1.000  C
  H144     1.0000 0.31070  0.60570  0.73900  Biso   1.000  H
  O144     1.0000 0.39210  0.58990  0.80820  Biso   1.000  O
  O145     1.0000 0.21411  0.12543  0.07618  Biso   1.000  O
  C217     1.0000 0.26354  0.13620  0.02899  Biso   1.000  C
  H145     1.0000 0.26980  0.13380  0.05190  Biso   1.000  H
  C218     1.0000 0.38399  0.15930  0.90858  Biso   1.000  C
  C219     1.0000 0.28780  0.14240  0.00464  Biso   1.000  C
  H146     1.0000 0.31070  0.14430  0.01100  Biso   1.000  H
  O146     1.0000 0.39210  0.16010  0.94180  Biso   1.000  O
  O147     1.0000 0.21411  0.62543  0.57618  Biso   1.000  O
  C220     1.0000 0.26354  0.63620  0.52899  Biso   1.000  C
  H147     1.0000 0.26980  0.63380  0.55190  Biso   1.000  H
  C221     1.0000 0.38399  0.65930  0.40858  Biso   1.000  C
  C222     1.0000 0.28780  0.64240  0.50464  Biso   1.000  C
  H148     1.0000 0.31070  0.64430  0.51100  Biso   1.000  H
  O148     1.0000 0.39210  0.66010  0.44180  Biso   1.000  O
  O149     1.0000 0.71411  0.12543  0.57618  Biso   1.000  O
  C223     1.0000 0.76354  0.13620  0.52899  Biso   1.000  C
  H149     1.0000 0.76980  0.13380  0.55190  Biso   1.000  H
  C224     1.0000 0.88399  0.15930  0.40858  Biso   1.000  C
  C225     1.0000 0.78780  0.14240  0.50464  Biso   1.000  C
  H150     1.0000 0.81070  0.14430  0.51100  Biso   1.000  H
  O150     1.0000 0.89210  0.16010  0.44180  Biso   1.000  O
  O151     1.0000 0.71411  0.62543  0.07618  Biso   1.000  O
  C226     1.0000 0.76354  0.63620  0.02899  Biso   1.000  C
  H151     1.0000 0.76980  0.63380  0.05190  Biso   1.000  H
  C227     1.0000 0.88399  0.65930  0.90858  Biso   1.000  C
  C228     1.0000 0.78780  0.64240  0.00464  Biso   1.000  C
  H152     1.0000 0.81070  0.64430  0.01100  Biso   1.000  H
  O152     1.0000 0.89210  0.66010  0.94180  Biso   1.000  O
  O153     1.0000 0.53589  0.62543  0.17382  Biso   1.000  O
  C229     1.0000 0.48646  0.63620  0.22101  Biso   1.000  C
  H153     1.0000 0.48020  0.63380  0.19810  Biso   1.000  H
  C230     1.0000 0.36601  0.65930  0.34142  Biso   1.000  C
  C231     1.0000 0.46220  0.64240  0.24536  Biso   1.000  C
  H154     1.0000 0.43930  0.64430  0.23900  Biso   1.000  H
  O154     1.0000 0.35790  0.66010  0.30820  Biso   1.000  O
  O155     1.0000 0.53589  0.12543  0.67382  Biso   1.000  O
  C232     1.0000 0.48646  0.13620  0.72101  Biso   1.000  C
  H155     1.0000 0.48020  0.13380  0.69810  Biso   1.000  H
  C233     1.0000 0.36601  0.15930  0.84142  Biso   1.000  C
  C234     1.0000 0.46220  0.14240  0.74536  Biso   1.000  C
  H156     1.0000 0.43930  0.14430  0.73900  Biso   1.000  H
  O156     1.0000 0.35790  0.16010  0.80820  Biso   1.000  O
  O157     1.0000 0.03589  0.62543  0.67382  Biso   1.000  O
  C235     1.0000 0.98646  0.63620  0.72101  Biso   1.000  C
  H157     1.0000 0.98020  0.63380  0.69810  Biso   1.000  H
  C236     1.0000 0.86601  0.65930  0.84142  Biso   1.000  C
  C237     1.0000 0.96220  0.64240  0.74536  Biso   1.000  C
  H158     1.0000 0.93930  0.64430  0.73900  Biso   1.000  H
  O158     1.0000 0.85790  0.66010  0.80820  Biso   1.000  O
  O159     1.0000 0.03589  0.12543  0.17382  Biso   1.000  O
  C238     1.0000 0.98646  0.13620  0.22101  Biso   1.000  C
  H159     1.0000 0.98020  0.13380  0.19810  Biso   1.000  H
  C239     1.0000 0.86601  0.15930  0.34142  Biso   1.000  C
  C240     1.0000 0.96220  0.14240  0.24536  Biso   1.000  C
  H160     1.0000 0.93930  0.14430  0.23900  Biso   1.000  H
  O160     1.0000 0.85790  0.16010  0.30820  Biso   1.000  O
  O161     1.0000 0.12457  0.67382  0.71411  Biso   1.000  O
  C241     1.0000 0.11380  0.72101  0.76354  Biso   1.000  C
  H161     1.0000 0.11620  0.69810  0.76980  Biso   1.000  H
  C242     1.0000 0.09070  0.84142  0.88399  Biso   1.000  C
  C243     1.0000 0.10760  0.74536  0.78780  Biso   1.000  C
  H162     1.0000 0.10570  0.73900  0.81070  Biso   1.000  H
  O162     1.0000 0.08990  0.80820  0.89210  Biso   1.000  O
  O163     1.0000 0.12457  0.17382  0.21411  Biso   1.000  O
  C244     1.0000 0.11380  0.22101  0.26354  Biso   1.000  C
  H163     1.0000 0.11620  0.19810  0.26980  Biso   1.000  H
  C245     1.0000 0.09070  0.34142  0.38399  Biso   1.000  C
  C246     1.0000 0.10760  0.24536  0.28780  Biso   1.000  C
  H164     1.0000 0.10570  0.23900  0.31070  Biso   1.000  H
  O164     1.0000 0.08990  0.30820  0.39210  Biso   1.000  O
  O165     1.0000 0.62457  0.67382  0.21411  Biso   1.000  O
  C247     1.0000 0.61380  0.72101  0.26354  Biso   1.000  C
  H165     1.0000 0.61620  0.69810  0.26980  Biso   1.000  H
  C248     1.0000 0.59070  0.84142  0.38399  Biso   1.000  C
  C249     1.0000 0.60760  0.74536  0.28780  Biso   1.000  C
  H166     1.0000 0.60570  0.73900  0.31070  Biso   1.000  H
  O166     1.0000 0.58990  0.80820  0.39210  Biso   1.000  O
  O167     1.0000 0.62457  0.17382  0.71411  Biso   1.000  O
  C250     1.0000 0.61380  0.22101  0.76354  Biso   1.000  C
  H167     1.0000 0.61620  0.19810  0.76980  Biso   1.000  H
  C251     1.0000 0.59070  0.34142  0.88399  Biso   1.000  C
  C252     1.0000 0.60760  0.24536  0.78780  Biso   1.000  C
  H168     1.0000 0.60570  0.23900  0.81070  Biso   1.000  H
  O168     1.0000 0.58990  0.30820  0.89210  Biso   1.000  O
  O169     1.0000 0.62457  0.57618  0.03589  Biso   1.000  O
  C253     1.0000 0.61380  0.52899  0.98646  Biso   1.000  C
  H169     1.0000 0.61620  0.55190  0.98020  Biso   1.000  H
  C254     1.0000 0.59070  0.40858  0.86601  Biso   1.000  C
  C255     1.0000 0.60760  0.50464  0.96220  Biso   1.000  C
  H170     1.0000 0.60570  0.51100  0.93930  Biso   1.000  H
  O170     1.0000 0.58990  0.44180  0.85790  Biso   1.000  O
  O171     1.0000 0.62457  0.07618  0.53589  Biso   1.000  O
  C256     1.0000 0.61380  0.02899  0.48646  Biso   1.000  C
  H171     1.0000 0.61620  0.05190  0.48020  Biso   1.000  H
  C257     1.0000 0.59070  0.90858  0.36601  Biso   1.000  C
  C258     1.0000 0.60760  0.00464  0.46220  Biso   1.000  C
  H172     1.0000 0.60570  0.01100  0.43930  Biso   1.000  H
  O172     1.0000 0.58990  0.94180  0.35790  Biso   1.000  O
  O173     1.0000 0.12457  0.57618  0.53589  Biso   1.000  O
  C259     1.0000 0.11380  0.52899  0.48646  Biso   1.000  C
  H173     1.0000 0.11620  0.55190  0.48020  Biso   1.000  H
  C260     1.0000 0.09070  0.40858  0.36601  Biso   1.000  C
  C261     1.0000 0.10760  0.50464  0.46220  Biso   1.000  C
  H174     1.0000 0.10570  0.51100  0.43930  Biso   1.000  H
  O174     1.0000 0.08990  0.44180  0.35790  Biso   1.000  O
  O175     1.0000 0.12457  0.07618  0.03589  Biso   1.000  O
  C262     1.0000 0.11380  0.02899  0.98646  Biso   1.000  C
  H175     1.0000 0.11620  0.05190  0.98020  Biso   1.000  H
  C263     1.0000 0.09070  0.90858  0.86601  Biso   1.000  C
  C264     1.0000 0.10760  0.00464  0.96220  Biso   1.000  C
  H176     1.0000 0.10570  0.01100  0.93930  Biso   1.000  H
  O176     1.0000 0.08990  0.94180  0.85790  Biso   1.000  O
  O177     1.0000 0.62543  0.17382  0.53589  Biso   1.000  O
  C265     1.0000 0.63620  0.22101  0.48646  Biso   1.000  C
  H177     1.0000 0.63380  0.19810  0.48020  Biso   1.000  H
  C266     1.0000 0.65930  0.34142  0.36601  Biso   1.000  C
  C267     1.0000 0.64240  0.24536  0.46220  Biso   1.000  C
  H178     1.0000 0.64430  0.23900  0.43930  Biso   1.000  H
  O178     1.0000 0.66010  0.30820  0.35790  Biso   1.000  O
  O179     1.0000 0.62543  0.67382  0.03589  Biso   1.000  O
  C268     1.0000 0.63620  0.72101  0.98646  Biso   1.000  C
  H179     1.0000 0.63380  0.69810  0.98020  Biso   1.000  H
  C269     1.0000 0.65930  0.84142  0.86601  Biso   1.000  C
  C270     1.0000 0.64240  0.74536  0.96220  Biso   1.000  C
  H180     1.0000 0.64430  0.73900  0.93930  Biso   1.000  H
  O180     1.0000 0.66010  0.80820  0.85790  Biso   1.000  O
  O181     1.0000 0.12543  0.17382  0.03589  Biso   1.000  O
  C271     1.0000 0.13620  0.22101  0.98646  Biso   1.000  C
  H181     1.0000 0.13380  0.19810  0.98020  Biso   1.000  H
  C272     1.0000 0.15930  0.34142  0.86601  Biso   1.000  C
  C273     1.0000 0.14240  0.24536  0.96220  Biso   1.000  C
  H182     1.0000 0.14430  0.23900  0.93930  Biso   1.000  H
  O182     1.0000 0.16010  0.30820  0.85790  Biso   1.000  O
  O183     1.0000 0.12543  0.67382  0.53589  Biso   1.000  O
  C274     1.0000 0.13620  0.72101  0.48646  Biso   1.000  C
  H183     1.0000 0.13380  0.69810  0.48020  Biso   1.000  H
  C275     1.0000 0.15930  0.84142  0.36601  Biso   1.000  C
  C276     1.0000 0.14240  0.74536  0.46220  Biso   1.000  C
  H184     1.0000 0.14430  0.73900  0.43930  Biso   1.000  H
  O184     1.0000 0.16010  0.80820  0.35790  Biso   1.000  O
  O185     1.0000 0.12543  0.07618  0.21411  Biso   1.000  O
  C277     1.0000 0.13620  0.02899  0.26354  Biso   1.000  C
  H185     1.0000 0.13380  0.05190  0.26980  Biso   1.000  H
  C278     1.0000 0.15930  0.90858  0.38399  Biso   1.000  C
  C279     1.0000 0.14240  0.00464  0.28780  Biso   1.000  C
  H186     1.0000 0.14430  0.01100  0.31070  Biso   1.000  H
  O186     1.0000 0.16010  0.94180  0.39210  Biso   1.000  O
  O187     1.0000 0.12543  0.57618  0.71411  Biso   1.000  O
  C280     1.0000 0.13620  0.52899  0.76354  Biso   1.000  C
  H187     1.0000 0.13380  0.55190  0.76980  Biso   1.000  H
  C281     1.0000 0.15930  0.40858  0.88399  Biso   1.000  C
  C282     1.0000 0.14240  0.50464  0.78780  Biso   1.000  C
  H188     1.0000 0.14430  0.51100  0.81070  Biso   1.000  H
  O188     1.0000 0.16010  0.44180  0.89210  Biso   1.000  O
  O189     1.0000 0.62543  0.07618  0.71411  Biso   1.000  O
  C283     1.0000 0.63620  0.02899  0.76354  Biso   1.000  C
  H189     1.0000 0.63380  0.05190  0.76980  Biso   1.000  H
  C284     1.0000 0.65930  0.90858  0.88399  Biso   1.000  C
  C285     1.0000 0.64240  0.00464  0.78780  Biso   1.000  C
  H190     1.0000 0.64430  0.01100  0.81070  Biso   1.000  H
  O190     1.0000 0.66010  0.94180  0.89210  Biso   1.000  O
  O191     1.0000 0.62543  0.57618  0.21411  Biso   1.000  O
  C286     1.0000 0.63620  0.52899  0.26354  Biso   1.000  C
  H191     1.0000 0.63380  0.55190  0.26980  Biso   1.000  H
  C287     1.0000 0.65930  0.40858  0.38399  Biso   1.000  C
  C288     1.0000 0.64240  0.50464  0.28780  Biso   1.000  C
  H192     1.0000 0.64430  0.51100  0.31070  Biso   1.000  H
  O192     1.0000 0.66010  0.44180  0.39210  Biso   1.000  O
  Zr1      1.0000 0.18719  0.12500  0.12500  Biso   1.000  Zr
  Zr2      1.0000 0.18719  0.62500  0.62500  Biso   1.000  Zr
  Zr3      1.0000 0.68719  0.12500  0.62500  Biso   1.000  Zr
  Zr4      1.0000 0.68719  0.62500  0.12500  Biso   1.000  Zr
  Zr5      1.0000 0.56281  0.12500  0.62500  Biso   1.000  Zr
  Zr6      1.0000 0.06281  0.62500  0.62500  Biso   1.000  Zr
  Zr7      1.0000 0.06281  0.12500  0.12500  Biso   1.000  Zr
  Zr8      1.0000 0.12500  0.18719  0.12500  Biso   1.000  Zr
  Zr9      1.0000 0.12500  0.68719  0.62500  Biso   1.000  Zr
  Zr10     1.0000 0.62500  0.68719  0.12500  Biso   1.000  Zr
  Zr11     1.0000 0.62500  0.56281  0.12500  Biso   1.000  Zr
  Zr12     1.0000 0.62500  0.06281  0.62500  Biso   1.000  Zr
  Zr13     1.0000 0.62500  0.18719  0.62500  Biso   1.000  Zr
  Zr14     1.0000 0.12500  0.12500  0.18719  Biso   1.000  Zr
  Zr15     1.0000 0.12500  0.62500  0.68719  Biso   1.000  Zr
  Zr16     1.0000 0.62500  0.12500  0.68719  Biso   1.000  Zr
  Zr17     1.0000 0.12500  0.62500  0.56281  Biso   1.000  Zr
  Zr18     1.0000 0.12500  0.12500  0.06281  Biso   1.000  Zr
  Zr19     1.0000 0.62500  0.62500  0.06281  Biso   1.000  Zr
  Zr20     1.0000 0.62500  0.62500  0.18719  Biso   1.000  Zr
  Zr21     1.0000 0.12500  0.56281  0.62500  Biso   1.000  Zr
  Zr22     1.0000 0.12500  0.06281  0.12500  Biso   1.000  Zr
  Zr23     1.0000 0.56281  0.62500  0.12500  Biso   1.000  Zr
  Zr24     1.0000 0.62500  0.12500  0.56281  Biso   1.000  Zr
  O193     1.0000 0.15410  0.15410  0.09590  Biso   1.000  O
  O194     1.0000 0.15410  0.65410  0.59590  Biso   1.000  O
  O195     1.0000 0.65410  0.15410  0.59590  Biso   1.000  O
  O196     1.0000 0.65410  0.65410  0.09590  Biso   1.000  O
  O197     1.0000 0.59590  0.09590  0.59590  Biso   1.000  O
  O198     1.0000 0.09590  0.65410  0.65410  Biso   1.000  O
  O199     1.0000 0.65410  0.59590  0.15410  Biso   1.000  O
  O200     1.0000 0.09590  0.15410  0.15410  Biso   1.000  O
  O201     1.0000 0.59590  0.15410  0.65410  Biso   1.000  O
  O202     1.0000 0.59590  0.65410  0.15410  Biso   1.000  O
  O203     1.0000 0.59590  0.59590  0.09590  Biso   1.000  O
  O204     1.0000 0.65410  0.09590  0.65410  Biso   1.000  O
  O205     1.0000 0.15410  0.09590  0.15410  Biso   1.000  O
  O206     1.0000 0.15410  0.59590  0.65410  Biso   1.000  O
  O207     1.0000 0.09590  0.59590  0.59590  Biso   1.000  O
  O208     1.0000 0.09590  0.09590  0.09590  Biso   1.000  O
  O209     1.0000 0.15720  0.09280  0.09280  Biso   1.000  O
  O210     1.0000 0.15720  0.59280  0.59280  Biso   1.000  O
  O211     1.0000 0.65720  0.09280  0.59280  Biso   1.000  O
  O212     1.0000 0.65720  0.59280  0.09280  Biso   1.000  O
  O213     1.0000 0.59280  0.15720  0.59280  Biso   1.000  O
  O214     1.0000 0.09280  0.59280  0.65720  Biso   1.000  O
  O215     1.0000 0.65720  0.65720  0.15720  Biso   1.000  O
  O216     1.0000 0.09280  0.15720  0.09280  Biso   1.000  O
  O217     1.0000 0.09280  0.65720  0.59280  Biso   1.000  O
  O218     1.0000 0.59280  0.65720  0.09280  Biso   1.000  O
  O219     1.0000 0.59280  0.59280  0.15720  Biso   1.000  O
  O220     1.0000 0.15720  0.65720  0.65720  Biso   1.000  O
  O221     1.0000 0.15720  0.15720  0.15720  Biso   1.000  O
  O222     1.0000 0.09280  0.09280  0.15720  Biso   1.000  O
  O223     1.0000 0.59280  0.09280  0.65720  Biso   1.000  O
  O224     1.0000 0.65720  0.15720  0.65720  Biso   1.000  O
  C289     1.0000 0.20399  0.04601  0.12764  Biso   1.000  C
  C290     1.0000 0.23027  0.01973  0.13360  Biso   1.000  C
  C291     1.0000 0.35022  0.89978  0.15850  Biso   1.000  C
  C292     1.0000 0.27886  0.97114  0.14570  Biso   1.000  C
  C293     1.0000 0.30404  0.94596  0.15050  Biso   1.000  C
  C294     1.0000 0.32499  0.92501  0.15520  Biso   1.000  C
  C295     1.0000 0.20399  0.54601  0.62764  Biso   1.000  C
  C296     1.0000 0.23027  0.51973  0.63360  Biso   1.000  C
  C297     1.0000 0.35022  0.39978  0.65850  Biso   1.000  C
  C298     1.0000 0.27886  0.47114  0.64570  Biso   1.000  C
  C299     1.0000 0.30404  0.44596  0.65050  Biso   1.000  C
  C300     1.0000 0.32499  0.42501  0.65520  Biso   1.000  C
  C301     1.0000 0.70399  0.04601  0.62764  Biso   1.000  C
  C302     1.0000 0.73027  0.01973  0.63360  Biso   1.000  C
  C303     1.0000 0.85022  0.89978  0.65850  Biso   1.000  C
  C304     1.0000 0.77886  0.97114  0.64570  Biso   1.000  C
  C305     1.0000 0.80404  0.94596  0.65050  Biso   1.000  C
  C306     1.0000 0.82499  0.92501  0.65520  Biso   1.000  C
  C307     1.0000 0.54601  0.20399  0.62764  Biso   1.000  C
  C308     1.0000 0.51973  0.23027  0.63360  Biso   1.000  C
  C309     1.0000 0.39978  0.35022  0.65850  Biso   1.000  C
  C310     1.0000 0.47114  0.27886  0.64570  Biso   1.000  C
  C311     1.0000 0.44596  0.30404  0.65050  Biso   1.000  C
  C312     1.0000 0.42501  0.32499  0.65520  Biso   1.000  C
  C313     1.0000 0.54601  0.70399  0.12764  Biso   1.000  C
  C314     1.0000 0.51973  0.73027  0.13360  Biso   1.000  C
  C315     1.0000 0.39978  0.85022  0.15850  Biso   1.000  C
  C316     1.0000 0.47114  0.77886  0.14570  Biso   1.000  C
  C317     1.0000 0.44596  0.80404  0.15050  Biso   1.000  C
  C318     1.0000 0.42501  0.82499  0.15520  Biso   1.000  C
  C319     1.0000 0.04601  0.54601  0.62236  Biso   1.000  C
  C320     1.0000 0.01973  0.51973  0.61640  Biso   1.000  C
  C321     1.0000 0.89978  0.39978  0.59150  Biso   1.000  C
  C322     1.0000 0.97114  0.47114  0.60430  Biso   1.000  C
  C323     1.0000 0.94596  0.44596  0.59950  Biso   1.000  C
  C324     1.0000 0.92501  0.42501  0.59480  Biso   1.000  C
  C325     1.0000 0.04601  0.04601  0.12236  Biso   1.000  C
  C326     1.0000 0.01973  0.01973  0.11640  Biso   1.000  C
  C327     1.0000 0.89978  0.89978  0.09150  Biso   1.000  C
  C328     1.0000 0.97114  0.97114  0.10430  Biso   1.000  C
  C329     1.0000 0.94596  0.94596  0.09950  Biso   1.000  C
  C330     1.0000 0.92501  0.92501  0.09480  Biso   1.000  C
  C331     1.0000 0.54601  0.54601  0.12236  Biso   1.000  C
  C332     1.0000 0.51973  0.51973  0.11640  Biso   1.000  C
  C333     1.0000 0.39978  0.39978  0.09150  Biso   1.000  C
  C334     1.0000 0.47114  0.47114  0.10430  Biso   1.000  C
  C335     1.0000 0.44596  0.44596  0.09950  Biso   1.000  C
  C336     1.0000 0.42501  0.42501  0.09480  Biso   1.000  C
  C337     1.0000 0.70399  0.70399  0.12236  Biso   1.000  C
  C338     1.0000 0.73027  0.73027  0.11640  Biso   1.000  C
  C339     1.0000 0.85022  0.85022  0.09150  Biso   1.000  C
  C340     1.0000 0.77886  0.77886  0.10430  Biso   1.000  C
  C341     1.0000 0.80404  0.80404  0.09950  Biso   1.000  C
  C342     1.0000 0.82499  0.82499  0.09480  Biso   1.000  C
  C343     1.0000 0.70399  0.20399  0.62236  Biso   1.000  C
  C344     1.0000 0.73027  0.23027  0.61640  Biso   1.000  C
  C345     1.0000 0.85022  0.35022  0.59150  Biso   1.000  C
  C346     1.0000 0.77886  0.27886  0.60430  Biso   1.000  C
  C347     1.0000 0.80404  0.30404  0.59950  Biso   1.000  C
  C348     1.0000 0.82499  0.32499  0.59480  Biso   1.000  C
  C349     1.0000 0.20399  0.70399  0.62236  Biso   1.000  C
  C350     1.0000 0.23027  0.73027  0.61640  Biso   1.000  C
  C351     1.0000 0.35022  0.85022  0.59150  Biso   1.000  C
  C352     1.0000 0.27886  0.77886  0.60430  Biso   1.000  C
  C353     1.0000 0.30404  0.80404  0.59950  Biso   1.000  C
  C354     1.0000 0.32499  0.82499  0.59480  Biso   1.000  C
  C355     1.0000 0.20399  0.20399  0.12236  Biso   1.000  C
  C356     1.0000 0.23027  0.23027  0.11640  Biso   1.000  C
  C357     1.0000 0.35022  0.35022  0.09150  Biso   1.000  C
  C358     1.0000 0.27886  0.27886  0.10430  Biso   1.000  C
  C359     1.0000 0.30404  0.30404  0.09950  Biso   1.000  C
  C360     1.0000 0.32499  0.32499  0.09480  Biso   1.000  C
  C361     1.0000 0.12764  0.20399  0.04601  Biso   1.000  C
  C362     1.0000 0.13360  0.23027  0.01973  Biso   1.000  C
  C363     1.0000 0.15850  0.35022  0.89978  Biso   1.000  C
  C364     1.0000 0.14570  0.27886  0.97114  Biso   1.000  C
  C365     1.0000 0.15050  0.30404  0.94596  Biso   1.000  C
  C366     1.0000 0.15520  0.32499  0.92501  Biso   1.000  C
  C367     1.0000 0.12764  0.70399  0.54601  Biso   1.000  C
  C368     1.0000 0.13360  0.73027  0.51973  Biso   1.000  C
  C369     1.0000 0.15850  0.85022  0.39978  Biso   1.000  C
  C370     1.0000 0.14570  0.77886  0.47114  Biso   1.000  C
  C371     1.0000 0.15050  0.80404  0.44596  Biso   1.000  C
  C372     1.0000 0.15520  0.82499  0.42501  Biso   1.000  C
  C373     1.0000 0.62764  0.20399  0.54601  Biso   1.000  C
  C374     1.0000 0.63360  0.23027  0.51973  Biso   1.000  C
  C375     1.0000 0.65850  0.35022  0.39978  Biso   1.000  C
  C376     1.0000 0.64570  0.27886  0.47114  Biso   1.000  C
  C377     1.0000 0.65050  0.30404  0.44596  Biso   1.000  C
  C378     1.0000 0.65520  0.32499  0.42501  Biso   1.000  C
  C379     1.0000 0.62764  0.54601  0.20399  Biso   1.000  C
  C380     1.0000 0.63360  0.51973  0.23027  Biso   1.000  C
  C381     1.0000 0.65850  0.39978  0.35022  Biso   1.000  C
  C382     1.0000 0.64570  0.47114  0.27886  Biso   1.000  C
  C383     1.0000 0.65050  0.44596  0.30404  Biso   1.000  C
  C384     1.0000 0.65520  0.42501  0.32499  Biso   1.000  C
  C385     1.0000 0.62764  0.04601  0.70399  Biso   1.000  C
  C386     1.0000 0.63360  0.01973  0.73027  Biso   1.000  C
  C387     1.0000 0.65850  0.89978  0.85022  Biso   1.000  C
  C388     1.0000 0.64570  0.97114  0.77886  Biso   1.000  C
  C389     1.0000 0.65050  0.94596  0.80404  Biso   1.000  C
  C390     1.0000 0.65520  0.92501  0.82499  Biso   1.000  C
  C391     1.0000 0.62236  0.04601  0.54601  Biso   1.000  C
  C392     1.0000 0.61640  0.01973  0.51973  Biso   1.000  C
  C393     1.0000 0.59150  0.89978  0.39978  Biso   1.000  C
  C394     1.0000 0.60430  0.97114  0.47114  Biso   1.000  C
  C395     1.0000 0.59950  0.94596  0.44596  Biso   1.000  C
  C396     1.0000 0.59480  0.92501  0.42501  Biso   1.000  C
  C397     1.0000 0.12236  0.04601  0.04601  Biso   1.000  C
  C398     1.0000 0.11640  0.01973  0.01973  Biso   1.000  C
  C399     1.0000 0.09150  0.89978  0.89978  Biso   1.000  C
  C400     1.0000 0.10430  0.97114  0.97114  Biso   1.000  C
  C401     1.0000 0.09950  0.94596  0.94596  Biso   1.000  C
  C402     1.0000 0.09480  0.92501  0.92501  Biso   1.000  C
  C403     1.0000 0.12236  0.54601  0.54601  Biso   1.000  C
  C404     1.0000 0.11640  0.51973  0.51973  Biso   1.000  C
  C405     1.0000 0.09150  0.39978  0.39978  Biso   1.000  C
  C406     1.0000 0.10430  0.47114  0.47114  Biso   1.000  C
  C407     1.0000 0.09950  0.44596  0.44596  Biso   1.000  C
  C408     1.0000 0.09480  0.42501  0.42501  Biso   1.000  C
  C409     1.0000 0.12236  0.70399  0.70399  Biso   1.000  C
  C410     1.0000 0.11640  0.73027  0.73027  Biso   1.000  C
  C411     1.0000 0.09150  0.85022  0.85022  Biso   1.000  C
  C412     1.0000 0.10430  0.77886  0.77886  Biso   1.000  C
  C413     1.0000 0.09950  0.80404  0.80404  Biso   1.000  C
  C414     1.0000 0.09480  0.82499  0.82499  Biso   1.000  C
  C415     1.0000 0.12236  0.20399  0.20399  Biso   1.000  C
  C416     1.0000 0.11640  0.23027  0.23027  Biso   1.000  C
  C417     1.0000 0.09150  0.35022  0.35022  Biso   1.000  C
  C418     1.0000 0.10430  0.27886  0.27886  Biso   1.000  C
  C419     1.0000 0.09950  0.30404  0.30404  Biso   1.000  C
  C420     1.0000 0.09480  0.32499  0.32499  Biso   1.000  C
  C421     1.0000 0.62236  0.70399  0.20399  Biso   1.000  C
  C422     1.0000 0.61640  0.73027  0.23027  Biso   1.000  C
  C423     1.0000 0.59150  0.85022  0.35022  Biso   1.000  C
  C424     1.0000 0.60430  0.77886  0.27886  Biso   1.000  C
  C425     1.0000 0.59950  0.80404  0.30404  Biso   1.000  C
  C426     1.0000 0.59480  0.82499  0.32499  Biso   1.000  C
  C427     1.0000 0.62236  0.20399  0.70399  Biso   1.000  C
  C428     1.0000 0.61640  0.23027  0.73027  Biso   1.000  C
  C429     1.0000 0.59150  0.35022  0.85022  Biso   1.000  C
  C430     1.0000 0.60430  0.27886  0.77886  Biso   1.000  C
  C431     1.0000 0.59950  0.30404  0.80404  Biso   1.000  C
  C432     1.0000 0.59480  0.32499  0.82499  Biso   1.000  C
  C433     1.0000 0.04601  0.12764  0.20399  Biso   1.000  C
  C434     1.0000 0.01973  0.13360  0.23027  Biso   1.000  C
  C435     1.0000 0.89978  0.15850  0.35022  Biso   1.000  C
  C436     1.0000 0.97114  0.14570  0.27886  Biso   1.000  C
  C437     1.0000 0.94596  0.15050  0.30404  Biso   1.000  C
  C438     1.0000 0.92501  0.15520  0.32499  Biso   1.000  C
  C439     1.0000 0.04601  0.62764  0.70399  Biso   1.000  C
  C440     1.0000 0.01973  0.63360  0.73027  Biso   1.000  C
  C441     1.0000 0.89978  0.65850  0.85022  Biso   1.000  C
  C442     1.0000 0.97114  0.64570  0.77886  Biso   1.000  C
  C443     1.0000 0.94596  0.65050  0.80404  Biso   1.000  C
  C444     1.0000 0.92501  0.65520  0.82499  Biso   1.000  C
  C445     1.0000 0.54601  0.62764  0.20399  Biso   1.000  C
  C446     1.0000 0.51973  0.63360  0.23027  Biso   1.000  C
  C447     1.0000 0.39978  0.65850  0.35022  Biso   1.000  C
  C448     1.0000 0.47114  0.64570  0.27886  Biso   1.000  C
  C449     1.0000 0.44596  0.65050  0.30404  Biso   1.000  C
  C450     1.0000 0.42501  0.65520  0.32499  Biso   1.000  C
  C451     1.0000 0.20399  0.62764  0.54601  Biso   1.000  C
  C452     1.0000 0.23027  0.63360  0.51973  Biso   1.000  C
  C453     1.0000 0.35022  0.65850  0.39978  Biso   1.000  C
  C454     1.0000 0.27886  0.64570  0.47114  Biso   1.000  C
  C455     1.0000 0.30404  0.65050  0.44596  Biso   1.000  C
  C456     1.0000 0.32499  0.65520  0.42501  Biso   1.000  C
  C457     1.0000 0.70399  0.62764  0.04601  Biso   1.000  C
  C458     1.0000 0.73027  0.63360  0.01973  Biso   1.000  C
  C459     1.0000 0.85022  0.65850  0.89978  Biso   1.000  C
  C460     1.0000 0.77886  0.64570  0.97114  Biso   1.000  C
  C461     1.0000 0.80404  0.65050  0.94596  Biso   1.000  C
  C462     1.0000 0.82499  0.65520  0.92501  Biso   1.000  C
  C463     1.0000 0.54601  0.62236  0.04601  Biso   1.000  C
  C464     1.0000 0.51973  0.61640  0.01973  Biso   1.000  C
  C465     1.0000 0.39978  0.59150  0.89978  Biso   1.000  C
  C466     1.0000 0.47114  0.60430  0.97114  Biso   1.000  C
  C467     1.0000 0.44596  0.59950  0.94596  Biso   1.000  C
  C468     1.0000 0.42501  0.59480  0.92501  Biso   1.000  C
  C469     1.0000 0.54601  0.12236  0.54601  Biso   1.000  C
  C470     1.0000 0.51973  0.11640  0.51973  Biso   1.000  C
  C471     1.0000 0.39978  0.09150  0.39978  Biso   1.000  C
  C472     1.0000 0.47114  0.10430  0.47114  Biso   1.000  C
  C473     1.0000 0.44596  0.09950  0.44596  Biso   1.000  C
  C474     1.0000 0.42501  0.09480  0.42501  Biso   1.000  C
  C475     1.0000 0.70399  0.12236  0.70399  Biso   1.000  C
  C476     1.0000 0.73027  0.11640  0.73027  Biso   1.000  C
  C477     1.0000 0.85022  0.09150  0.85022  Biso   1.000  C
  C478     1.0000 0.77886  0.10430  0.77886  Biso   1.000  C
  C479     1.0000 0.80404  0.09950  0.80404  Biso   1.000  C
  C480     1.0000 0.82499  0.09480  0.82499  Biso   1.000  C
  C481     1.0000 0.70399  0.62236  0.20399  Biso   1.000  C
  C482     1.0000 0.73027  0.61640  0.23027  Biso   1.000  C
  C483     1.0000 0.85022  0.59150  0.35022  Biso   1.000  C
  C484     1.0000 0.77886  0.60430  0.27886  Biso   1.000  C
  C485     1.0000 0.80404  0.59950  0.30404  Biso   1.000  C
  C486     1.0000 0.82499  0.59480  0.32499  Biso   1.000  C
  C487     1.0000 0.20399  0.12236  0.20399  Biso   1.000  C
  C488     1.0000 0.23027  0.11640  0.23027  Biso   1.000  C
  C489     1.0000 0.35022  0.09150  0.35022  Biso   1.000  C
  C490     1.0000 0.27886  0.10430  0.27886  Biso   1.000  C
  C491     1.0000 0.30404  0.09950  0.30404  Biso   1.000  C
  C492     1.0000 0.32499  0.09480  0.32499  Biso   1.000  C
  C493     1.0000 0.20399  0.62236  0.70399  Biso   1.000  C
  C494     1.0000 0.23027  0.61640  0.73027  Biso   1.000  C
  C495     1.0000 0.35022  0.59150  0.85022  Biso   1.000  C
  C496     1.0000 0.27886  0.60430  0.77886  Biso   1.000  C
  C497     1.0000 0.30404  0.59950  0.80404  Biso   1.000  C
  C498     1.0000 0.32499  0.59480  0.82499  Biso   1.000  C
  C499     1.0000 0.70399  0.54601  0.12764  Biso   1.000  C
  C500     1.0000 0.73027  0.51973  0.13360  Biso   1.000  C
  C501     1.0000 0.85022  0.39978  0.15850  Biso   1.000  C
  C502     1.0000 0.77886  0.47114  0.14570  Biso   1.000  C
  C503     1.0000 0.80404  0.44596  0.15050  Biso   1.000  C
  C504     1.0000 0.82499  0.42501  0.15520  Biso   1.000  C
  C505     1.0000 0.04601  0.20399  0.12764  Biso   1.000  C
  C506     1.0000 0.01973  0.23027  0.13360  Biso   1.000  C
  C507     1.0000 0.89978  0.35022  0.15850  Biso   1.000  C
  C508     1.0000 0.97114  0.27886  0.14570  Biso   1.000  C
  C509     1.0000 0.94596  0.30404  0.15050  Biso   1.000  C
  C510     1.0000 0.92501  0.32499  0.15520  Biso   1.000  C
  C511     1.0000 0.04601  0.70399  0.62764  Biso   1.000  C
  C512     1.0000 0.01973  0.73027  0.63360  Biso   1.000  C
  C513     1.0000 0.89978  0.85022  0.65850  Biso   1.000  C
  C514     1.0000 0.97114  0.77886  0.64570  Biso   1.000  C
  C515     1.0000 0.94596  0.80404  0.65050  Biso   1.000  C
  C516     1.0000 0.92501  0.82499  0.65520  Biso   1.000  C
  C517     1.0000 0.54601  0.04601  0.62236  Biso   1.000  C
  C518     1.0000 0.51973  0.01973  0.61640  Biso   1.000  C
  C519     1.0000 0.39978  0.89978  0.59150  Biso   1.000  C
  C520     1.0000 0.47114  0.97114  0.60430  Biso   1.000  C
  C521     1.0000 0.44596  0.94596  0.59950  Biso   1.000  C
  C522     1.0000 0.42501  0.92501  0.59480  Biso   1.000  C
  C523     1.0000 0.04601  0.62236  0.54601  Biso   1.000  C
  C524     1.0000 0.01973  0.61640  0.51973  Biso   1.000  C
  C525     1.0000 0.89978  0.59150  0.39978  Biso   1.000  C
  C526     1.0000 0.97114  0.60430  0.47114  Biso   1.000  C
  C527     1.0000 0.94596  0.59950  0.44596  Biso   1.000  C
  C528     1.0000 0.92501  0.59480  0.42501  Biso   1.000  C
  C529     1.0000 0.04601  0.12236  0.04601  Biso   1.000  C
  C530     1.0000 0.01973  0.11640  0.01973  Biso   1.000  C
  C531     1.0000 0.89978  0.09150  0.89978  Biso   1.000  C
  C532     1.0000 0.97114  0.10430  0.97114  Biso   1.000  C
  C533     1.0000 0.94596  0.09950  0.94596  Biso   1.000  C
  C534     1.0000 0.92501  0.09480  0.92501  Biso   1.000  C
  C535     1.0000 0.20399  0.12764  0.04601  Biso   1.000  C
  C536     1.0000 0.23027  0.13360  0.01973  Biso   1.000  C
  C537     1.0000 0.35022  0.15850  0.89978  Biso   1.000  C
  C538     1.0000 0.27886  0.14570  0.97114  Biso   1.000  C
  C539     1.0000 0.30404  0.15050  0.94596  Biso   1.000  C
  C540     1.0000 0.32499  0.15520  0.92501  Biso   1.000  C
  C541     1.0000 0.70399  0.12764  0.54601  Biso   1.000  C
  C542     1.0000 0.73027  0.13360  0.51973  Biso   1.000  C
  C543     1.0000 0.85022  0.15850  0.39978  Biso   1.000  C
  C544     1.0000 0.77886  0.14570  0.47114  Biso   1.000  C
  C545     1.0000 0.80404  0.15050  0.44596  Biso   1.000  C
  C546     1.0000 0.82499  0.15520  0.42501  Biso   1.000  C
  C547     1.0000 0.54601  0.12764  0.70399  Biso   1.000  C
  C548     1.0000 0.51973  0.13360  0.73027  Biso   1.000  C
  C549     1.0000 0.39978  0.15850  0.85022  Biso   1.000  C
  C550     1.0000 0.47114  0.14570  0.77886  Biso   1.000  C
  C551     1.0000 0.44596  0.15050  0.80404  Biso   1.000  C
  C552     1.0000 0.42501  0.15520  0.82499  Biso   1.000  C
  C553     1.0000 0.62236  0.54601  0.04601  Biso   1.000  C
  C554     1.0000 0.61640  0.51973  0.01973  Biso   1.000  C
  C555     1.0000 0.59150  0.39978  0.89978  Biso   1.000  C
  C556     1.0000 0.60430  0.47114  0.97114  Biso   1.000  C
  C557     1.0000 0.59950  0.44596  0.94596  Biso   1.000  C
  C558     1.0000 0.59480  0.42501  0.92501  Biso   1.000  C
  C559     1.0000 0.62764  0.70399  0.04601  Biso   1.000  C
  C560     1.0000 0.63360  0.73027  0.01973  Biso   1.000  C
  C561     1.0000 0.65850  0.85022  0.89978  Biso   1.000  C
  C562     1.0000 0.64570  0.77886  0.97114  Biso   1.000  C
  C563     1.0000 0.65050  0.80404  0.94596  Biso   1.000  C
  C564     1.0000 0.65520  0.82499  0.92501  Biso   1.000  C
  C565     1.0000 0.12764  0.04601  0.20399  Biso   1.000  C
  C566     1.0000 0.13360  0.01973  0.23027  Biso   1.000  C
  C567     1.0000 0.15850  0.89978  0.35022  Biso   1.000  C
  C568     1.0000 0.14570  0.97114  0.27886  Biso   1.000  C
  C569     1.0000 0.15050  0.94596  0.30404  Biso   1.000  C
  C570     1.0000 0.15520  0.92501  0.32499  Biso   1.000  C
  C571     1.0000 0.12764  0.54601  0.70399  Biso   1.000  C
  C572     1.0000 0.13360  0.51973  0.73027  Biso   1.000  C
  C573     1.0000 0.15850  0.39978  0.85022  Biso   1.000  C
  C574     1.0000 0.14570  0.47114  0.77886  Biso   1.000  C
  C575     1.0000 0.15050  0.44596  0.80404  Biso   1.000  C
  C576     1.0000 0.15520  0.42501  0.82499  Biso   1.000  C
  O225     1.0000 0.82618  0.46411  0.37457  Biso   1.000  O
  C577     1.0000 0.77899  0.51354  0.36380  Biso   1.000  C
  H193     1.0000 0.80190  0.51980  0.36620  Biso   1.000  H
  C578     1.0000 0.65858  0.63399  0.34070  Biso   1.000  C
  C579     1.0000 0.75464  0.53780  0.35760  Biso   1.000  C
  H194     1.0000 0.76100  0.56070  0.35570  Biso   1.000  H
  O226     1.0000 0.69180  0.64210  0.33990  Biso   1.000  O
  O227     1.0000 0.82618  0.96411  0.87457  Biso   1.000  O
  C580     1.0000 0.77899  0.01354  0.86380  Biso   1.000  C
  H195     1.0000 0.80190  0.01980  0.86620  Biso   1.000  H
  C581     1.0000 0.65858  0.13399  0.84070  Biso   1.000  C
  C582     1.0000 0.75464  0.03780  0.85760  Biso   1.000  C
  H196     1.0000 0.76100  0.06070  0.85570  Biso   1.000  H
  O228     1.0000 0.69180  0.14210  0.83990  Biso   1.000  O
  O229     1.0000 0.32618  0.46411  0.87457  Biso   1.000  O
  C583     1.0000 0.27899  0.51354  0.86380  Biso   1.000  C
  H197     1.0000 0.30190  0.51980  0.86620  Biso   1.000  H
  C584     1.0000 0.15858  0.63399  0.84070  Biso   1.000  C
  C585     1.0000 0.25464  0.53780  0.85760  Biso   1.000  C
  H198     1.0000 0.26100  0.56070  0.85570  Biso   1.000  H
  O230     1.0000 0.19180  0.64210  0.83990  Biso   1.000  O
  O231     1.0000 0.32618  0.96411  0.37457  Biso   1.000  O
  C586     1.0000 0.27899  0.01354  0.36380  Biso   1.000  C
  H199     1.0000 0.30190  0.01980  0.36620  Biso   1.000  H
  C587     1.0000 0.15858  0.13399  0.34070  Biso   1.000  C
  C588     1.0000 0.25464  0.03780  0.35760  Biso   1.000  C
  H200     1.0000 0.26100  0.06070  0.35570  Biso   1.000  H
  O232     1.0000 0.19180  0.14210  0.33990  Biso   1.000  O
  O233     1.0000 0.92382  0.78589  0.87457  Biso   1.000  O
  C589     1.0000 0.97101  0.73646  0.86380  Biso   1.000  C
  H201     1.0000 0.94810  0.73020  0.86620  Biso   1.000  H
  C590     1.0000 0.09142  0.61601  0.84070  Biso   1.000  C
  C591     1.0000 0.99536  0.71220  0.85760  Biso   1.000  C
  H202     1.0000 0.98900  0.68930  0.85570  Biso   1.000  H
  O234     1.0000 0.05820  0.60790  0.83990  Biso   1.000  O
  O235     1.0000 0.92382  0.28589  0.37457  Biso   1.000  O
  C592     1.0000 0.97101  0.23646  0.36380  Biso   1.000  C
  H203     1.0000 0.94810  0.23020  0.36620  Biso   1.000  H
  C593     1.0000 0.09142  0.11601  0.34070  Biso   1.000  C
  C594     1.0000 0.99536  0.21220  0.35760  Biso   1.000  C
  H204     1.0000 0.98900  0.18930  0.35570  Biso   1.000  H
  O236     1.0000 0.05820  0.10790  0.33990  Biso   1.000  O
  O237     1.0000 0.42382  0.78589  0.37457  Biso   1.000  O
  C595     1.0000 0.47101  0.73646  0.36380  Biso   1.000  C
  H205     1.0000 0.44810  0.73020  0.36620  Biso   1.000  H
  C596     1.0000 0.59142  0.61601  0.34070  Biso   1.000  C
  C597     1.0000 0.49536  0.71220  0.35760  Biso   1.000  C
  H206     1.0000 0.48900  0.68930  0.35570  Biso   1.000  H
  O238     1.0000 0.55820  0.60790  0.33990  Biso   1.000  O
  O239     1.0000 0.42382  0.28589  0.87457  Biso   1.000  O
  C598     1.0000 0.47101  0.23646  0.86380  Biso   1.000  C
  H207     1.0000 0.44810  0.23020  0.86620  Biso   1.000  H
  C599     1.0000 0.59142  0.11601  0.84070  Biso   1.000  C
  C600     1.0000 0.49536  0.21220  0.85760  Biso   1.000  C
  H208     1.0000 0.48900  0.18930  0.85570  Biso   1.000  H
  O240     1.0000 0.55820  0.10790  0.83990  Biso   1.000  O
  O241     1.0000 0.32618  0.28589  0.87543  Biso   1.000  O
  C601     1.0000 0.27899  0.23646  0.88620  Biso   1.000  C
  H209     1.0000 0.30190  0.23020  0.88380  Biso   1.000  H
  C602     1.0000 0.15858  0.11601  0.90930  Biso   1.000  C
  C603     1.0000 0.25464  0.21220  0.89240  Biso   1.000  C
  H210     1.0000 0.26100  0.18930  0.89430  Biso   1.000  H
  O242     1.0000 0.19180  0.10790  0.91010  Biso   1.000  O
  O243     1.0000 0.32618  0.78589  0.37543  Biso   1.000  O
  C604     1.0000 0.27899  0.73646  0.38620  Biso   1.000  C
  H211     1.0000 0.30190  0.73020  0.38380  Biso   1.000  H
  C605     1.0000 0.15858  0.61601  0.40930  Biso   1.000  C
  C606     1.0000 0.25464  0.71220  0.39240  Biso   1.000  C
  H212     1.0000 0.26100  0.68930  0.39430  Biso   1.000  H
  O244     1.0000 0.19180  0.60790  0.41010  Biso   1.000  O
  O245     1.0000 0.82618  0.28589  0.37543  Biso   1.000  O
  C607     1.0000 0.77899  0.23646  0.38620  Biso   1.000  C
  H213     1.0000 0.80190  0.23020  0.38380  Biso   1.000  H
  C608     1.0000 0.65858  0.11601  0.40930  Biso   1.000  C
  C609     1.0000 0.75464  0.21220  0.39240  Biso   1.000  C
  H214     1.0000 0.76100  0.18930  0.39430  Biso   1.000  H
  O246     1.0000 0.69180  0.10790  0.41010  Biso   1.000  O
  O247     1.0000 0.82618  0.78589  0.87543  Biso   1.000  O
  C610     1.0000 0.77899  0.73646  0.88620  Biso   1.000  C
  H215     1.0000 0.80190  0.73020  0.88380  Biso   1.000  H
  C611     1.0000 0.65858  0.61601  0.90930  Biso   1.000  C
  C612     1.0000 0.75464  0.71220  0.89240  Biso   1.000  C
  H216     1.0000 0.76100  0.68930  0.89430  Biso   1.000  H
  O248     1.0000 0.69180  0.60790  0.91010  Biso   1.000  O
  O249     1.0000 0.42382  0.96411  0.37543  Biso   1.000  O
  C613     1.0000 0.47101  0.01354  0.38620  Biso   1.000  C
  H217     1.0000 0.44810  0.01980  0.38380  Biso   1.000  H
  C614     1.0000 0.59142  0.13399  0.40930  Biso   1.000  C
  C615     1.0000 0.49536  0.03780  0.39240  Biso   1.000  C
  H218     1.0000 0.48900  0.06070  0.39430  Biso   1.000  H
  O250     1.0000 0.55820  0.14210  0.41010  Biso   1.000  O
  O251     1.0000 0.42382  0.46411  0.87543  Biso   1.000  O
  C616     1.0000 0.47101  0.51354  0.88620  Biso   1.000  C
  H219     1.0000 0.44810  0.51980  0.88380  Biso   1.000  H
  C617     1.0000 0.59142  0.63399  0.90930  Biso   1.000  C
  C618     1.0000 0.49536  0.53780  0.89240  Biso   1.000  C
  H220     1.0000 0.48900  0.56070  0.89430  Biso   1.000  H
  O252     1.0000 0.55820  0.64210  0.91010  Biso   1.000  O
  O253     1.0000 0.92382  0.96411  0.87543  Biso   1.000  O
  C619     1.0000 0.97101  0.01354  0.88620  Biso   1.000  C
  H221     1.0000 0.94810  0.01980  0.88380  Biso   1.000  H
  C620     1.0000 0.09142  0.13399  0.90930  Biso   1.000  C
  C621     1.0000 0.99536  0.03780  0.89240  Biso   1.000  C
  H222     1.0000 0.98900  0.06070  0.89430  Biso   1.000  H
  O254     1.0000 0.05820  0.14210  0.91010  Biso   1.000  O
  O255     1.0000 0.92382  0.46411  0.37543  Biso   1.000  O
  C622     1.0000 0.97101  0.51354  0.38620  Biso   1.000  C
  H223     1.0000 0.94810  0.51980  0.38380  Biso   1.000  H
  C623     1.0000 0.09142  0.63399  0.40930  Biso   1.000  C
  C624     1.0000 0.99536  0.53780  0.39240  Biso   1.000  C
  H224     1.0000 0.98900  0.56070  0.39430  Biso   1.000  H
  O256     1.0000 0.05820  0.64210  0.41010  Biso   1.000  O
  O257     1.0000 0.96411  0.37543  0.42382  Biso   1.000  O
  C625     1.0000 0.01354  0.38620  0.47101  Biso   1.000  C
  H225     1.0000 0.01980  0.38380  0.44810  Biso   1.000  H
  C626     1.0000 0.13399  0.40930  0.59142  Biso   1.000  C
  C627     1.0000 0.03780  0.39240  0.49536  Biso   1.000  C
  H226     1.0000 0.06070  0.39430  0.48900  Biso   1.000  H
  O258     1.0000 0.14210  0.41010  0.55820  Biso   1.000  O
  O259     1.0000 0.96411  0.87543  0.92382  Biso   1.000  O
  C628     1.0000 0.01354  0.88620  0.97101  Biso   1.000  C
  H227     1.0000 0.01980  0.88380  0.94810  Biso   1.000  H
  C629     1.0000 0.13399  0.90930  0.09142  Biso   1.000  C
  C630     1.0000 0.03780  0.89240  0.99536  Biso   1.000  C
  H228     1.0000 0.06070  0.89430  0.98900  Biso   1.000  H
  O260     1.0000 0.14210  0.91010  0.05820  Biso   1.000  O
  O261     1.0000 0.46411  0.37543  0.92382  Biso   1.000  O
  C631     1.0000 0.51354  0.38620  0.97101  Biso   1.000  C
  H229     1.0000 0.51980  0.38380  0.94810  Biso   1.000  H
  C632     1.0000 0.63399  0.40930  0.09142  Biso   1.000  C
  C633     1.0000 0.53780  0.39240  0.99536  Biso   1.000  C
  H230     1.0000 0.56070  0.39430  0.98900  Biso   1.000  H
  O262     1.0000 0.64210  0.41010  0.05820  Biso   1.000  O
  O263     1.0000 0.46411  0.87543  0.42382  Biso   1.000  O
  C634     1.0000 0.51354  0.88620  0.47101  Biso   1.000  C
  H231     1.0000 0.51980  0.88380  0.44810  Biso   1.000  H
  C635     1.0000 0.63399  0.90930  0.59142  Biso   1.000  C
  C636     1.0000 0.53780  0.89240  0.49536  Biso   1.000  C
  H232     1.0000 0.56070  0.89430  0.48900  Biso   1.000  H
  O264     1.0000 0.64210  0.91010  0.55820  Biso   1.000  O
  O265     1.0000 0.28589  0.87543  0.32618  Biso   1.000  O
  C637     1.0000 0.23646  0.88620  0.27899  Biso   1.000  C
  H233     1.0000 0.23020  0.88380  0.30190  Biso   1.000  H
  C638     1.0000 0.11601  0.90930  0.15858  Biso   1.000  C
  C639     1.0000 0.21220  0.89240  0.25464  Biso   1.000  C
  H234     1.0000 0.18930  0.89430  0.26100  Biso   1.000  H
  O266     1.0000 0.10790  0.91010  0.19180  Biso   1.000  O
  O267     1.0000 0.28589  0.37543  0.82618  Biso   1.000  O
  C640     1.0000 0.23646  0.38620  0.77899  Biso   1.000  C
  H235     1.0000 0.23020  0.38380  0.80190  Biso   1.000  H
  C641     1.0000 0.11601  0.40930  0.65858  Biso   1.000  C
  C642     1.0000 0.21220  0.39240  0.75464  Biso   1.000  C
  H236     1.0000 0.18930  0.39430  0.76100  Biso   1.000  H
  O268     1.0000 0.10790  0.41010  0.69180  Biso   1.000  O
  O269     1.0000 0.78589  0.87543  0.82618  Biso   1.000  O
  C643     1.0000 0.73646  0.88620  0.77899  Biso   1.000  C
  H237     1.0000 0.73020  0.88380  0.80190  Biso   1.000  H
  C644     1.0000 0.61601  0.90930  0.65858  Biso   1.000  C
  C645     1.0000 0.71220  0.89240  0.75464  Biso   1.000  C
  H238     1.0000 0.68930  0.89430  0.76100  Biso   1.000  H
  O270     1.0000 0.60790  0.91010  0.69180  Biso   1.000  O
  O271     1.0000 0.78589  0.37543  0.32618  Biso   1.000  O
  C646     1.0000 0.73646  0.38620  0.27899  Biso   1.000  C
  H239     1.0000 0.73020  0.38380  0.30190  Biso   1.000  H
  C647     1.0000 0.61601  0.40930  0.15858  Biso   1.000  C
  C648     1.0000 0.71220  0.39240  0.25464  Biso   1.000  C
  H240     1.0000 0.68930  0.39430  0.26100  Biso   1.000  H
  O272     1.0000 0.60790  0.41010  0.19180  Biso   1.000  O
  O273     1.0000 0.78589  0.87457  0.92382  Biso   1.000  O
  C649     1.0000 0.73646  0.86380  0.97101  Biso   1.000  C
  H241     1.0000 0.73020  0.86620  0.94810  Biso   1.000  H
  C650     1.0000 0.61601  0.84070  0.09142  Biso   1.000  C
  C651     1.0000 0.71220  0.85760  0.99536  Biso   1.000  C
  H242     1.0000 0.68930  0.85570  0.98900  Biso   1.000  H
  O274     1.0000 0.60790  0.83990  0.05820  Biso   1.000  O
  O275     1.0000 0.78589  0.37457  0.42382  Biso   1.000  O
  C652     1.0000 0.73646  0.36380  0.47101  Biso   1.000  C
  H243     1.0000 0.73020  0.36620  0.44810  Biso   1.000  H
  C653     1.0000 0.61601  0.34070  0.59142  Biso   1.000  C
  C654     1.0000 0.71220  0.35760  0.49536  Biso   1.000  C
  H244     1.0000 0.68930  0.35570  0.48900  Biso   1.000  H
  O276     1.0000 0.60790  0.33990  0.55820  Biso   1.000  O
  O277     1.0000 0.28589  0.87457  0.42382  Biso   1.000  O
  C655     1.0000 0.23646  0.86380  0.47101  Biso   1.000  C
  H245     1.0000 0.23020  0.86620  0.44810  Biso   1.000  H
  C656     1.0000 0.11601  0.84070  0.59142  Biso   1.000  C
  C657     1.0000 0.21220  0.85760  0.49536  Biso   1.000  C
  H246     1.0000 0.18930  0.85570  0.48900  Biso   1.000  H
  O278     1.0000 0.10790  0.83990  0.55820  Biso   1.000  O
  O279     1.0000 0.28589  0.37457  0.92382  Biso   1.000  O
  C658     1.0000 0.23646  0.36380  0.97101  Biso   1.000  C
  H247     1.0000 0.23020  0.36620  0.94810  Biso   1.000  H
  C659     1.0000 0.11601  0.34070  0.09142  Biso   1.000  C
  C660     1.0000 0.21220  0.35760  0.99536  Biso   1.000  C
  H248     1.0000 0.18930  0.35570  0.98900  Biso   1.000  H
  O280     1.0000 0.10790  0.33990  0.05820  Biso   1.000  O
  O281     1.0000 0.46411  0.37457  0.82618  Biso   1.000  O
  C661     1.0000 0.51354  0.36380  0.77899  Biso   1.000  C
  H249     1.0000 0.51980  0.36620  0.80190  Biso   1.000  H
  C662     1.0000 0.63399  0.34070  0.65858  Biso   1.000  C
  C663     1.0000 0.53780  0.35760  0.75464  Biso   1.000  C
  H250     1.0000 0.56070  0.35570  0.76100  Biso   1.000  H
  O282     1.0000 0.64210  0.33990  0.69180  Biso   1.000  O
  O283     1.0000 0.46411  0.87457  0.32618  Biso   1.000  O
  C664     1.0000 0.51354  0.86380  0.27899  Biso   1.000  C
  H251     1.0000 0.51980  0.86620  0.30190  Biso   1.000  H
  C665     1.0000 0.63399  0.84070  0.15858  Biso   1.000  C
  C666     1.0000 0.53780  0.85760  0.25464  Biso   1.000  C
  H252     1.0000 0.56070  0.85570  0.26100  Biso   1.000  H
  O284     1.0000 0.64210  0.83990  0.19180  Biso   1.000  O
  O285     1.0000 0.96411  0.37457  0.32618  Biso   1.000  O
  C667     1.0000 0.01354  0.36380  0.27899  Biso   1.000  C
  H253     1.0000 0.01980  0.36620  0.30190  Biso   1.000  H
  C668     1.0000 0.13399  0.34070  0.15858  Biso   1.000  C
  C669     1.0000 0.03780  0.35760  0.25464  Biso   1.000  C
  H254     1.0000 0.06070  0.35570  0.26100  Biso   1.000  H
  O286     1.0000 0.14210  0.33990  0.19180  Biso   1.000  O
  O287     1.0000 0.96411  0.87457  0.82618  Biso   1.000  O
  C670     1.0000 0.01354  0.86380  0.77899  Biso   1.000  C
  H255     1.0000 0.01980  0.86620  0.80190  Biso   1.000  H
  C671     1.0000 0.13399  0.84070  0.65858  Biso   1.000  C
  C672     1.0000 0.03780  0.85760  0.75464  Biso   1.000  C
  H256     1.0000 0.06070  0.85570  0.76100  Biso   1.000  H
  O288     1.0000 0.14210  0.83990  0.69180  Biso   1.000  O
  O289     1.0000 0.87543  0.32618  0.28589  Biso   1.000  O
  C673     1.0000 0.88620  0.27899  0.23646  Biso   1.000  C
  H257     1.0000 0.88380  0.30190  0.23020  Biso   1.000  H
  C674     1.0000 0.90930  0.15858  0.11601  Biso   1.000  C
  C675     1.0000 0.89240  0.25464  0.21220  Biso   1.000  C
  H258     1.0000 0.89430  0.26100  0.18930  Biso   1.000  H
  O290     1.0000 0.91010  0.19180  0.10790  Biso   1.000  O
  O291     1.0000 0.87543  0.82618  0.78589  Biso   1.000  O
  C676     1.0000 0.88620  0.77899  0.73646  Biso   1.000  C
  H259     1.0000 0.88380  0.80190  0.73020  Biso   1.000  H
  C677     1.0000 0.90930  0.65858  0.61601  Biso   1.000  C
  C678     1.0000 0.89240  0.75464  0.71220  Biso   1.000  C
  H260     1.0000 0.89430  0.76100  0.68930  Biso   1.000  H
  O292     1.0000 0.91010  0.69180  0.60790  Biso   1.000  O
  O293     1.0000 0.37543  0.32618  0.78589  Biso   1.000  O
  C679     1.0000 0.38620  0.27899  0.73646  Biso   1.000  C
  H261     1.0000 0.38380  0.30190  0.73020  Biso   1.000  H
  C680     1.0000 0.40930  0.15858  0.61601  Biso   1.000  C
  C681     1.0000 0.39240  0.25464  0.71220  Biso   1.000  C
  H262     1.0000 0.39430  0.26100  0.68930  Biso   1.000  H
  O294     1.0000 0.41010  0.19180  0.60790  Biso   1.000  O
  O295     1.0000 0.37543  0.82618  0.28589  Biso   1.000  O
  C682     1.0000 0.38620  0.77899  0.23646  Biso   1.000  C
  H263     1.0000 0.38380  0.80190  0.23020  Biso   1.000  H
  C683     1.0000 0.40930  0.65858  0.11601  Biso   1.000  C
  C684     1.0000 0.39240  0.75464  0.21220  Biso   1.000  C
  H264     1.0000 0.39430  0.76100  0.18930  Biso   1.000  H
  O296     1.0000 0.41010  0.69180  0.10790  Biso   1.000  O
  O297     1.0000 0.37543  0.42382  0.96411  Biso   1.000  O
  C685     1.0000 0.38620  0.47101  0.01354  Biso   1.000  C
  H265     1.0000 0.38380  0.44810  0.01980  Biso   1.000  H
  C686     1.0000 0.40930  0.59142  0.13399  Biso   1.000  C
  C687     1.0000 0.39240  0.49536  0.03780  Biso   1.000  C
  H266     1.0000 0.39430  0.48900  0.06070  Biso   1.000  H
  O298     1.0000 0.41010  0.55820  0.14210  Biso   1.000  O
  O299     1.0000 0.37543  0.92382  0.46411  Biso   1.000  O
  C688     1.0000 0.38620  0.97101  0.51354  Biso   1.000  C
  H267     1.0000 0.38380  0.94810  0.51980  Biso   1.000  H
  C689     1.0000 0.40930  0.09142  0.63399  Biso   1.000  C
  C690     1.0000 0.39240  0.99536  0.53780  Biso   1.000  C
  H268     1.0000 0.39430  0.98900  0.56070  Biso   1.000  H
  O300     1.0000 0.41010  0.05820  0.64210  Biso   1.000  O
  O301     1.0000 0.87543  0.42382  0.46411  Biso   1.000  O
  C691     1.0000 0.88620  0.47101  0.51354  Biso   1.000  C
  H269     1.0000 0.88380  0.44810  0.51980  Biso   1.000  H
  C692     1.0000 0.90930  0.59142  0.63399  Biso   1.000  C
  C693     1.0000 0.89240  0.49536  0.53780  Biso   1.000  C
  H270     1.0000 0.89430  0.48900  0.56070  Biso   1.000  H
  O302     1.0000 0.91010  0.55820  0.64210  Biso   1.000  O
  O303     1.0000 0.87543  0.92382  0.96411  Biso   1.000  O
  C694     1.0000 0.88620  0.97101  0.01354  Biso   1.000  C
  H271     1.0000 0.88380  0.94810  0.01980  Biso   1.000  H
  C695     1.0000 0.90930  0.09142  0.13399  Biso   1.000  C
  C696     1.0000 0.89240  0.99536  0.03780  Biso   1.000  C
  H272     1.0000 0.89430  0.98900  0.06070  Biso   1.000  H
  O304     1.0000 0.91010  0.05820  0.14210  Biso   1.000  O
  O305     1.0000 0.37457  0.82618  0.46411  Biso   1.000  O
  C697     1.0000 0.36380  0.77899  0.51354  Biso   1.000  C
  H273     1.0000 0.36620  0.80190  0.51980  Biso   1.000  H
  C698     1.0000 0.34070  0.65858  0.63399  Biso   1.000  C
  C699     1.0000 0.35760  0.75464  0.53780  Biso   1.000  C
  H274     1.0000 0.35570  0.76100  0.56070  Biso   1.000  H
  O306     1.0000 0.33990  0.69180  0.64210  Biso   1.000  O
  O307     1.0000 0.37457  0.32618  0.96411  Biso   1.000  O
  C700     1.0000 0.36380  0.27899  0.01354  Biso   1.000  C
  H275     1.0000 0.36620  0.30190  0.01980  Biso   1.000  H
  C701     1.0000 0.34070  0.15858  0.13399  Biso   1.000  C
  C702     1.0000 0.35760  0.25464  0.03780  Biso   1.000  C
  H276     1.0000 0.35570  0.26100  0.06070  Biso   1.000  H
  O308     1.0000 0.33990  0.19180  0.14210  Biso   1.000  O
  O309     1.0000 0.87457  0.82618  0.96411  Biso   1.000  O
  C703     1.0000 0.86380  0.77899  0.01354  Biso   1.000  C
  H277     1.0000 0.86620  0.80190  0.01980  Biso   1.000  H
  C704     1.0000 0.84070  0.65858  0.13399  Biso   1.000  C
  C705     1.0000 0.85760  0.75464  0.03780  Biso   1.000  C
  H278     1.0000 0.85570  0.76100  0.06070  Biso   1.000  H
  O310     1.0000 0.83990  0.69180  0.14210  Biso   1.000  O
  O311     1.0000 0.87457  0.32618  0.46411  Biso   1.000  O
  C706     1.0000 0.86380  0.27899  0.51354  Biso   1.000  C
  H279     1.0000 0.86620  0.30190  0.51980  Biso   1.000  H
  C707     1.0000 0.84070  0.15858  0.63399  Biso   1.000  C
  C708     1.0000 0.85760  0.25464  0.53780  Biso   1.000  C
  H280     1.0000 0.85570  0.26100  0.56070  Biso   1.000  H
  O312     1.0000 0.83990  0.19180  0.64210  Biso   1.000  O
  O313     1.0000 0.87457  0.92382  0.78589  Biso   1.000  O
  C709     1.0000 0.86380  0.97101  0.73646  Biso   1.000  C
  H281     1.0000 0.86620  0.94810  0.73020  Biso   1.000  H
  C710     1.0000 0.84070  0.09142  0.61601  Biso   1.000  C
  C711     1.0000 0.85760  0.99536  0.71220  Biso   1.000  C
  H282     1.0000 0.85570  0.98900  0.68930  Biso   1.000  H
  O314     1.0000 0.83990  0.05820  0.60790  Biso   1.000  O
  O315     1.0000 0.87457  0.42382  0.28589  Biso   1.000  O
  C712     1.0000 0.86380  0.47101  0.23646  Biso   1.000  C
  H283     1.0000 0.86620  0.44810  0.23020  Biso   1.000  H
  C713     1.0000 0.84070  0.59142  0.11601  Biso   1.000  C
  C714     1.0000 0.85760  0.49536  0.21220  Biso   1.000  C
  H284     1.0000 0.85570  0.48900  0.18930  Biso   1.000  H
  O316     1.0000 0.83990  0.55820  0.10790  Biso   1.000  O
  O317     1.0000 0.37457  0.92382  0.28589  Biso   1.000  O
  C715     1.0000 0.36380  0.97101  0.23646  Biso   1.000  C
  H285     1.0000 0.36620  0.94810  0.23020  Biso   1.000  H
  C716     1.0000 0.34070  0.09142  0.11601  Biso   1.000  C
  C717     1.0000 0.35760  0.99536  0.21220  Biso   1.000  C
  H286     1.0000 0.35570  0.98900  0.18930  Biso   1.000  H
  O318     1.0000 0.33990  0.05820  0.10790  Biso   1.000  O
  O319     1.0000 0.37457  0.42382  0.78589  Biso   1.000  O
  C718     1.0000 0.36380  0.47101  0.73646  Biso   1.000  C
  H287     1.0000 0.36620  0.44810  0.73020  Biso   1.000  H
  C719     1.0000 0.34070  0.59142  0.61601  Biso   1.000  C
  C720     1.0000 0.35760  0.49536  0.71220  Biso   1.000  C
  H288     1.0000 0.35570  0.48900  0.68930  Biso   1.000  H
  O320     1.0000 0.33990  0.55820  0.60790  Biso   1.000  O
  O321     1.0000 0.78589  0.92382  0.87457  Biso   1.000  O
  C721     1.0000 0.73646  0.97101  0.86380  Biso   1.000  C
  H289     1.0000 0.73020  0.94810  0.86620  Biso   1.000  H
  C722     1.0000 0.61601  0.09142  0.84070  Biso   1.000  C
  C723     1.0000 0.71220  0.99536  0.85760  Biso   1.000  C
  H290     1.0000 0.68930  0.98900  0.85570  Biso   1.000  H
  O322     1.0000 0.60790  0.05820  0.83990  Biso   1.000  O
  O323     1.0000 0.78589  0.42382  0.37457  Biso   1.000  O
  C724     1.0000 0.73646  0.47101  0.36380  Biso   1.000  C
  H291     1.0000 0.73020  0.44810  0.36620  Biso   1.000  H
  C725     1.0000 0.61601  0.59142  0.34070  Biso   1.000  C
  C726     1.0000 0.71220  0.49536  0.35760  Biso   1.000  C
  H292     1.0000 0.68930  0.48900  0.35570  Biso   1.000  H
  O324     1.0000 0.60790  0.55820  0.33990  Biso   1.000  O
  O325     1.0000 0.28589  0.92382  0.37457  Biso   1.000  O
  C727     1.0000 0.23646  0.97101  0.36380  Biso   1.000  C
  H293     1.0000 0.23020  0.94810  0.36620  Biso   1.000  H
  C728     1.0000 0.11601  0.09142  0.34070  Biso   1.000  C
  C729     1.0000 0.21220  0.99536  0.35760  Biso   1.000  C
  H294     1.0000 0.18930  0.98900  0.35570  Biso   1.000  H
  O326     1.0000 0.10790  0.05820  0.33990  Biso   1.000  O
  O327     1.0000 0.28589  0.42382  0.87457  Biso   1.000  O
  C730     1.0000 0.23646  0.47101  0.86380  Biso   1.000  C
  H295     1.0000 0.23020  0.44810  0.86620  Biso   1.000  H
  C731     1.0000 0.11601  0.59142  0.84070  Biso   1.000  C
  C732     1.0000 0.21220  0.49536  0.85760  Biso   1.000  C
  H296     1.0000 0.18930  0.48900  0.85570  Biso   1.000  H
  O328     1.0000 0.10790  0.55820  0.83990  Biso   1.000  O
  O329     1.0000 0.46411  0.82618  0.37457  Biso   1.000  O
  C733     1.0000 0.51354  0.77899  0.36380  Biso   1.000  C
  H297     1.0000 0.51980  0.80190  0.36620  Biso   1.000  H
  C734     1.0000 0.63399  0.65858  0.34070  Biso   1.000  C
  C735     1.0000 0.53780  0.75464  0.35760  Biso   1.000  C
  H298     1.0000 0.56070  0.76100  0.35570  Biso   1.000  H
  O330     1.0000 0.64210  0.69180  0.33990  Biso   1.000  O
  O331     1.0000 0.46411  0.32618  0.87457  Biso   1.000  O
  C736     1.0000 0.51354  0.27899  0.86380  Biso   1.000  C
  H299     1.0000 0.51980  0.30190  0.86620  Biso   1.000  H
  C737     1.0000 0.63399  0.15858  0.84070  Biso   1.000  C
  C738     1.0000 0.53780  0.25464  0.85760  Biso   1.000  C
  H300     1.0000 0.56070  0.26100  0.85570  Biso   1.000  H
  O332     1.0000 0.64210  0.19180  0.83990  Biso   1.000  O
  O333     1.0000 0.96411  0.82618  0.87457  Biso   1.000  O
  C739     1.0000 0.01354  0.77899  0.86380  Biso   1.000  C
  H301     1.0000 0.01980  0.80190  0.86620  Biso   1.000  H
  C740     1.0000 0.13399  0.65858  0.84070  Biso   1.000  C
  C741     1.0000 0.03780  0.75464  0.85760  Biso   1.000  C
  H302     1.0000 0.06070  0.76100  0.85570  Biso   1.000  H
  O334     1.0000 0.14210  0.69180  0.83990  Biso   1.000  O
  O335     1.0000 0.96411  0.32618  0.37457  Biso   1.000  O
  C742     1.0000 0.01354  0.27899  0.36380  Biso   1.000  C
  H303     1.0000 0.01980  0.30190  0.36620  Biso   1.000  H
  C743     1.0000 0.13399  0.15858  0.34070  Biso   1.000  C
  C744     1.0000 0.03780  0.25464  0.35760  Biso   1.000  C
  H304     1.0000 0.06070  0.26100  0.35570  Biso   1.000  H
  O336     1.0000 0.14210  0.19180  0.33990  Biso   1.000  O
  O337     1.0000 0.96411  0.42382  0.37543  Biso   1.000  O
  C745     1.0000 0.01354  0.47101  0.38620  Biso   1.000  C
  H305     1.0000 0.01980  0.44810  0.38380  Biso   1.000  H
  C746     1.0000 0.13399  0.59142  0.40930  Biso   1.000  C
  C747     1.0000 0.03780  0.49536  0.39240  Biso   1.000  C
  H306     1.0000 0.06070  0.48900  0.39430  Biso   1.000  H
  O338     1.0000 0.14210  0.55820  0.41010  Biso   1.000  O
  O339     1.0000 0.96411  0.92382  0.87543  Biso   1.000  O
  C748     1.0000 0.01354  0.97101  0.88620  Biso   1.000  C
  H307     1.0000 0.01980  0.94810  0.88380  Biso   1.000  H
  C749     1.0000 0.13399  0.09142  0.90930  Biso   1.000  C
  C750     1.0000 0.03780  0.99536  0.89240  Biso   1.000  C
  H308     1.0000 0.06070  0.98900  0.89430  Biso   1.000  H
  O340     1.0000 0.14210  0.05820  0.91010  Biso   1.000  O
  O341     1.0000 0.46411  0.42382  0.87543  Biso   1.000  O
  C751     1.0000 0.51354  0.47101  0.88620  Biso   1.000  C
  H309     1.0000 0.51980  0.44810  0.88380  Biso   1.000  H
  C752     1.0000 0.63399  0.59142  0.90930  Biso   1.000  C
  C753     1.0000 0.53780  0.49536  0.89240  Biso   1.000  C
  H310     1.0000 0.56070  0.48900  0.89430  Biso   1.000  H
  O342     1.0000 0.64210  0.55820  0.91010  Biso   1.000  O
  O343     1.0000 0.46411  0.92382  0.37543  Biso   1.000  O
  C754     1.0000 0.51354  0.97101  0.38620  Biso   1.000  C
  H311     1.0000 0.51980  0.94810  0.38380  Biso   1.000  H
  C755     1.0000 0.63399  0.09142  0.40930  Biso   1.000  C
  C756     1.0000 0.53780  0.99536  0.39240  Biso   1.000  C
  H312     1.0000 0.56070  0.98900  0.39430  Biso   1.000  H
  O344     1.0000 0.64210  0.05820  0.41010  Biso   1.000  O
  O345     1.0000 0.28589  0.32618  0.87543  Biso   1.000  O
  C757     1.0000 0.23646  0.27899  0.88620  Biso   1.000  C
  H313     1.0000 0.23020  0.30190  0.88380  Biso   1.000  H
  C758     1.0000 0.11601  0.15858  0.90930  Biso   1.000  C
  C759     1.0000 0.21220  0.25464  0.89240  Biso   1.000  C
  H314     1.0000 0.18930  0.26100  0.89430  Biso   1.000  H
  O346     1.0000 0.10790  0.19180  0.91010  Biso   1.000  O
  O347     1.0000 0.28589  0.82618  0.37543  Biso   1.000  O
  C760     1.0000 0.23646  0.77899  0.38620  Biso   1.000  C
  H315     1.0000 0.23020  0.80190  0.38380  Biso   1.000  H
  C761     1.0000 0.11601  0.65858  0.40930  Biso   1.000  C
  C762     1.0000 0.21220  0.75464  0.39240  Biso   1.000  C
  H316     1.0000 0.18930  0.76100  0.39430  Biso   1.000  H
  O348     1.0000 0.10790  0.69180  0.41010  Biso   1.000  O
  O349     1.0000 0.78589  0.32618  0.37543  Biso   1.000  O
  C763     1.0000 0.73646  0.27899  0.38620  Biso   1.000  C
  H317     1.0000 0.73020  0.30190  0.38380  Biso   1.000  H
  C764     1.0000 0.61601  0.15858  0.40930  Biso   1.000  C
  C765     1.0000 0.71220  0.25464  0.39240  Biso   1.000  C
  H318     1.0000 0.68930  0.26100  0.39430  Biso   1.000  H
  O350     1.0000 0.60790  0.19180  0.41010  Biso   1.000  O
  O351     1.0000 0.78589  0.82618  0.87543  Biso   1.000  O
  C766     1.0000 0.73646  0.77899  0.88620  Biso   1.000  C
  H319     1.0000 0.73020  0.80190  0.88380  Biso   1.000  H
  C767     1.0000 0.61601  0.65858  0.90930  Biso   1.000  C
  C768     1.0000 0.71220  0.75464  0.89240  Biso   1.000  C
  H320     1.0000 0.68930  0.76100  0.89430  Biso   1.000  H
  O352     1.0000 0.60790  0.69180  0.91010  Biso   1.000  O
  O353     1.0000 0.87457  0.78589  0.92382  Biso   1.000  O
  C769     1.0000 0.86380  0.73646  0.97101  Biso   1.000  C
  H321     1.0000 0.86620  0.73020  0.94810  Biso   1.000  H
  C770     1.0000 0.84070  0.61601  0.09142  Biso   1.000  C
  C771     1.0000 0.85760  0.71220  0.99536  Biso   1.000  C
  H322     1.0000 0.85570  0.68930  0.98900  Biso   1.000  H
  O354     1.0000 0.83990  0.60790  0.05820  Biso   1.000  O
  O355     1.0000 0.87457  0.28589  0.42382  Biso   1.000  O
  C772     1.0000 0.86380  0.23646  0.47101  Biso   1.000  C
  H323     1.0000 0.86620  0.23020  0.44810  Biso   1.000  H
  C773     1.0000 0.84070  0.11601  0.59142  Biso   1.000  C
  C774     1.0000 0.85760  0.21220  0.49536  Biso   1.000  C
  H324     1.0000 0.85570  0.18930  0.48900  Biso   1.000  H
  O356     1.0000 0.83990  0.10790  0.55820  Biso   1.000  O
  O357     1.0000 0.37457  0.78589  0.42382  Biso   1.000  O
  C775     1.0000 0.36380  0.73646  0.47101  Biso   1.000  C
  H325     1.0000 0.36620  0.73020  0.44810  Biso   1.000  H
  C776     1.0000 0.34070  0.61601  0.59142  Biso   1.000  C
  C777     1.0000 0.35760  0.71220  0.49536  Biso   1.000  C
  H326     1.0000 0.35570  0.68930  0.48900  Biso   1.000  H
  O358     1.0000 0.33990  0.60790  0.55820  Biso   1.000  O
  O359     1.0000 0.37457  0.28589  0.92382  Biso   1.000  O
  C778     1.0000 0.36380  0.23646  0.97101  Biso   1.000  C
  H327     1.0000 0.36620  0.23020  0.94810  Biso   1.000  H
  C779     1.0000 0.34070  0.11601  0.09142  Biso   1.000  C
  C780     1.0000 0.35760  0.21220  0.99536  Biso   1.000  C
  H328     1.0000 0.35570  0.18930  0.98900  Biso   1.000  H
  O360     1.0000 0.33990  0.10790  0.05820  Biso   1.000  O
  O361     1.0000 0.37457  0.46411  0.82618  Biso   1.000  O
  C781     1.0000 0.36380  0.51354  0.77899  Biso   1.000  C
  H329     1.0000 0.36620  0.51980  0.80190  Biso   1.000  H
  C782     1.0000 0.34070  0.63399  0.65858  Biso   1.000  C
  C783     1.0000 0.35760  0.53780  0.75464  Biso   1.000  C
  H330     1.0000 0.35570  0.56070  0.76100  Biso   1.000  H
  O362     1.0000 0.33990  0.64210  0.69180  Biso   1.000  O
  O363     1.0000 0.37457  0.96411  0.32618  Biso   1.000  O
  C784     1.0000 0.36380  0.01354  0.27899  Biso   1.000  C
  H331     1.0000 0.36620  0.01980  0.30190  Biso   1.000  H
  C785     1.0000 0.34070  0.13399  0.15858  Biso   1.000  C
  C786     1.0000 0.35760  0.03780  0.25464  Biso   1.000  C
  H332     1.0000 0.35570  0.06070  0.26100  Biso   1.000  H
  O364     1.0000 0.33990  0.14210  0.19180  Biso   1.000  O
  O365     1.0000 0.87457  0.46411  0.32618  Biso   1.000  O
  C787     1.0000 0.86380  0.51354  0.27899  Biso   1.000  C
  H333     1.0000 0.86620  0.51980  0.30190  Biso   1.000  H
  C788     1.0000 0.84070  0.63399  0.15858  Biso   1.000  C
  C789     1.0000 0.85760  0.53780  0.25464  Biso   1.000  C
  H334     1.0000 0.85570  0.56070  0.26100  Biso   1.000  H
  O366     1.0000 0.83990  0.64210  0.19180  Biso   1.000  O
  O367     1.0000 0.87457  0.96411  0.82618  Biso   1.000  O
  C790     1.0000 0.86380  0.01354  0.77899  Biso   1.000  C
  H335     1.0000 0.86620  0.01980  0.80190  Biso   1.000  H
  C791     1.0000 0.84070  0.13399  0.65858  Biso   1.000  C
  C792     1.0000 0.85760  0.03780  0.75464  Biso   1.000  C
  H336     1.0000 0.85570  0.06070  0.76100  Biso   1.000  H
  O368     1.0000 0.83990  0.14210  0.69180  Biso   1.000  O
  O369     1.0000 0.37543  0.96411  0.42382  Biso   1.000  O
  C793     1.0000 0.38620  0.01354  0.47101  Biso   1.000  C
  H337     1.0000 0.38380  0.01980  0.44810  Biso   1.000  H
  C794     1.0000 0.40930  0.13399  0.59142  Biso   1.000  C
  C795     1.0000 0.39240  0.03780  0.49536  Biso   1.000  C
  H338     1.0000 0.39430  0.06070  0.48900  Biso   1.000  H
  O370     1.0000 0.41010  0.14210  0.55820  Biso   1.000  O
  O371     1.0000 0.37543  0.46411  0.92382  Biso   1.000  O
  C796     1.0000 0.38620  0.51354  0.97101  Biso   1.000  C
  H339     1.0000 0.38380  0.51980  0.94810  Biso   1.000  H
  C797     1.0000 0.40930  0.63399  0.09142  Biso   1.000  C
  C798     1.0000 0.39240  0.53780  0.99536  Biso   1.000  C
  H340     1.0000 0.39430  0.56070  0.98900  Biso   1.000  H
  O372     1.0000 0.41010  0.64210  0.05820  Biso   1.000  O
  O373     1.0000 0.87543  0.96411  0.92382  Biso   1.000  O
  C799     1.0000 0.88620  0.01354  0.97101  Biso   1.000  C
  H341     1.0000 0.88380  0.01980  0.94810  Biso   1.000  H
  C800     1.0000 0.90930  0.13399  0.09142  Biso   1.000  C
  C801     1.0000 0.89240  0.03780  0.99536  Biso   1.000  C
  H342     1.0000 0.89430  0.06070  0.98900  Biso   1.000  H
  O374     1.0000 0.91010  0.14210  0.05820  Biso   1.000  O
  O375     1.0000 0.87543  0.46411  0.42382  Biso   1.000  O
  C802     1.0000 0.88620  0.51354  0.47101  Biso   1.000  C
  H343     1.0000 0.88380  0.51980  0.44810  Biso   1.000  H
  C803     1.0000 0.90930  0.63399  0.59142  Biso   1.000  C
  C804     1.0000 0.89240  0.53780  0.49536  Biso   1.000  C
  H344     1.0000 0.89430  0.56070  0.48900  Biso   1.000  H
  O376     1.0000 0.91010  0.64210  0.55820  Biso   1.000  O
  O377     1.0000 0.87543  0.28589  0.32618  Biso   1.000  O
  C805     1.0000 0.88620  0.23646  0.27899  Biso   1.000  C
  H345     1.0000 0.88380  0.23020  0.30190  Biso   1.000  H
  C806     1.0000 0.90930  0.11601  0.15858  Biso   1.000  C
  C807     1.0000 0.89240  0.21220  0.25464  Biso   1.000  C
  H346     1.0000 0.89430  0.18930  0.26100  Biso   1.000  H
  O378     1.0000 0.91010  0.10790  0.19180  Biso   1.000  O
  O379     1.0000 0.87543  0.78589  0.82618  Biso   1.000  O
  C808     1.0000 0.88620  0.73646  0.77899  Biso   1.000  C
  H347     1.0000 0.88380  0.73020  0.80190  Biso   1.000  H
  C809     1.0000 0.90930  0.61601  0.65858  Biso   1.000  C
  C810     1.0000 0.89240  0.71220  0.75464  Biso   1.000  C
  H348     1.0000 0.89430  0.68930  0.76100  Biso   1.000  H
  O380     1.0000 0.91010  0.60790  0.69180  Biso   1.000  O
  O381     1.0000 0.37543  0.28589  0.82618  Biso   1.000  O
  C811     1.0000 0.38620  0.23646  0.77899  Biso   1.000  C
  H349     1.0000 0.38380  0.23020  0.80190  Biso   1.000  H
  C812     1.0000 0.40930  0.11601  0.65858  Biso   1.000  C
  C813     1.0000 0.39240  0.21220  0.75464  Biso   1.000  C
  H350     1.0000 0.39430  0.18930  0.76100  Biso   1.000  H
  O382     1.0000 0.41010  0.10790  0.69180  Biso   1.000  O
  O383     1.0000 0.37543  0.78589  0.32618  Biso   1.000  O
  C814     1.0000 0.38620  0.73646  0.27899  Biso   1.000  C
  H351     1.0000 0.38380  0.73020  0.30190  Biso   1.000  H
  C815     1.0000 0.40930  0.61601  0.15858  Biso   1.000  C
  C816     1.0000 0.39240  0.71220  0.25464  Biso   1.000  C
  H352     1.0000 0.39430  0.68930  0.26100  Biso   1.000  H
  O384     1.0000 0.41010  0.60790  0.19180  Biso   1.000  O
  O385     1.0000 0.92382  0.87457  0.78589  Biso   1.000  O
  C817     1.0000 0.97101  0.86380  0.73646  Biso   1.000  C
  H353     1.0000 0.94810  0.86620  0.73020  Biso   1.000  H
  C818     1.0000 0.09142  0.84070  0.61601  Biso   1.000  C
  C819     1.0000 0.99536  0.85760  0.71220  Biso   1.000  C
  H354     1.0000 0.98900  0.85570  0.68930  Biso   1.000  H
  O386     1.0000 0.05820  0.83990  0.60790  Biso   1.000  O
  O387     1.0000 0.92382  0.37457  0.28589  Biso   1.000  O
  C820     1.0000 0.97101  0.36380  0.23646  Biso   1.000  C
  H355     1.0000 0.94810  0.36620  0.23020  Biso   1.000  H
  C821     1.0000 0.09142  0.34070  0.11601  Biso   1.000  C
  C822     1.0000 0.99536  0.35760  0.21220  Biso   1.000  C
  H356     1.0000 0.98900  0.35570  0.18930  Biso   1.000  H
  O388     1.0000 0.05820  0.33990  0.10790  Biso   1.000  O
  O389     1.0000 0.42382  0.87457  0.28589  Biso   1.000  O
  C823     1.0000 0.47101  0.86380  0.23646  Biso   1.000  C
  H357     1.0000 0.44810  0.86620  0.23020  Biso   1.000  H
  C824     1.0000 0.59142  0.84070  0.11601  Biso   1.000  C
  C825     1.0000 0.49536  0.85760  0.21220  Biso   1.000  C
  H358     1.0000 0.48900  0.85570  0.18930  Biso   1.000  H
  O390     1.0000 0.55820  0.83990  0.10790  Biso   1.000  O
  O391     1.0000 0.42382  0.37457  0.78589  Biso   1.000  O
  C826     1.0000 0.47101  0.36380  0.73646  Biso   1.000  C
  H359     1.0000 0.44810  0.36620  0.73020  Biso   1.000  H
  C827     1.0000 0.59142  0.34070  0.61601  Biso   1.000  C
  C828     1.0000 0.49536  0.35760  0.71220  Biso   1.000  C
  H360     1.0000 0.48900  0.35570  0.68930  Biso   1.000  H
  O392     1.0000 0.55820  0.33990  0.60790  Biso   1.000  O
  O393     1.0000 0.82618  0.37457  0.46411  Biso   1.000  O
  C829     1.0000 0.77899  0.36380  0.51354  Biso   1.000  C
  H361     1.0000 0.80190  0.36620  0.51980  Biso   1.000  H
  C830     1.0000 0.65858  0.34070  0.63399  Biso   1.000  C
  C831     1.0000 0.75464  0.35760  0.53780  Biso   1.000  C
  H362     1.0000 0.76100  0.35570  0.56070  Biso   1.000  H
  O394     1.0000 0.69180  0.33990  0.64210  Biso   1.000  O
  O395     1.0000 0.82618  0.87457  0.96411  Biso   1.000  O
  C832     1.0000 0.77899  0.86380  0.01354  Biso   1.000  C
  H363     1.0000 0.80190  0.86620  0.01980  Biso   1.000  H
  C833     1.0000 0.65858  0.84070  0.13399  Biso   1.000  C
  C834     1.0000 0.75464  0.85760  0.03780  Biso   1.000  C
  H364     1.0000 0.76100  0.85570  0.06070  Biso   1.000  H
  O396     1.0000 0.69180  0.83990  0.14210  Biso   1.000  O
  O397     1.0000 0.32618  0.37457  0.96411  Biso   1.000  O
  C835     1.0000 0.27899  0.36380  0.01354  Biso   1.000  C
  H365     1.0000 0.30190  0.36620  0.01980  Biso   1.000  H
  C836     1.0000 0.15858  0.34070  0.13399  Biso   1.000  C
  C837     1.0000 0.25464  0.35760  0.03780  Biso   1.000  C
  H366     1.0000 0.26100  0.35570  0.06070  Biso   1.000  H
  O398     1.0000 0.19180  0.33990  0.14210  Biso   1.000  O
  O399     1.0000 0.32618  0.87457  0.46411  Biso   1.000  O
  C838     1.0000 0.27899  0.86380  0.51354  Biso   1.000  C
  H367     1.0000 0.30190  0.86620  0.51980  Biso   1.000  H
  C839     1.0000 0.15858  0.84070  0.63399  Biso   1.000  C
  C840     1.0000 0.25464  0.85760  0.53780  Biso   1.000  C
  H368     1.0000 0.26100  0.85570  0.56070  Biso   1.000  H
  O400     1.0000 0.19180  0.83990  0.64210  Biso   1.000  O
  O401     1.0000 0.42382  0.37543  0.96411  Biso   1.000  O
  C841     1.0000 0.47101  0.38620  0.01354  Biso   1.000  C
  H369     1.0000 0.44810  0.38380  0.01980  Biso   1.000  H
  C842     1.0000 0.59142  0.40930  0.13399  Biso   1.000  C
  C843     1.0000 0.49536  0.39240  0.03780  Biso   1.000  C
  H370     1.0000 0.48900  0.39430  0.06070  Biso   1.000  H
  O402     1.0000 0.55820  0.41010  0.14210  Biso   1.000  O
  O403     1.0000 0.42382  0.87543  0.46411  Biso   1.000  O
  C844     1.0000 0.47101  0.88620  0.51354  Biso   1.000  C
  H371     1.0000 0.44810  0.88380  0.51980  Biso   1.000  H
  C845     1.0000 0.59142  0.90930  0.63399  Biso   1.000  C
  C846     1.0000 0.49536  0.89240  0.53780  Biso   1.000  C
  H372     1.0000 0.48900  0.89430  0.56070  Biso   1.000  H
  O404     1.0000 0.55820  0.91010  0.64210  Biso   1.000  O
  O405     1.0000 0.92382  0.37543  0.46411  Biso   1.000  O
  C847     1.0000 0.97101  0.38620  0.51354  Biso   1.000  C
  H373     1.0000 0.94810  0.38380  0.51980  Biso   1.000  H
  C848     1.0000 0.09142  0.40930  0.63399  Biso   1.000  C
  C849     1.0000 0.99536  0.39240  0.53780  Biso   1.000  C
  H374     1.0000 0.98900  0.39430  0.56070  Biso   1.000  H
  O406     1.0000 0.05820  0.41010  0.64210  Biso   1.000  O
  O407     1.0000 0.92382  0.87543  0.96411  Biso   1.000  O
  C850     1.0000 0.97101  0.88620  0.01354  Biso   1.000  C
  H375     1.0000 0.94810  0.88380  0.01980  Biso   1.000  H
  C851     1.0000 0.09142  0.90930  0.13399  Biso   1.000  C
  C852     1.0000 0.99536  0.89240  0.03780  Biso   1.000  C
  H376     1.0000 0.98900  0.89430  0.06070  Biso   1.000  H
  O408     1.0000 0.05820  0.91010  0.14210  Biso   1.000  O
  O409     1.0000 0.32618  0.87543  0.28589  Biso   1.000  O
  C853     1.0000 0.27899  0.88620  0.23646  Biso   1.000  C
  H377     1.0000 0.30190  0.88380  0.23020  Biso   1.000  H
  C854     1.0000 0.15858  0.90930  0.11601  Biso   1.000  C
  C855     1.0000 0.25464  0.89240  0.21220  Biso   1.000  C
  H378     1.0000 0.26100  0.89430  0.18930  Biso   1.000  H
  O410     1.0000 0.19180  0.91010  0.10790  Biso   1.000  O
  O411     1.0000 0.32618  0.37543  0.78589  Biso   1.000  O
  C856     1.0000 0.27899  0.38620  0.73646  Biso   1.000  C
  H379     1.0000 0.30190  0.38380  0.73020  Biso   1.000  H
  C857     1.0000 0.15858  0.40930  0.61601  Biso   1.000  C
  C858     1.0000 0.25464  0.39240  0.71220  Biso   1.000  C
  H380     1.0000 0.26100  0.39430  0.68930  Biso   1.000  H
  O412     1.0000 0.19180  0.41010  0.60790  Biso   1.000  O
  O413     1.0000 0.82618  0.87543  0.78589  Biso   1.000  O
  C859     1.0000 0.77899  0.88620  0.73646  Biso   1.000  C
  H381     1.0000 0.80190  0.88380  0.73020  Biso   1.000  H
  C860     1.0000 0.65858  0.90930  0.61601  Biso   1.000  C
  C861     1.0000 0.75464  0.89240  0.71220  Biso   1.000  C
  H382     1.0000 0.76100  0.89430  0.68930  Biso   1.000  H
  O414     1.0000 0.69180  0.91010  0.60790  Biso   1.000  O
  O415     1.0000 0.82618  0.37543  0.28589  Biso   1.000  O
  C862     1.0000 0.77899  0.38620  0.23646  Biso   1.000  C
  H383     1.0000 0.80190  0.38380  0.23020  Biso   1.000  H
  C863     1.0000 0.65858  0.40930  0.11601  Biso   1.000  C
  C864     1.0000 0.75464  0.39240  0.21220  Biso   1.000  C
  H384     1.0000 0.76100  0.39430  0.18930  Biso   1.000  H
  O416     1.0000 0.69180  0.41010  0.10790  Biso   1.000  O
  Zr25     1.0000 0.87500  0.43719  0.37500  Biso   1.000  Zr
  Zr26     1.0000 0.87500  0.93719  0.87500  Biso   1.000  Zr
  Zr27     1.0000 0.87500  0.81281  0.87500  Biso   1.000  Zr
  Zr28     1.0000 0.37500  0.31281  0.87500  Biso   1.000  Zr
  Zr29     1.0000 0.37500  0.81281  0.37500  Biso   1.000  Zr
  Zr30     1.0000 0.37500  0.93719  0.37500  Biso   1.000  Zr
  Zr31     1.0000 0.93719  0.37500  0.37500  Biso   1.000  Zr
  Zr32     1.0000 0.93719  0.87500  0.87500  Biso   1.000  Zr
  Zr33     1.0000 0.31281  0.87500  0.37500  Biso   1.000  Zr
  Zr34     1.0000 0.81281  0.87500  0.87500  Biso   1.000  Zr
  Zr35     1.0000 0.81281  0.37500  0.37500  Biso   1.000  Zr
  Zr36     1.0000 0.43719  0.37500  0.87500  Biso   1.000  Zr
  Zr37     1.0000 0.87500  0.37500  0.31281  Biso   1.000  Zr
  Zr38     1.0000 0.37500  0.37500  0.93719  Biso   1.000  Zr
  Zr39     1.0000 0.87500  0.87500  0.93719  Biso   1.000  Zr
  Zr40     1.0000 0.37500  0.87500  0.43719  Biso   1.000  Zr
  Zr41     1.0000 0.87500  0.87500  0.81281  Biso   1.000  Zr
  Zr42     1.0000 0.43719  0.87500  0.37500  Biso   1.000  Zr
  Zr43     1.0000 0.31281  0.37500  0.87500  Biso   1.000  Zr
  Zr44     1.0000 0.37500  0.43719  0.87500  Biso   1.000  Zr
  Zr45     1.0000 0.87500  0.31281  0.37500  Biso   1.000  Zr
  Zr46     1.0000 0.87500  0.37500  0.43719  Biso   1.000  Zr
  Zr47     1.0000 0.37500  0.87500  0.31281  Biso   1.000  Zr
  Zr48     1.0000 0.37500  0.37500  0.81281  Biso   1.000  Zr
  O417     1.0000 0.90410  0.40410  0.40410  Biso   1.000  O
  O418     1.0000 0.90410  0.90410  0.90410  Biso   1.000  O
  O419     1.0000 0.84590  0.84590  0.90410  Biso   1.000  O
  O420     1.0000 0.40410  0.34590  0.84590  Biso   1.000  O
  O421     1.0000 0.34590  0.90410  0.34590  Biso   1.000  O
  O422     1.0000 0.90410  0.34590  0.34590  Biso   1.000  O
  O423     1.0000 0.34590  0.84590  0.40410  Biso   1.000  O
  O424     1.0000 0.84590  0.90410  0.84590  Biso   1.000  O
  O425     1.0000 0.40410  0.40410  0.90410  Biso   1.000  O
  O426     1.0000 0.84590  0.40410  0.34590  Biso   1.000  O
  O427     1.0000 0.34590  0.34590  0.90410  Biso   1.000  O
  O428     1.0000 0.40410  0.90410  0.40410  Biso   1.000  O
  O429     1.0000 0.90410  0.84590  0.84590  Biso   1.000  O
  O430     1.0000 0.34590  0.40410  0.84590  Biso   1.000  O
  O431     1.0000 0.84590  0.34590  0.40410  Biso   1.000  O
  O432     1.0000 0.40410  0.84590  0.34590  Biso   1.000  O
  O433     1.0000 0.84280  0.40720  0.40720  Biso   1.000  O
  O434     1.0000 0.90720  0.84280  0.90720  Biso   1.000  O
  O435     1.0000 0.34280  0.34280  0.84280  Biso   1.000  O
  O436     1.0000 0.84280  0.84280  0.84280  Biso   1.000  O
  O437     1.0000 0.40720  0.90720  0.34280  Biso   1.000  O
  O438     1.0000 0.90720  0.34280  0.40720  Biso   1.000  O
  O439     1.0000 0.34280  0.84280  0.34280  Biso   1.000  O
  O440     1.0000 0.84280  0.90720  0.90720  Biso   1.000  O
  O441     1.0000 0.40720  0.40720  0.84280  Biso   1.000  O
  O442     1.0000 0.84280  0.34280  0.34280  Biso   1.000  O
  O443     1.0000 0.34280  0.40720  0.90720  Biso   1.000  O
  O444     1.0000 0.40720  0.84280  0.40720  Biso   1.000  O
  O445     1.0000 0.90720  0.90720  0.84280  Biso   1.000  O
  O446     1.0000 0.90720  0.40720  0.34280  Biso   1.000  O
  O447     1.0000 0.34280  0.90720  0.40720  Biso   1.000  O
  O448     1.0000 0.40720  0.34280  0.90720  Biso   1.000  O
  C865     1.0000 0.79601  0.45399  0.37236  Biso   1.000  C
  C866     1.0000 0.76973  0.48027  0.36640  Biso   1.000  C
  C867     1.0000 0.64978  0.60022  0.34150  Biso   1.000  C
  C868     1.0000 0.72114  0.52886  0.35430  Biso   1.000  C
  C869     1.0000 0.69596  0.55404  0.34950  Biso   1.000  C
  C870     1.0000 0.67501  0.57499  0.34480  Biso   1.000  C
  C871     1.0000 0.29601  0.45399  0.87236  Biso   1.000  C
  C872     1.0000 0.26973  0.48027  0.86640  Biso   1.000  C
  C873     1.0000 0.14978  0.60022  0.84150  Biso   1.000  C
  C874     1.0000 0.22114  0.52886  0.85430  Biso   1.000  C
  C875     1.0000 0.19596  0.55404  0.84950  Biso   1.000  C
  C876     1.0000 0.17501  0.57499  0.84480  Biso   1.000  C
  C877     1.0000 0.95399  0.79601  0.87236  Biso   1.000  C
  C878     1.0000 0.98027  0.76973  0.86640  Biso   1.000  C
  C879     1.0000 0.10022  0.64978  0.84150  Biso   1.000  C
  C880     1.0000 0.02886  0.72114  0.85430  Biso   1.000  C
  C881     1.0000 0.05404  0.69596  0.84950  Biso   1.000  C
  C882     1.0000 0.07499  0.67501  0.84480  Biso   1.000  C
  C883     1.0000 0.95399  0.29601  0.37236  Biso   1.000  C
  C884     1.0000 0.98027  0.26973  0.36640  Biso   1.000  C
  C885     1.0000 0.10022  0.14978  0.34150  Biso   1.000  C
  C886     1.0000 0.02886  0.22114  0.35430  Biso   1.000  C
  C887     1.0000 0.05404  0.19596  0.34950  Biso   1.000  C
  C888     1.0000 0.07499  0.17501  0.34480  Biso   1.000  C
  C889     1.0000 0.29601  0.29601  0.87764  Biso   1.000  C
  C890     1.0000 0.26973  0.26973  0.88360  Biso   1.000  C
  C891     1.0000 0.14978  0.14978  0.90850  Biso   1.000  C
  C892     1.0000 0.22114  0.22114  0.89570  Biso   1.000  C
  C893     1.0000 0.19596  0.19596  0.90050  Biso   1.000  C
  C894     1.0000 0.17501  0.17501  0.90520  Biso   1.000  C
  C895     1.0000 0.29601  0.79601  0.37764  Biso   1.000  C
  C896     1.0000 0.26973  0.76973  0.38360  Biso   1.000  C
  C897     1.0000 0.14978  0.64978  0.40850  Biso   1.000  C
  C898     1.0000 0.22114  0.72114  0.39570  Biso   1.000  C
  C899     1.0000 0.19596  0.69596  0.40050  Biso   1.000  C
  C900     1.0000 0.17501  0.67501  0.40520  Biso   1.000  C
  C901     1.0000 0.79601  0.29601  0.37764  Biso   1.000  C
  C902     1.0000 0.76973  0.26973  0.38360  Biso   1.000  C
  C903     1.0000 0.64978  0.14978  0.40850  Biso   1.000  C
  C904     1.0000 0.72114  0.22114  0.39570  Biso   1.000  C
  C905     1.0000 0.69596  0.19596  0.40050  Biso   1.000  C
  C906     1.0000 0.67501  0.17501  0.40520  Biso   1.000  C
  C907     1.0000 0.79601  0.79601  0.87764  Biso   1.000  C
  C908     1.0000 0.76973  0.76973  0.88360  Biso   1.000  C
  C909     1.0000 0.64978  0.64978  0.90850  Biso   1.000  C
  C910     1.0000 0.72114  0.72114  0.89570  Biso   1.000  C
  C911     1.0000 0.69596  0.69596  0.90050  Biso   1.000  C
  C912     1.0000 0.67501  0.67501  0.90520  Biso   1.000  C
  C913     1.0000 0.45399  0.95399  0.37764  Biso   1.000  C
  C914     1.0000 0.48027  0.98027  0.38360  Biso   1.000  C
  C915     1.0000 0.60022  0.10022  0.40850  Biso   1.000  C
  C916     1.0000 0.52886  0.02886  0.39570  Biso   1.000  C
  C917     1.0000 0.55404  0.05404  0.40050  Biso   1.000  C
  C918     1.0000 0.57499  0.07499  0.40520  Biso   1.000  C
  C919     1.0000 0.45399  0.45399  0.87764  Biso   1.000  C
  C920     1.0000 0.48027  0.48027  0.88360  Biso   1.000  C
  C921     1.0000 0.60022  0.60022  0.90850  Biso   1.000  C
  C922     1.0000 0.52886  0.52886  0.89570  Biso   1.000  C
  C923     1.0000 0.55404  0.55404  0.90050  Biso   1.000  C
  C924     1.0000 0.57499  0.57499  0.90520  Biso   1.000  C
  C925     1.0000 0.95399  0.95399  0.87764  Biso   1.000  C
  C926     1.0000 0.98027  0.98027  0.88360  Biso   1.000  C
  C927     1.0000 0.10022  0.10022  0.90850  Biso   1.000  C
  C928     1.0000 0.02886  0.02886  0.89570  Biso   1.000  C
  C929     1.0000 0.05404  0.05404  0.90050  Biso   1.000  C
  C930     1.0000 0.07499  0.07499  0.90520  Biso   1.000  C
  C931     1.0000 0.95399  0.37764  0.45399  Biso   1.000  C
  C932     1.0000 0.98027  0.38360  0.48027  Biso   1.000  C
  C933     1.0000 0.10022  0.40850  0.60022  Biso   1.000  C
  C934     1.0000 0.02886  0.39570  0.52886  Biso   1.000  C
  C935     1.0000 0.05404  0.40050  0.55404  Biso   1.000  C
  C936     1.0000 0.07499  0.40520  0.57499  Biso   1.000  C
  C937     1.0000 0.95399  0.87764  0.95399  Biso   1.000  C
  C938     1.0000 0.98027  0.88360  0.98027  Biso   1.000  C
  C939     1.0000 0.10022  0.90850  0.10022  Biso   1.000  C
  C940     1.0000 0.02886  0.89570  0.02886  Biso   1.000  C
  C941     1.0000 0.05404  0.90050  0.05404  Biso   1.000  C
  C942     1.0000 0.07499  0.90520  0.07499  Biso   1.000  C
  C943     1.0000 0.29601  0.87764  0.29601  Biso   1.000  C
  C944     1.0000 0.26973  0.88360  0.26973  Biso   1.000  C
  C945     1.0000 0.14978  0.90850  0.14978  Biso   1.000  C
  C946     1.0000 0.22114  0.89570  0.22114  Biso   1.000  C
  C947     1.0000 0.19596  0.90050  0.19596  Biso   1.000  C
  C948     1.0000 0.17501  0.90520  0.17501  Biso   1.000  C
  C949     1.0000 0.29601  0.37764  0.79601  Biso   1.000  C
  C950     1.0000 0.26973  0.38360  0.76973  Biso   1.000  C
  C951     1.0000 0.14978  0.40850  0.64978  Biso   1.000  C
  C952     1.0000 0.22114  0.39570  0.72114  Biso   1.000  C
  C953     1.0000 0.19596  0.40050  0.69596  Biso   1.000  C
  C954     1.0000 0.17501  0.40520  0.67501  Biso   1.000  C
  C955     1.0000 0.79601  0.87764  0.79601  Biso   1.000  C
  C956     1.0000 0.76973  0.88360  0.76973  Biso   1.000  C
  C957     1.0000 0.64978  0.90850  0.64978  Biso   1.000  C
  C958     1.0000 0.72114  0.89570  0.72114  Biso   1.000  C
  C959     1.0000 0.69596  0.90050  0.69596  Biso   1.000  C
  C960     1.0000 0.67501  0.90520  0.67501  Biso   1.000  C
  C961     1.0000 0.79601  0.37764  0.29601  Biso   1.000  C
  C962     1.0000 0.76973  0.38360  0.26973  Biso   1.000  C
  C963     1.0000 0.64978  0.40850  0.14978  Biso   1.000  C
  C964     1.0000 0.72114  0.39570  0.22114  Biso   1.000  C
  C965     1.0000 0.69596  0.40050  0.19596  Biso   1.000  C
  C966     1.0000 0.67501  0.40520  0.17501  Biso   1.000  C
  C967     1.0000 0.79601  0.87236  0.95399  Biso   1.000  C
  C968     1.0000 0.76973  0.86640  0.98027  Biso   1.000  C
  C969     1.0000 0.64978  0.84150  0.10022  Biso   1.000  C
  C970     1.0000 0.72114  0.85430  0.02886  Biso   1.000  C
  C971     1.0000 0.69596  0.84950  0.05404  Biso   1.000  C
  C972     1.0000 0.67501  0.84480  0.07499  Biso   1.000  C
  C973     1.0000 0.29601  0.87236  0.45399  Biso   1.000  C
  C974     1.0000 0.26973  0.86640  0.48027  Biso   1.000  C
  C975     1.0000 0.14978  0.84150  0.60022  Biso   1.000  C
  C976     1.0000 0.22114  0.85430  0.52886  Biso   1.000  C
  C977     1.0000 0.19596  0.84950  0.55404  Biso   1.000  C
  C978     1.0000 0.17501  0.84480  0.57499  Biso   1.000  C
  C979     1.0000 0.45399  0.37236  0.79601  Biso   1.000  C
  C980     1.0000 0.48027  0.36640  0.76973  Biso   1.000  C
  C981     1.0000 0.60022  0.34150  0.64978  Biso   1.000  C
  C982     1.0000 0.52886  0.35430  0.72114  Biso   1.000  C
  C983     1.0000 0.55404  0.34950  0.69596  Biso   1.000  C
  C984     1.0000 0.57499  0.34480  0.67501  Biso   1.000  C
  C985     1.0000 0.45399  0.87236  0.29601  Biso   1.000  C
  C986     1.0000 0.48027  0.86640  0.26973  Biso   1.000  C
  C987     1.0000 0.60022  0.84150  0.14978  Biso   1.000  C
  C988     1.0000 0.52886  0.85430  0.22114  Biso   1.000  C
  C989     1.0000 0.55404  0.84950  0.19596  Biso   1.000  C
  C990     1.0000 0.57499  0.84480  0.17501  Biso   1.000  C
  C991     1.0000 0.87764  0.29601  0.29601  Biso   1.000  C
  C992     1.0000 0.88360  0.26973  0.26973  Biso   1.000  C
  C993     1.0000 0.90850  0.14978  0.14978  Biso   1.000  C
  C994     1.0000 0.89570  0.22114  0.22114  Biso   1.000  C
  C995     1.0000 0.90050  0.19596  0.19596  Biso   1.000  C
  C996     1.0000 0.90520  0.17501  0.17501  Biso   1.000  C
  C997     1.0000 0.87764  0.79601  0.79601  Biso   1.000  C
  C998     1.0000 0.88360  0.76973  0.76973  Biso   1.000  C
  C999     1.0000 0.90850  0.64978  0.64978  Biso   1.000  C
  C1000    1.0000 0.89570  0.72114  0.72114  Biso   1.000  C
  C1001    1.0000 0.90050  0.69596  0.69596  Biso   1.000  C
  C1002    1.0000 0.90520  0.67501  0.67501  Biso   1.000  C
  C1003    1.0000 0.37764  0.29601  0.79601  Biso   1.000  C
  C1004    1.0000 0.38360  0.26973  0.76973  Biso   1.000  C
  C1005    1.0000 0.40850  0.14978  0.64978  Biso   1.000  C
  C1006    1.0000 0.39570  0.22114  0.72114  Biso   1.000  C
  C1007    1.0000 0.40050  0.19596  0.69596  Biso   1.000  C
  C1008    1.0000 0.40520  0.17501  0.67501  Biso   1.000  C
  C1009    1.0000 0.37764  0.79601  0.29601  Biso   1.000  C
  C1010    1.0000 0.38360  0.76973  0.26973  Biso   1.000  C
  C1011    1.0000 0.40850  0.64978  0.14978  Biso   1.000  C
  C1012    1.0000 0.39570  0.72114  0.22114  Biso   1.000  C
  C1013    1.0000 0.40050  0.69596  0.19596  Biso   1.000  C
  C1014    1.0000 0.40520  0.67501  0.17501  Biso   1.000  C
  C1015    1.0000 0.37764  0.45399  0.95399  Biso   1.000  C
  C1016    1.0000 0.38360  0.48027  0.98027  Biso   1.000  C
  C1017    1.0000 0.40850  0.60022  0.10022  Biso   1.000  C
  C1018    1.0000 0.39570  0.52886  0.02886  Biso   1.000  C
  C1019    1.0000 0.40050  0.55404  0.05404  Biso   1.000  C
  C1020    1.0000 0.40520  0.57499  0.07499  Biso   1.000  C
  C1021    1.0000 0.87764  0.45399  0.45399  Biso   1.000  C
  C1022    1.0000 0.88360  0.48027  0.48027  Biso   1.000  C
  C1023    1.0000 0.90850  0.60022  0.60022  Biso   1.000  C
  C1024    1.0000 0.89570  0.52886  0.52886  Biso   1.000  C
  C1025    1.0000 0.90050  0.55404  0.55404  Biso   1.000  C
  C1026    1.0000 0.90520  0.57499  0.57499  Biso   1.000  C
  C1027    1.0000 0.87764  0.95399  0.95399  Biso   1.000  C
  C1028    1.0000 0.88360  0.98027  0.98027  Biso   1.000  C
  C1029    1.0000 0.90850  0.10022  0.10022  Biso   1.000  C
  C1030    1.0000 0.89570  0.02886  0.02886  Biso   1.000  C
  C1031    1.0000 0.90050  0.05404  0.05404  Biso   1.000  C
  C1032    1.0000 0.90520  0.07499  0.07499  Biso   1.000  C
  C1033    1.0000 0.37236  0.79601  0.45399  Biso   1.000  C
  C1034    1.0000 0.36640  0.76973  0.48027  Biso   1.000  C
  C1035    1.0000 0.34150  0.64978  0.60022  Biso   1.000  C
  C1036    1.0000 0.35430  0.72114  0.52886  Biso   1.000  C
  C1037    1.0000 0.34950  0.69596  0.55404  Biso   1.000  C
  C1038    1.0000 0.34480  0.67501  0.57499  Biso   1.000  C
  C1039    1.0000 0.37236  0.29601  0.95399  Biso   1.000  C
  C1040    1.0000 0.36640  0.26973  0.98027  Biso   1.000  C
  C1041    1.0000 0.34150  0.14978  0.10022  Biso   1.000  C
  C1042    1.0000 0.35430  0.22114  0.02886  Biso   1.000  C
  C1043    1.0000 0.34950  0.19596  0.05404  Biso   1.000  C
  C1044    1.0000 0.34480  0.17501  0.07499  Biso   1.000  C
  C1045    1.0000 0.87236  0.95399  0.79601  Biso   1.000  C
  C1046    1.0000 0.86640  0.98027  0.76973  Biso   1.000  C
  C1047    1.0000 0.84150  0.10022  0.64978  Biso   1.000  C
  C1048    1.0000 0.85430  0.02886  0.72114  Biso   1.000  C
  C1049    1.0000 0.84950  0.05404  0.69596  Biso   1.000  C
  C1050    1.0000 0.84480  0.07499  0.67501  Biso   1.000  C
  C1051    1.0000 0.87236  0.45399  0.29601  Biso   1.000  C
  C1052    1.0000 0.86640  0.48027  0.26973  Biso   1.000  C
  C1053    1.0000 0.84150  0.60022  0.14978  Biso   1.000  C
  C1054    1.0000 0.85430  0.52886  0.22114  Biso   1.000  C
  C1055    1.0000 0.84950  0.55404  0.19596  Biso   1.000  C
  C1056    1.0000 0.84480  0.57499  0.17501  Biso   1.000  C
  C1057    1.0000 0.79601  0.95399  0.87236  Biso   1.000  C
  C1058    1.0000 0.76973  0.98027  0.86640  Biso   1.000  C
  C1059    1.0000 0.64978  0.10022  0.84150  Biso   1.000  C
  C1060    1.0000 0.72114  0.02886  0.85430  Biso   1.000  C
  C1061    1.0000 0.69596  0.05404  0.84950  Biso   1.000  C
  C1062    1.0000 0.67501  0.07499  0.84480  Biso   1.000  C
  C1063    1.0000 0.29601  0.95399  0.37236  Biso   1.000  C
  C1064    1.0000 0.26973  0.98027  0.36640  Biso   1.000  C
  C1065    1.0000 0.14978  0.10022  0.34150  Biso   1.000  C
  C1066    1.0000 0.22114  0.02886  0.35430  Biso   1.000  C
  C1067    1.0000 0.19596  0.05404  0.34950  Biso   1.000  C
  C1068    1.0000 0.17501  0.07499  0.34480  Biso   1.000  C
  C1069    1.0000 0.45399  0.79601  0.37236  Biso   1.000  C
  C1070    1.0000 0.48027  0.76973  0.36640  Biso   1.000  C
  C1071    1.0000 0.60022  0.64978  0.34150  Biso   1.000  C
  C1072    1.0000 0.52886  0.72114  0.35430  Biso   1.000  C
  C1073    1.0000 0.55404  0.69596  0.34950  Biso   1.000  C
  C1074    1.0000 0.57499  0.67501  0.34480  Biso   1.000  C
  C1075    1.0000 0.45399  0.29601  0.87236  Biso   1.000  C
  C1076    1.0000 0.48027  0.26973  0.86640  Biso   1.000  C
  C1077    1.0000 0.60022  0.14978  0.84150  Biso   1.000  C
  C1078    1.0000 0.52886  0.22114  0.85430  Biso   1.000  C
  C1079    1.0000 0.55404  0.19596  0.84950  Biso   1.000  C
  C1080    1.0000 0.57499  0.17501  0.84480  Biso   1.000  C
  C1081    1.0000 0.95399  0.45399  0.37764  Biso   1.000  C
  C1082    1.0000 0.98027  0.48027  0.38360  Biso   1.000  C
  C1083    1.0000 0.10022  0.60022  0.40850  Biso   1.000  C
  C1084    1.0000 0.02886  0.52886  0.39570  Biso   1.000  C
  C1085    1.0000 0.05404  0.55404  0.40050  Biso   1.000  C
  C1086    1.0000 0.07499  0.57499  0.40520  Biso   1.000  C
  C1087    1.0000 0.87236  0.79601  0.95399  Biso   1.000  C
  C1088    1.0000 0.86640  0.76973  0.98027  Biso   1.000  C
  C1089    1.0000 0.84150  0.64978  0.10022  Biso   1.000  C
  C1090    1.0000 0.85430  0.72114  0.02886  Biso   1.000  C
  C1091    1.0000 0.84950  0.69596  0.05404  Biso   1.000  C
  C1092    1.0000 0.84480  0.67501  0.07499  Biso   1.000  C
  C1093    1.0000 0.87236  0.29601  0.45399  Biso   1.000  C
  C1094    1.0000 0.86640  0.26973  0.48027  Biso   1.000  C
  C1095    1.0000 0.84150  0.14978  0.60022  Biso   1.000  C
  C1096    1.0000 0.85430  0.22114  0.52886  Biso   1.000  C
  C1097    1.0000 0.84950  0.19596  0.55404  Biso   1.000  C
  C1098    1.0000 0.84480  0.17501  0.57499  Biso   1.000  C
  C1099    1.0000 0.37236  0.45399  0.79601  Biso   1.000  C
  C1100    1.0000 0.36640  0.48027  0.76973  Biso   1.000  C
  C1101    1.0000 0.34150  0.60022  0.64978  Biso   1.000  C
  C1102    1.0000 0.35430  0.52886  0.72114  Biso   1.000  C
  C1103    1.0000 0.34950  0.55404  0.69596  Biso   1.000  C
  C1104    1.0000 0.34480  0.57499  0.67501  Biso   1.000  C
  C1105    1.0000 0.37236  0.95399  0.29601  Biso   1.000  C
  C1106    1.0000 0.36640  0.98027  0.26973  Biso   1.000  C
  C1107    1.0000 0.34150  0.10022  0.14978  Biso   1.000  C
  C1108    1.0000 0.35430  0.02886  0.22114  Biso   1.000  C
  C1109    1.0000 0.34950  0.05404  0.19596  Biso   1.000  C
  C1110    1.0000 0.34480  0.07499  0.17501  Biso   1.000  C
  C1111    1.0000 0.37764  0.95399  0.45399  Biso   1.000  C
  C1112    1.0000 0.38360  0.98027  0.48027  Biso   1.000  C
  C1113    1.0000 0.40850  0.10022  0.60022  Biso   1.000  C
  C1114    1.0000 0.39570  0.02886  0.52886  Biso   1.000  C
  C1115    1.0000 0.40050  0.05404  0.55404  Biso   1.000  C
  C1116    1.0000 0.40520  0.07499  0.57499  Biso   1.000  C
  C1117    1.0000 0.95399  0.87236  0.79601  Biso   1.000  C
  C1118    1.0000 0.98027  0.86640  0.76973  Biso   1.000  C
  C1119    1.0000 0.10022  0.84150  0.64978  Biso   1.000  C
  C1120    1.0000 0.02886  0.85430  0.72114  Biso   1.000  C
  C1121    1.0000 0.05404  0.84950  0.69596  Biso   1.000  C
  C1122    1.0000 0.07499  0.84480  0.67501  Biso   1.000  C
  C1123    1.0000 0.95399  0.37236  0.29601  Biso   1.000  C
  C1124    1.0000 0.98027  0.36640  0.26973  Biso   1.000  C
  C1125    1.0000 0.10022  0.34150  0.14978  Biso   1.000  C
  C1126    1.0000 0.02886  0.35430  0.22114  Biso   1.000  C
  C1127    1.0000 0.05404  0.34950  0.19596  Biso   1.000  C
  C1128    1.0000 0.07499  0.34480  0.17501  Biso   1.000  C
  C1129    1.0000 0.79601  0.37236  0.45399  Biso   1.000  C
  C1130    1.0000 0.76973  0.36640  0.48027  Biso   1.000  C
  C1131    1.0000 0.64978  0.34150  0.60022  Biso   1.000  C
  C1132    1.0000 0.72114  0.35430  0.52886  Biso   1.000  C
  C1133    1.0000 0.69596  0.34950  0.55404  Biso   1.000  C
  C1134    1.0000 0.67501  0.34480  0.57499  Biso   1.000  C
  C1135    1.0000 0.29601  0.37236  0.95399  Biso   1.000  C
  C1136    1.0000 0.26973  0.36640  0.98027  Biso   1.000  C
  C1137    1.0000 0.14978  0.34150  0.10022  Biso   1.000  C
  C1138    1.0000 0.22114  0.35430  0.02886  Biso   1.000  C
  C1139    1.0000 0.19596  0.34950  0.05404  Biso   1.000  C
  C1140    1.0000 0.17501  0.34480  0.07499  Biso   1.000  C
  C1141    1.0000 0.45399  0.37764  0.95399  Biso   1.000  C
  C1142    1.0000 0.48027  0.38360  0.98027  Biso   1.000  C
  C1143    1.0000 0.60022  0.40850  0.10022  Biso   1.000  C
  C1144    1.0000 0.52886  0.39570  0.02886  Biso   1.000  C
  C1145    1.0000 0.55404  0.40050  0.05404  Biso   1.000  C
  C1146    1.0000 0.57499  0.40520  0.07499  Biso   1.000  C
  C1147    1.0000 0.45399  0.87764  0.45399  Biso   1.000  C
  C1148    1.0000 0.48027  0.88360  0.48027  Biso   1.000  C
  C1149    1.0000 0.60022  0.90850  0.60022  Biso   1.000  C
  C1150    1.0000 0.52886  0.89570  0.52886  Biso   1.000  C
  C1151    1.0000 0.55404  0.90050  0.55404  Biso   1.000  C
  C1152    1.0000 0.57499  0.90520  0.57499  Biso   1.000  C
