data_I
_chemical_name_common  '/Users/gianmarcoterrones/Downloads/PCN-224(Ni)'
_cell_length_a 38.51220
_cell_length_b 38.51220
_cell_length_c 38.51220
_cell_angle_alpha 90.00000
_cell_angle_beta  90.00000
_cell_angle_gamma 90.00000
_space_group_name_H-M_alt      'P 1'


loop_
_space_group_symop_operation_xyz
  'x, y, z' 

loop_
_atom_site_label
_atom_site_fract_x
_atom_site_fract_y
_atom_site_fract_z
_atom_site_type_symbol
Ni         0.0     0.25      0.5    Ni
N          0.0 0.2501016 0.449429     N
N          0.0 0.2501016 0.550589     N
N          0.0 0.449429 0.2501016     N
N          0.0 0.449429 0.7499016     N
Ni         0.0      0.5     0.25    Ni
Ni         0.0      0.5     0.75    Ni
N          0.0 0.550589 0.2501016     N
N          0.0 0.550589 0.7499016     N
N          0.0 0.7499016 0.449429     N
N          0.0 0.7499016 0.550589     N
Ni         0.0     0.75      0.5    Ni
C     0.017069 0.2534618 0.392138     C
C     0.017069 0.2534618 0.607878     C
C     0.017069 0.392138 0.2534618     C
C     0.017069 0.392138 0.7465418     C
C     0.017069 0.607878 0.2534618     C
C     0.017069 0.607878 0.7465418     C
C     0.017069 0.7465418 0.392138     C
C     0.017069 0.7465418 0.607878     C
C     0.028378 0.2514716 0.427828     C
C     0.028378 0.2514716 0.572188     C
C     0.028378 0.427828 0.2514716     C
C     0.028378 0.427828 0.7485316     C
C     0.028378 0.572188 0.2514716     C
C     0.028378 0.572188 0.7485316     C
C     0.028378 0.7485316 0.427828     C
C     0.028378 0.7485316 0.572188     C
H       0.0316   0.2546   0.3723     H
H       0.0316   0.2546   0.6277     H
H       0.0316   0.3723   0.2546     H
H       0.0316   0.3723   0.7454     H
H       0.0316   0.6277   0.2546     H
H       0.0316   0.6277   0.7454     H
H       0.0316   0.7454   0.3723     H
H       0.0316   0.7454   0.6277     H
N     0.050589 0.2499016      0.5     N
N     0.050589      0.5 0.2499016     N
N     0.050589      0.5 0.7501016     N
N     0.050589 0.7501016      0.5     N
C     0.062667     0.25 0.437347     C
C     0.062667     0.25 0.562667     C
C     0.062667 0.437347     0.25     C
C     0.062667 0.437347     0.75     C
C     0.062667 0.562667     0.25     C
C     0.062667 0.562667     0.75     C
C     0.062667     0.75 0.437347     C
C     0.062667     0.75 0.562667     C
C     0.072188 0.2485316 0.471638     C
C     0.072188 0.2485316 0.528378     C
C     0.072188 0.471638 0.2485316     C
C     0.072188 0.471638 0.7514716     C
C     0.072188 0.528378 0.2485316     C
C     0.072188 0.528378 0.7514716     C
C     0.072188 0.7514716 0.471638     C
C     0.072188 0.7514716 0.528378     C
H       0.0851   0.1998    0.397     H
H       0.0851   0.1998    0.603     H
H       0.0851    0.397   0.1998     H
H       0.0851    0.397   0.8002     H
H       0.0851    0.603   0.1998     H
H       0.0851    0.603   0.8002     H
H       0.0851   0.8002    0.397     H
H       0.0851   0.8002    0.603     H
C     0.089979     0.25 0.410039     C
C     0.089979     0.25 0.589979     C
C     0.089979 0.410039     0.25     C
C     0.089979 0.410039     0.75     C
C     0.089979 0.589979     0.25     C
C     0.089979 0.589979     0.75     C
C     0.089979     0.75 0.410039     C
C     0.089979     0.75 0.589979     C
C     0.0975712 0.2204817 0.3921212     C
C     0.0975712 0.2204817 0.6078812     C
C     0.0975712 0.3921212 0.2204817     C
C     0.0975712 0.3921212 0.7795217     C
C     0.0975712 0.6078812 0.2204817     C
C     0.0975712 0.6078812 0.7795217     C
C     0.0975712 0.7795217 0.3921212     C
C     0.0975712 0.7795217 0.6078812     C
H        0.103   0.3002   0.4149     H
H        0.103   0.3002   0.5851     H
H        0.103   0.4149   0.3002     H
H        0.103   0.4149   0.6998     H
H        0.103   0.5851   0.3002     H
H        0.103   0.5851   0.6998     H
H        0.103   0.6998   0.4149     H
H        0.103   0.6998   0.5851     H
C     0.107878 0.2465418 0.482949     C
C     0.107878 0.2465418 0.517069     C
C     0.107878 0.482949 0.2465418     C
C     0.107878 0.482949 0.7534618     C
C     0.107878 0.517069 0.2465418     C
C     0.107878 0.517069 0.7534618     C
C     0.107878 0.7534618 0.482949     C
C     0.107878 0.7534618 0.517069     C
C     0.1078812 0.2795217 0.4024312     C
C     0.1078812 0.2795217 0.5975712     C
C     0.1078812 0.4024312 0.2795217     C
C     0.1078812 0.4024312 0.7204817     C
C     0.1078812 0.5975712 0.2795217     C
C     0.1078812 0.5975712 0.7204817     C
C     0.1078812 0.7204817 0.4024312     C
C     0.1078812 0.7204817 0.5975712     C
C     0.1234812 0.2201816 0.3665411     C
C     0.1234812 0.2201816 0.6334611     C
C     0.1234812 0.3665411 0.2201816     C
C     0.1234812 0.3665411 0.7798216     C
C     0.1234812 0.6334611 0.2201816     C
C     0.1234812 0.6334611 0.7798216     C
C     0.1234812 0.7798216 0.3665411     C
C     0.1234812 0.7798216 0.6334611     C
H       0.1277   0.2454   0.4684     H
H       0.1277   0.2454   0.5316     H
H       0.1277   0.4684   0.2454     H
H       0.1277   0.4684   0.7546     H
H       0.1277   0.5316   0.2454     H
H       0.1277   0.5316   0.7546     H
H       0.1277   0.7546   0.4684     H
H       0.1277   0.7546   0.5316     H
H       0.1288   0.1993   0.3545     H
H       0.1288   0.1993   0.6455     H
H       0.1288   0.3545   0.1993     H
H       0.1288   0.3545   0.8007     H
H       0.1288   0.6455   0.1993     H
H       0.1288   0.6455   0.8007     H
H       0.1288   0.8007   0.3545     H
H       0.1288   0.8007   0.6455     H
C     0.1334611 0.2798216 0.3765212     C
C     0.1334611 0.2798216 0.6234812     C
C     0.1334611 0.3765212 0.2798216     C
C     0.1334611 0.3765212 0.7201816     C
C     0.1334611 0.6234812 0.2798216     C
C     0.1334611 0.6234812 0.7201816     C
C     0.1334611 0.7201816 0.3765212     C
C     0.1334611 0.7201816 0.6234812     C
C     0.141008     0.25 0.359008     C
C     0.141008     0.25 0.641008     C
C     0.141008 0.359008     0.25     C
C     0.141008 0.359008     0.75     C
C     0.141008 0.641008     0.25     C
C     0.141008 0.641008     0.75     C
C     0.141008     0.75 0.359008     C
C     0.141008     0.75 0.641008     C
H       0.1455   0.3007   0.3712     H
H       0.1455   0.3007   0.6288     H
H       0.1455   0.3712   0.3007     H
H       0.1455   0.3712   0.6993     H
H       0.1455   0.6288   0.3007     H
H       0.1455   0.6288   0.6993     H
H       0.1455   0.6993   0.3712     H
H       0.1455   0.6993   0.6288     H
O     0.1534411 0.2009916 0.2490513     O
O     0.1534411 0.2009916 0.7509513     O
O     0.1534411 0.2490513 0.2009916     O
O     0.1534411 0.2490513 0.7990116     O
O     0.1534411 0.7509513 0.2009916     O
O     0.1534411 0.7509513 0.7990116     O
O     0.1534411 0.7990116 0.2490513     O
O     0.1534411 0.7990116 0.7509513     O
C     0.168331     0.25 0.331671     C
C     0.168331     0.25 0.668331     C
C     0.168331 0.331671     0.25     C
C     0.168331 0.331671     0.75     C
C     0.168331 0.668331     0.25     C
C     0.168331 0.668331     0.75     C
C     0.168331     0.75 0.331671     C
C     0.168331     0.75 0.668331     C
O     0.172488 0.222219 0.314748     O
O     0.172488 0.222219 0.685268     O
O     0.172488 0.314748 0.222219     O
O     0.172488 0.314748 0.777799     O
O     0.172488 0.685268 0.222219     O
O     0.172488 0.685268 0.777799     O
O     0.172488 0.777799 0.314748     O
O     0.172488 0.777799 0.685268     O
O     0.185268 0.277799 0.327528     O
O     0.185268 0.277799 0.672488     O
O     0.185268 0.327528 0.277799     O
O     0.185268 0.327528 0.722219     O
O     0.185268 0.672488 0.277799     O
O     0.185268 0.672488 0.722219     O
O     0.185268 0.722219 0.327528     O
O     0.185268 0.722219 0.672488     O
O      0.19632 0.258981 0.258981     O
O      0.19632 0.258981 0.741021     O
O      0.19632 0.741021 0.258981     O
O      0.19632 0.741021 0.741021     O
H       0.1993   0.1288   0.3545     H
H       0.1993   0.1288   0.6455     H
H       0.1993   0.3545   0.1288     H
H       0.1993   0.3545   0.8712     H
H       0.1993   0.6455   0.1288     H
H       0.1993   0.6455   0.8712     H
H       0.1993   0.8712   0.3545     H
H       0.1993   0.8712   0.6455     H
H       0.1998   0.0851    0.397     H
H       0.1998   0.0851    0.603     H
H       0.1998    0.397   0.0851     H
H       0.1998    0.397   0.9149     H
H       0.1998    0.603   0.0851     H
H       0.1998    0.603   0.9149     H
H       0.1998   0.9149    0.397     H
H       0.1998   0.9149    0.603     H
O     0.2009916 0.1534411 0.2490513     O
O     0.2009916 0.1534411 0.7509513     O
O     0.2009916 0.2490513 0.1534411     O
O     0.2009916 0.2490513 0.8465611     O
O     0.2009916 0.7509513 0.1534411     O
O     0.2009916 0.7509513 0.8465611     O
O     0.2009916 0.8465611 0.2490513     O
O     0.2009916 0.8465611 0.7509513     O
Zr    0.20710615 0.20710615 0.27157617    Zr
Zr    0.20710615 0.20710615 0.72842417    Zr
Zr    0.20710615 0.27157617 0.20710615    Zr
Zr    0.20710615 0.27157617 0.79289415    Zr
Zr    0.20710615 0.72842417 0.20710615    Zr
Zr    0.20710615 0.72842417 0.79289415    Zr
Zr    0.20710615 0.79289415 0.27157617    Zr
Zr    0.20710615 0.79289415 0.72842417    Zr
O     0.217949 0.217949 0.217949     O
O     0.217949 0.217949 0.782069     O
O     0.217949 0.782069 0.217949     O
O     0.217949 0.782069 0.782069     O
C     0.2201816 0.1234812 0.3665411     C
C     0.2201816 0.1234812 0.6334611     C
C     0.2201816 0.3665411 0.1234812     C
C     0.2201816 0.3665411 0.8765212     C
C     0.2201816 0.6334611 0.1234812     C
C     0.2201816 0.6334611 0.8765212     C
C     0.2201816 0.8765212 0.3665411     C
C     0.2201816 0.8765212 0.6334611     C
C     0.2204817 0.0975712 0.3921212     C
C     0.2204817 0.0975712 0.6078812     C
C     0.2204817 0.3921212 0.0975712     C
C     0.2204817 0.3921212 0.9024312     C
C     0.2204817 0.6078812 0.0975712     C
C     0.2204817 0.6078812 0.9024312     C
C     0.2204817 0.9024312 0.3921212     C
C     0.2204817 0.9024312 0.6078812     C
O     0.222219 0.172488 0.314748     O
O     0.222219 0.172488 0.685268     O
O     0.222219 0.314748 0.172488     O
O     0.222219 0.314748 0.827528     O
O     0.222219 0.685268 0.172488     O
O     0.222219 0.685268 0.827528     O
O     0.222219 0.827528 0.314748     O
O     0.222219 0.827528 0.685268     O
Zr    0.22842417 0.29289415 0.29289415    Zr
Zr    0.22842417 0.29289415 0.70710615    Zr
Zr    0.22842417 0.70710615 0.29289415    Zr
Zr    0.22842417 0.70710615 0.70710615    Zr
O     0.241021 0.241021  0.30372     O
O     0.241021 0.241021  0.69632     O
O     0.241021  0.30372 0.241021     O
O     0.241021  0.30372 0.758981     O
O     0.241021  0.69632 0.241021     O
O     0.241021  0.69632 0.758981     O
O     0.241021 0.758981  0.30372     O
O     0.241021 0.758981  0.69632     O
H       0.2454   0.1277   0.4684     H
H       0.2454   0.1277   0.5316     H
H       0.2454   0.4684   0.1277     H
H       0.2454   0.4684   0.8723     H
H       0.2454   0.5316   0.1277     H
H       0.2454   0.5316   0.8723     H
H       0.2454   0.8723   0.4684     H
H       0.2454   0.8723   0.5316     H
C     0.2465418 0.107878 0.482949     C
C     0.2465418 0.107878 0.517069     C
C     0.2465418 0.482949 0.107878     C
C     0.2465418 0.482949 0.892138     C
C     0.2465418 0.517069 0.107878     C
C     0.2465418 0.517069 0.892138     C
C     0.2465418 0.892138 0.482949     C
C     0.2465418 0.892138 0.517069     C
C     0.2485316 0.072188 0.471638     C
C     0.2485316 0.072188 0.528378     C
C     0.2485316 0.471638 0.072188     C
C     0.2485316 0.471638 0.927828     C
C     0.2485316 0.528378 0.072188     C
C     0.2485316 0.528378 0.927828     C
C     0.2485316 0.927828 0.471638     C
C     0.2485316 0.927828 0.528378     C
O     0.2490513 0.1534411 0.2009916     O
O     0.2490513 0.1534411 0.7990116     O
O     0.2490513 0.2009916 0.1534411     O
O     0.2490513 0.2009916 0.8465611     O
O     0.2490513 0.7990116 0.1534411     O
O     0.2490513 0.7990116 0.8465611     O
O     0.2490513 0.8465611 0.2009916     O
O     0.2490513 0.8465611 0.7990116     O
N     0.2499016 0.050589      0.5     N
N     0.2499016      0.5 0.050589     N
N     0.2499016      0.5 0.949429     N
N     0.2499016 0.949429      0.5     N
Ni        0.25      0.0      0.5    Ni
C         0.25 0.062667 0.437347     C
C         0.25 0.062667 0.562667     C
C         0.25 0.089979 0.410039     C
C         0.25 0.089979 0.589979     C
C         0.25 0.141008 0.359008     C
C         0.25 0.141008 0.641008     C
C         0.25 0.168331 0.331671     C
C         0.25 0.168331 0.668331     C
C         0.25 0.331671 0.168331     C
C         0.25 0.331671 0.831671     C
C         0.25 0.359008 0.141008     C
C         0.25 0.359008 0.859008     C
C         0.25 0.410039 0.089979     C
C         0.25 0.410039 0.910039     C
C         0.25 0.437347 0.062667     C
C         0.25 0.437347 0.937347     C
Ni        0.25      0.5      0.0    Ni
C         0.25 0.562667 0.062667     C
C         0.25 0.562667 0.937347     C
C         0.25 0.589979 0.089979     C
C         0.25 0.589979 0.910039     C
C         0.25 0.641008 0.141008     C
C         0.25 0.641008 0.859008     C
C         0.25 0.668331 0.168331     C
C         0.25 0.668331 0.831671     C
C         0.25 0.831671 0.331671     C
C         0.25 0.831671 0.668331     C
C         0.25 0.859008 0.359008     C
C         0.25 0.859008 0.641008     C
C         0.25 0.910039 0.410039     C
C         0.25 0.910039 0.589979     C
C         0.25 0.937347 0.437347     C
C         0.25 0.937347 0.562667     C
N     0.2501016      0.0 0.449429     N
N     0.2501016      0.0 0.550589     N
N     0.2501016 0.449429      0.0     N
N     0.2501016 0.550589      0.0     N
O     0.2509513 0.2990116 0.3465611     O
O     0.2509513 0.2990116 0.6534411     O
O     0.2509513 0.3465611 0.2990116     O
O     0.2509513 0.3465611 0.7009916     O
O     0.2509513 0.6534411 0.2990116     O
O     0.2509513 0.6534411 0.7009916     O
O     0.2509513 0.7009916 0.3465611     O
O     0.2509513 0.7009916 0.6534411     O
C     0.2514716 0.028378 0.427828     C
C     0.2514716 0.028378 0.572188     C
C     0.2514716 0.427828 0.028378     C
C     0.2514716 0.427828 0.971638     C
C     0.2514716 0.572188 0.028378     C
C     0.2514716 0.572188 0.971638     C
C     0.2514716 0.971638 0.427828     C
C     0.2514716 0.971638 0.572188     C
C     0.2534618 0.017069 0.392138     C
C     0.2534618 0.017069 0.607878     C
C     0.2534618 0.392138 0.017069     C
C     0.2534618 0.392138 0.982949     C
C     0.2534618 0.607878 0.017069     C
C     0.2534618 0.607878 0.982949     C
C     0.2534618 0.982949 0.392138     C
C     0.2534618 0.982949 0.607878     C
H       0.2546   0.0316   0.3723     H
H       0.2546   0.0316   0.6277     H
H       0.2546   0.3723   0.0316     H
H       0.2546   0.3723   0.9684     H
H       0.2546   0.6277   0.0316     H
H       0.2546   0.6277   0.9684     H
H       0.2546   0.9684   0.3723     H
H       0.2546   0.9684   0.6277     H
O     0.258981  0.19632 0.258981     O
O     0.258981  0.19632 0.741021     O
O     0.258981 0.258981  0.19632     O
O     0.258981 0.258981  0.80372     O
O     0.258981 0.741021  0.19632     O
O     0.258981 0.741021  0.80372     O
O     0.258981  0.80372 0.258981     O
O     0.258981  0.80372 0.741021     O
Zr    0.27157617 0.20710615 0.20710615    Zr
Zr    0.27157617 0.20710615 0.79289415    Zr
Zr    0.27157617 0.79289415 0.20710615    Zr
Zr    0.27157617 0.79289415 0.79289415    Zr
O     0.277799 0.185268 0.327528     O
O     0.277799 0.185268 0.672488     O
O     0.277799 0.327528 0.185268     O
O     0.277799 0.327528 0.814748     O
O     0.277799 0.672488 0.185268     O
O     0.277799 0.672488 0.814748     O
O     0.277799 0.814748 0.327528     O
O     0.277799 0.814748 0.672488     O
C     0.2795217 0.1078812 0.4024312     C
C     0.2795217 0.1078812 0.5975712     C
C     0.2795217 0.4024312 0.1078812     C
C     0.2795217 0.4024312 0.8921212     C
C     0.2795217 0.5975712 0.1078812     C
C     0.2795217 0.5975712 0.8921212     C
C     0.2795217 0.8921212 0.4024312     C
C     0.2795217 0.8921212 0.5975712     C
C     0.2798216 0.1334611 0.3765212     C
C     0.2798216 0.1334611 0.6234812     C
C     0.2798216 0.3765212 0.1334611     C
C     0.2798216 0.3765212 0.8665411     C
C     0.2798216 0.6234812 0.1334611     C
C     0.2798216 0.6234812 0.8665411     C
C     0.2798216 0.8665411 0.3765212     C
C     0.2798216 0.8665411 0.6234812     C
O     0.282069 0.282069 0.282069     O
O     0.282069 0.282069 0.717949     O
O     0.282069 0.717949 0.282069     O
O     0.282069 0.717949 0.717949     O
Zr    0.29289415 0.22842417 0.29289415    Zr
Zr    0.29289415 0.22842417 0.70710615    Zr
Zr    0.29289415 0.29289415 0.22842417    Zr
Zr    0.29289415 0.29289415 0.77157617    Zr
Zr    0.29289415 0.70710615 0.22842417    Zr
Zr    0.29289415 0.70710615 0.77157617    Zr
Zr    0.29289415 0.77157617 0.29289415    Zr
Zr    0.29289415 0.77157617 0.70710615    Zr
O     0.2990116 0.2509513 0.3465611     O
O     0.2990116 0.2509513 0.6534411     O
O     0.2990116 0.3465611 0.2509513     O
O     0.2990116 0.3465611 0.7490513     O
O     0.2990116 0.6534411 0.2509513     O
O     0.2990116 0.6534411 0.7490513     O
O     0.2990116 0.7490513 0.3465611     O
O     0.2990116 0.7490513 0.6534411     O
H       0.3002    0.103   0.4149     H
H       0.3002    0.103   0.5851     H
H       0.3002   0.4149    0.103     H
H       0.3002   0.4149    0.897     H
H       0.3002   0.5851    0.103     H
H       0.3002   0.5851    0.897     H
H       0.3002    0.897   0.4149     H
H       0.3002    0.897   0.5851     H
H       0.3007   0.1455   0.3712     H
H       0.3007   0.1455   0.6288     H
H       0.3007   0.3712   0.1455     H
H       0.3007   0.3712   0.8545     H
H       0.3007   0.6288   0.1455     H
H       0.3007   0.6288   0.8545     H
H       0.3007   0.8545   0.3712     H
H       0.3007   0.8545   0.6288     H
O      0.30372 0.241021 0.241021     O
O      0.30372 0.241021 0.758981     O
O      0.30372 0.758981 0.241021     O
O      0.30372 0.758981 0.758981     O
O     0.314748 0.172488 0.222219     O
O     0.314748 0.172488 0.777799     O
O     0.314748 0.222219 0.172488     O
O     0.314748 0.222219 0.827528     O
O     0.314748 0.777799 0.172488     O
O     0.314748 0.777799 0.827528     O
O     0.314748 0.827528 0.222219     O
O     0.314748 0.827528 0.777799     O
O     0.327528 0.185268 0.277799     O
O     0.327528 0.185268 0.722219     O
O     0.327528 0.277799 0.185268     O
O     0.327528 0.277799 0.814748     O
O     0.327528 0.722219 0.185268     O
O     0.327528 0.722219 0.814748     O
O     0.327528 0.814748 0.277799     O
O     0.327528 0.814748 0.722219     O
C     0.331671 0.168331     0.25     C
C     0.331671 0.168331     0.75     C
C     0.331671     0.25 0.168331     C
C     0.331671     0.25 0.831671     C
C     0.331671     0.75 0.168331     C
C     0.331671     0.75 0.831671     C
C     0.331671 0.831671     0.25     C
C     0.331671 0.831671     0.75     C
O     0.3465611 0.2509513 0.2990116     O
O     0.3465611 0.2509513 0.7009916     O
O     0.3465611 0.2990116 0.2509513     O
O     0.3465611 0.2990116 0.7490513     O
O     0.3465611 0.7009916 0.2509513     O
O     0.3465611 0.7009916 0.7490513     O
O     0.3465611 0.7490513 0.2990116     O
O     0.3465611 0.7490513 0.7009916     O
H       0.3545   0.1288   0.1993     H
H       0.3545   0.1288   0.8007     H
H       0.3545   0.1993   0.1288     H
H       0.3545   0.1993   0.8712     H
H       0.3545   0.8007   0.1288     H
H       0.3545   0.8007   0.8712     H
H       0.3545   0.8712   0.1993     H
H       0.3545   0.8712   0.8007     H
C     0.359008 0.141008     0.25     C
C     0.359008 0.141008     0.75     C
C     0.359008     0.25 0.141008     C
C     0.359008     0.25 0.859008     C
C     0.359008     0.75 0.141008     C
C     0.359008     0.75 0.859008     C
C     0.359008 0.859008     0.25     C
C     0.359008 0.859008     0.75     C
C     0.3665411 0.1234812 0.2201816     C
C     0.3665411 0.1234812 0.7798216     C
C     0.3665411 0.2201816 0.1234812     C
C     0.3665411 0.2201816 0.8765212     C
C     0.3665411 0.7798216 0.1234812     C
C     0.3665411 0.7798216 0.8765212     C
C     0.3665411 0.8765212 0.2201816     C
C     0.3665411 0.8765212 0.7798216     C
H       0.3712   0.1455   0.3007     H
H       0.3712   0.1455   0.6993     H
H       0.3712   0.3007   0.1455     H
H       0.3712   0.3007   0.8545     H
H       0.3712   0.6993   0.1455     H
H       0.3712   0.6993   0.8545     H
H       0.3712   0.8545   0.3007     H
H       0.3712   0.8545   0.6993     H
H       0.3723   0.0316   0.2546     H
H       0.3723   0.0316   0.7454     H
H       0.3723   0.2546   0.0316     H
H       0.3723   0.2546   0.9684     H
H       0.3723   0.7454   0.0316     H
H       0.3723   0.7454   0.9684     H
H       0.3723   0.9684   0.2546     H
H       0.3723   0.9684   0.7454     H
C     0.3765212 0.1334611 0.2798216     C
C     0.3765212 0.1334611 0.7201816     C
C     0.3765212 0.2798216 0.1334611     C
C     0.3765212 0.2798216 0.8665411     C
C     0.3765212 0.7201816 0.1334611     C
C     0.3765212 0.7201816 0.8665411     C
C     0.3765212 0.8665411 0.2798216     C
C     0.3765212 0.8665411 0.7201816     C
C     0.3921212 0.0975712 0.2204817     C
C     0.3921212 0.0975712 0.7795217     C
C     0.3921212 0.2204817 0.0975712     C
C     0.3921212 0.2204817 0.9024312     C
C     0.3921212 0.7795217 0.0975712     C
C     0.3921212 0.7795217 0.9024312     C
C     0.3921212 0.9024312 0.2204817     C
C     0.3921212 0.9024312 0.7795217     C
C     0.392138 0.017069 0.2534618     C
C     0.392138 0.017069 0.7465418     C
C     0.392138 0.2534618 0.017069     C
C     0.392138 0.2534618 0.982949     C
C     0.392138 0.7465418 0.017069     C
C     0.392138 0.7465418 0.982949     C
C     0.392138 0.982949 0.2534618     C
C     0.392138 0.982949 0.7465418     C
H        0.397   0.0851   0.1998     H
H        0.397   0.0851   0.8002     H
H        0.397   0.1998   0.0851     H
H        0.397   0.1998   0.9149     H
H        0.397   0.8002   0.0851     H
H        0.397   0.8002   0.9149     H
H        0.397   0.9149   0.1998     H
H        0.397   0.9149   0.8002     H
C     0.4024312 0.1078812 0.2795217     C
C     0.4024312 0.1078812 0.7204817     C
C     0.4024312 0.2795217 0.1078812     C
C     0.4024312 0.2795217 0.8921212     C
C     0.4024312 0.7204817 0.1078812     C
C     0.4024312 0.7204817 0.8921212     C
C     0.4024312 0.8921212 0.2795217     C
C     0.4024312 0.8921212 0.7204817     C
C     0.410039 0.089979     0.25     C
C     0.410039 0.089979     0.75     C
C     0.410039     0.25 0.089979     C
C     0.410039     0.25 0.910039     C
C     0.410039     0.75 0.089979     C
C     0.410039     0.75 0.910039     C
C     0.410039 0.910039     0.25     C
C     0.410039 0.910039     0.75     C
H       0.4149    0.103   0.3002     H
H       0.4149    0.103   0.6998     H
H       0.4149   0.3002    0.103     H
H       0.4149   0.3002    0.897     H
H       0.4149   0.6998    0.103     H
H       0.4149   0.6998    0.897     H
H       0.4149    0.897   0.3002     H
H       0.4149    0.897   0.6998     H
C     0.427828 0.028378 0.2514716     C
C     0.427828 0.028378 0.7485316     C
C     0.427828 0.2514716 0.028378     C
C     0.427828 0.2514716 0.971638     C
C     0.427828 0.7485316 0.028378     C
C     0.427828 0.7485316 0.971638     C
C     0.427828 0.971638 0.2514716     C
C     0.427828 0.971638 0.7485316     C
C     0.437347 0.062667     0.25     C
C     0.437347 0.062667     0.75     C
C     0.437347     0.25 0.062667     C
C     0.437347     0.25 0.937347     C
C     0.437347     0.75 0.062667     C
C     0.437347     0.75 0.937347     C
C     0.437347 0.937347     0.25     C
C     0.437347 0.937347     0.75     C
N     0.449429      0.0 0.2501016     N
N     0.449429      0.0 0.7499016     N
N     0.449429 0.2501016      0.0     N
N     0.449429 0.7499016      0.0     N
H       0.4684   0.1277   0.2454     H
H       0.4684   0.1277   0.7546     H
H       0.4684   0.2454   0.1277     H
H       0.4684   0.2454   0.8723     H
H       0.4684   0.7546   0.1277     H
H       0.4684   0.7546   0.8723     H
H       0.4684   0.8723   0.2454     H
H       0.4684   0.8723   0.7546     H
C     0.471638 0.072188 0.2485316     C
C     0.471638 0.072188 0.7514716     C
C     0.471638 0.2485316 0.072188     C
C     0.471638 0.2485316 0.927828     C
C     0.471638 0.7514716 0.072188     C
C     0.471638 0.7514716 0.927828     C
C     0.471638 0.927828 0.2485316     C
C     0.471638 0.927828 0.7514716     C
C     0.482949 0.107878 0.2465418     C
C     0.482949 0.107878 0.7534618     C
C     0.482949 0.2465418 0.107878     C
C     0.482949 0.2465418 0.892138     C
C     0.482949 0.7534618 0.107878     C
C     0.482949 0.7534618 0.892138     C
C     0.482949 0.892138 0.2465418     C
C     0.482949 0.892138 0.7534618     C
Ni         0.5      0.0     0.25    Ni
Ni         0.5      0.0     0.75    Ni
N          0.5 0.050589 0.2499016     N
N          0.5 0.050589 0.7501016     N
N          0.5 0.2499016 0.050589     N
N          0.5 0.2499016 0.949429     N
Ni         0.5     0.25      0.0    Ni
Ni         0.5     0.75      0.0    Ni
N          0.5 0.7501016 0.050589     N
N          0.5 0.7501016 0.949429     N
N          0.5 0.949429 0.2499016     N
N          0.5 0.949429 0.7501016     N
C     0.517069 0.107878 0.2465418     C
C     0.517069 0.107878 0.7534618     C
C     0.517069 0.2465418 0.107878     C
C     0.517069 0.2465418 0.892138     C
C     0.517069 0.7534618 0.107878     C
C     0.517069 0.7534618 0.892138     C
C     0.517069 0.892138 0.2465418     C
C     0.517069 0.892138 0.7534618     C
C     0.528378 0.072188 0.2485316     C
C     0.528378 0.072188 0.7514716     C
C     0.528378 0.2485316 0.072188     C
C     0.528378 0.2485316 0.927828     C
C     0.528378 0.7514716 0.072188     C
C     0.528378 0.7514716 0.927828     C
C     0.528378 0.927828 0.2485316     C
C     0.528378 0.927828 0.7514716     C
H       0.5316   0.1277   0.2454     H
H       0.5316   0.1277   0.7546     H
H       0.5316   0.2454   0.1277     H
H       0.5316   0.2454   0.8723     H
H       0.5316   0.7546   0.1277     H
H       0.5316   0.7546   0.8723     H
H       0.5316   0.8723   0.2454     H
H       0.5316   0.8723   0.7546     H
N     0.550589      0.0 0.2501016     N
N     0.550589      0.0 0.7499016     N
N     0.550589 0.2501016      0.0     N
N     0.550589 0.7499016      0.0     N
C     0.562667 0.062667     0.25     C
C     0.562667 0.062667     0.75     C
C     0.562667     0.25 0.062667     C
C     0.562667     0.25 0.937347     C
C     0.562667     0.75 0.062667     C
C     0.562667     0.75 0.937347     C
C     0.562667 0.937347     0.25     C
C     0.562667 0.937347     0.75     C
C     0.572188 0.028378 0.2514716     C
C     0.572188 0.028378 0.7485316     C
C     0.572188 0.2514716 0.028378     C
C     0.572188 0.2514716 0.971638     C
C     0.572188 0.7485316 0.028378     C
C     0.572188 0.7485316 0.971638     C
C     0.572188 0.971638 0.2514716     C
C     0.572188 0.971638 0.7485316     C
H       0.5851    0.103   0.3002     H
H       0.5851    0.103   0.6998     H
H       0.5851   0.3002    0.103     H
H       0.5851   0.3002    0.897     H
H       0.5851   0.6998    0.103     H
H       0.5851   0.6998    0.897     H
H       0.5851    0.897   0.3002     H
H       0.5851    0.897   0.6998     H
C     0.589979 0.089979     0.25     C
C     0.589979 0.089979     0.75     C
C     0.589979     0.25 0.089979     C
C     0.589979     0.25 0.910039     C
C     0.589979     0.75 0.089979     C
C     0.589979     0.75 0.910039     C
C     0.589979 0.910039     0.25     C
C     0.589979 0.910039     0.75     C
C     0.5975712 0.1078812 0.2795217     C
C     0.5975712 0.1078812 0.7204817     C
C     0.5975712 0.2795217 0.1078812     C
C     0.5975712 0.2795217 0.8921212     C
C     0.5975712 0.7204817 0.1078812     C
C     0.5975712 0.7204817 0.8921212     C
C     0.5975712 0.8921212 0.2795217     C
C     0.5975712 0.8921212 0.7204817     C
H        0.603   0.0851   0.1998     H
H        0.603   0.0851   0.8002     H
H        0.603   0.1998   0.0851     H
H        0.603   0.1998   0.9149     H
H        0.603   0.8002   0.0851     H
H        0.603   0.8002   0.9149     H
H        0.603   0.9149   0.1998     H
H        0.603   0.9149   0.8002     H
C     0.607878 0.017069 0.2534618     C
C     0.607878 0.017069 0.7465418     C
C     0.607878 0.2534618 0.017069     C
C     0.607878 0.2534618 0.982949     C
C     0.607878 0.7465418 0.017069     C
C     0.607878 0.7465418 0.982949     C
C     0.607878 0.982949 0.2534618     C
C     0.607878 0.982949 0.7465418     C
C     0.6078812 0.0975712 0.2204817     C
C     0.6078812 0.0975712 0.7795217     C
C     0.6078812 0.2204817 0.0975712     C
C     0.6078812 0.2204817 0.9024312     C
C     0.6078812 0.7795217 0.0975712     C
C     0.6078812 0.7795217 0.9024312     C
C     0.6078812 0.9024312 0.2204817     C
C     0.6078812 0.9024312 0.7795217     C
C     0.6234812 0.1334611 0.2798216     C
C     0.6234812 0.1334611 0.7201816     C
C     0.6234812 0.2798216 0.1334611     C
C     0.6234812 0.2798216 0.8665411     C
C     0.6234812 0.7201816 0.1334611     C
C     0.6234812 0.7201816 0.8665411     C
C     0.6234812 0.8665411 0.2798216     C
C     0.6234812 0.8665411 0.7201816     C
H       0.6277   0.0316   0.2546     H
H       0.6277   0.0316   0.7454     H
H       0.6277   0.2546   0.0316     H
H       0.6277   0.2546   0.9684     H
H       0.6277   0.7454   0.0316     H
H       0.6277   0.7454   0.9684     H
H       0.6277   0.9684   0.2546     H
H       0.6277   0.9684   0.7454     H
H       0.6288   0.1455   0.3007     H
H       0.6288   0.1455   0.6993     H
H       0.6288   0.3007   0.1455     H
H       0.6288   0.3007   0.8545     H
H       0.6288   0.6993   0.1455     H
H       0.6288   0.6993   0.8545     H
H       0.6288   0.8545   0.3007     H
H       0.6288   0.8545   0.6993     H
C     0.6334611 0.1234812 0.2201816     C
C     0.6334611 0.1234812 0.7798216     C
C     0.6334611 0.2201816 0.1234812     C
C     0.6334611 0.2201816 0.8765212     C
C     0.6334611 0.7798216 0.1234812     C
C     0.6334611 0.7798216 0.8765212     C
C     0.6334611 0.8765212 0.2201816     C
C     0.6334611 0.8765212 0.7798216     C
C     0.641008 0.141008     0.25     C
C     0.641008 0.141008     0.75     C
C     0.641008     0.25 0.141008     C
C     0.641008     0.25 0.859008     C
C     0.641008     0.75 0.141008     C
C     0.641008     0.75 0.859008     C
C     0.641008 0.859008     0.25     C
C     0.641008 0.859008     0.75     C
H       0.6455   0.1288   0.1993     H
H       0.6455   0.1288   0.8007     H
H       0.6455   0.1993   0.1288     H
H       0.6455   0.1993   0.8712     H
H       0.6455   0.8007   0.1288     H
H       0.6455   0.8007   0.8712     H
H       0.6455   0.8712   0.1993     H
H       0.6455   0.8712   0.8007     H
O     0.6534411 0.2509513 0.2990116     O
O     0.6534411 0.2509513 0.7009916     O
O     0.6534411 0.2990116 0.2509513     O
O     0.6534411 0.2990116 0.7490513     O
O     0.6534411 0.7009916 0.2509513     O
O     0.6534411 0.7009916 0.7490513     O
O     0.6534411 0.7490513 0.2990116     O
O     0.6534411 0.7490513 0.7009916     O
C     0.668331 0.168331     0.25     C
C     0.668331 0.168331     0.75     C
C     0.668331     0.25 0.168331     C
C     0.668331     0.25 0.831671     C
C     0.668331     0.75 0.168331     C
C     0.668331     0.75 0.831671     C
C     0.668331 0.831671     0.25     C
C     0.668331 0.831671     0.75     C
O     0.672488 0.185268 0.277799     O
O     0.672488 0.185268 0.722219     O
O     0.672488 0.277799 0.185268     O
O     0.672488 0.277799 0.814748     O
O     0.672488 0.722219 0.185268     O
O     0.672488 0.722219 0.814748     O
O     0.672488 0.814748 0.277799     O
O     0.672488 0.814748 0.722219     O
O     0.685268 0.172488 0.222219     O
O     0.685268 0.172488 0.777799     O
O     0.685268 0.222219 0.172488     O
O     0.685268 0.222219 0.827528     O
O     0.685268 0.777799 0.172488     O
O     0.685268 0.777799 0.827528     O
O     0.685268 0.827528 0.222219     O
O     0.685268 0.827528 0.777799     O
O      0.69632 0.241021 0.241021     O
O      0.69632 0.241021 0.758981     O
O      0.69632 0.758981 0.241021     O
O      0.69632 0.758981 0.758981     O
H       0.6993   0.1455   0.3712     H
H       0.6993   0.1455   0.6288     H
H       0.6993   0.3712   0.1455     H
H       0.6993   0.3712   0.8545     H
H       0.6993   0.6288   0.1455     H
H       0.6993   0.6288   0.8545     H
H       0.6993   0.8545   0.3712     H
H       0.6993   0.8545   0.6288     H
H       0.6998    0.103   0.4149     H
H       0.6998    0.103   0.5851     H
H       0.6998   0.4149    0.103     H
H       0.6998   0.4149    0.897     H
H       0.6998   0.5851    0.103     H
H       0.6998   0.5851    0.897     H
H       0.6998    0.897   0.4149     H
H       0.6998    0.897   0.5851     H
O     0.7009916 0.2509513 0.3465611     O
O     0.7009916 0.2509513 0.6534411     O
O     0.7009916 0.3465611 0.2509513     O
O     0.7009916 0.3465611 0.7490513     O
O     0.7009916 0.6534411 0.2509513     O
O     0.7009916 0.6534411 0.7490513     O
O     0.7009916 0.7490513 0.3465611     O
O     0.7009916 0.7490513 0.6534411     O
Zr    0.70710615 0.22842417 0.29289415    Zr
Zr    0.70710615 0.22842417 0.70710615    Zr
Zr    0.70710615 0.29289415 0.22842417    Zr
Zr    0.70710615 0.29289415 0.77157617    Zr
Zr    0.70710615 0.70710615 0.22842417    Zr
Zr    0.70710615 0.70710615 0.77157617    Zr
Zr    0.70710615 0.77157617 0.29289415    Zr
Zr    0.70710615 0.77157617 0.70710615    Zr
O     0.717949 0.282069 0.282069     O
O     0.717949 0.282069 0.717949     O
O     0.717949 0.717949 0.282069     O
O     0.717949 0.717949 0.717949     O
C     0.7201816 0.1334611 0.3765212     C
C     0.7201816 0.1334611 0.6234812     C
C     0.7201816 0.3765212 0.1334611     C
C     0.7201816 0.3765212 0.8665411     C
C     0.7201816 0.6234812 0.1334611     C
C     0.7201816 0.6234812 0.8665411     C
C     0.7201816 0.8665411 0.3765212     C
C     0.7201816 0.8665411 0.6234812     C
C     0.7204817 0.1078812 0.4024312     C
C     0.7204817 0.1078812 0.5975712     C
C     0.7204817 0.4024312 0.1078812     C
C     0.7204817 0.4024312 0.8921212     C
C     0.7204817 0.5975712 0.1078812     C
C     0.7204817 0.5975712 0.8921212     C
C     0.7204817 0.8921212 0.4024312     C
C     0.7204817 0.8921212 0.5975712     C
O     0.722219 0.185268 0.327528     O
O     0.722219 0.185268 0.672488     O
O     0.722219 0.327528 0.185268     O
O     0.722219 0.327528 0.814748     O
O     0.722219 0.672488 0.185268     O
O     0.722219 0.672488 0.814748     O
O     0.722219 0.814748 0.327528     O
O     0.722219 0.814748 0.672488     O
Zr    0.72842417 0.20710615 0.20710615    Zr
Zr    0.72842417 0.20710615 0.79289415    Zr
Zr    0.72842417 0.79289415 0.20710615    Zr
Zr    0.72842417 0.79289415 0.79289415    Zr
O     0.741021  0.19632 0.258981     O
O     0.741021  0.19632 0.741021     O
O     0.741021 0.258981  0.19632     O
O     0.741021 0.258981  0.80372     O
O     0.741021 0.741021  0.19632     O
O     0.741021 0.741021  0.80372     O
O     0.741021  0.80372 0.258981     O
O     0.741021  0.80372 0.741021     O
H       0.7454   0.0316   0.3723     H
H       0.7454   0.0316   0.6277     H
H       0.7454   0.3723   0.0316     H
H       0.7454   0.3723   0.9684     H
H       0.7454   0.6277   0.0316     H
H       0.7454   0.6277   0.9684     H
H       0.7454   0.9684   0.3723     H
H       0.7454   0.9684   0.6277     H
C     0.7465418 0.017069 0.392138     C
C     0.7465418 0.017069 0.607878     C
C     0.7465418 0.392138 0.017069     C
C     0.7465418 0.392138 0.982949     C
C     0.7465418 0.607878 0.017069     C
C     0.7465418 0.607878 0.982949     C
C     0.7465418 0.982949 0.392138     C
C     0.7465418 0.982949 0.607878     C
C     0.7485316 0.028378 0.427828     C
C     0.7485316 0.028378 0.572188     C
C     0.7485316 0.427828 0.028378     C
C     0.7485316 0.427828 0.971638     C
C     0.7485316 0.572188 0.028378     C
C     0.7485316 0.572188 0.971638     C
C     0.7485316 0.971638 0.427828     C
C     0.7485316 0.971638 0.572188     C
O     0.7490513 0.2990116 0.3465611     O
O     0.7490513 0.2990116 0.6534411     O
O     0.7490513 0.3465611 0.2990116     O
O     0.7490513 0.3465611 0.7009916     O
O     0.7490513 0.6534411 0.2990116     O
O     0.7490513 0.6534411 0.7009916     O
O     0.7490513 0.7009916 0.3465611     O
O     0.7490513 0.7009916 0.6534411     O
N     0.7499016      0.0 0.449429     N
N     0.7499016      0.0 0.550589     N
N     0.7499016 0.449429      0.0     N
N     0.7499016 0.550589      0.0     N
Ni        0.75      0.0      0.5    Ni
C         0.75 0.062667 0.437347     C
C         0.75 0.062667 0.562667     C
C         0.75 0.089979 0.410039     C
C         0.75 0.089979 0.589979     C
C         0.75 0.141008 0.359008     C
C         0.75 0.141008 0.641008     C
C         0.75 0.168331 0.331671     C
C         0.75 0.168331 0.668331     C
C         0.75 0.331671 0.168331     C
C         0.75 0.331671 0.831671     C
C         0.75 0.359008 0.141008     C
C         0.75 0.359008 0.859008     C
C         0.75 0.410039 0.089979     C
C         0.75 0.410039 0.910039     C
C         0.75 0.437347 0.062667     C
C         0.75 0.437347 0.937347     C
Ni        0.75      0.5      0.0    Ni
C         0.75 0.562667 0.062667     C
C         0.75 0.562667 0.937347     C
C         0.75 0.589979 0.089979     C
C         0.75 0.589979 0.910039     C
C         0.75 0.641008 0.141008     C
C         0.75 0.641008 0.859008     C
C         0.75 0.668331 0.168331     C
C         0.75 0.668331 0.831671     C
C         0.75 0.831671 0.331671     C
C         0.75 0.831671 0.668331     C
C         0.75 0.859008 0.359008     C
C         0.75 0.859008 0.641008     C
C         0.75 0.910039 0.410039     C
C         0.75 0.910039 0.589979     C
C         0.75 0.937347 0.437347     C
C         0.75 0.937347 0.562667     C
N     0.7501016 0.050589      0.5     N
N     0.7501016      0.5 0.050589     N
N     0.7501016      0.5 0.949429     N
N     0.7501016 0.949429      0.5     N
O     0.7509513 0.1534411 0.2009916     O
O     0.7509513 0.1534411 0.7990116     O
O     0.7509513 0.2009916 0.1534411     O
O     0.7509513 0.2009916 0.8465611     O
O     0.7509513 0.7990116 0.1534411     O
O     0.7509513 0.7990116 0.8465611     O
O     0.7509513 0.8465611 0.2009916     O
O     0.7509513 0.8465611 0.7990116     O
C     0.7514716 0.072188 0.471638     C
C     0.7514716 0.072188 0.528378     C
C     0.7514716 0.471638 0.072188     C
C     0.7514716 0.471638 0.927828     C
C     0.7514716 0.528378 0.072188     C
C     0.7514716 0.528378 0.927828     C
C     0.7514716 0.927828 0.471638     C
C     0.7514716 0.927828 0.528378     C
C     0.7534618 0.107878 0.482949     C
C     0.7534618 0.107878 0.517069     C
C     0.7534618 0.482949 0.107878     C
C     0.7534618 0.482949 0.892138     C
C     0.7534618 0.517069 0.107878     C
C     0.7534618 0.517069 0.892138     C
C     0.7534618 0.892138 0.482949     C
C     0.7534618 0.892138 0.517069     C
H       0.7546   0.1277   0.4684     H
H       0.7546   0.1277   0.5316     H
H       0.7546   0.4684   0.1277     H
H       0.7546   0.4684   0.8723     H
H       0.7546   0.5316   0.1277     H
H       0.7546   0.5316   0.8723     H
H       0.7546   0.8723   0.4684     H
H       0.7546   0.8723   0.5316     H
O     0.758981 0.241021  0.30372     O
O     0.758981 0.241021  0.69632     O
O     0.758981  0.30372 0.241021     O
O     0.758981  0.30372 0.758981     O
O     0.758981  0.69632 0.241021     O
O     0.758981  0.69632 0.758981     O
O     0.758981 0.758981  0.30372     O
O     0.758981 0.758981  0.69632     O
Zr    0.77157617 0.29289415 0.29289415    Zr
Zr    0.77157617 0.29289415 0.70710615    Zr
Zr    0.77157617 0.70710615 0.29289415    Zr
Zr    0.77157617 0.70710615 0.70710615    Zr
O     0.777799 0.172488 0.314748     O
O     0.777799 0.172488 0.685268     O
O     0.777799 0.314748 0.172488     O
O     0.777799 0.314748 0.827528     O
O     0.777799 0.685268 0.172488     O
O     0.777799 0.685268 0.827528     O
O     0.777799 0.827528 0.314748     O
O     0.777799 0.827528 0.685268     O
C     0.7795217 0.0975712 0.3921212     C
C     0.7795217 0.0975712 0.6078812     C
C     0.7795217 0.3921212 0.0975712     C
C     0.7795217 0.3921212 0.9024312     C
C     0.7795217 0.6078812 0.0975712     C
C     0.7795217 0.6078812 0.9024312     C
C     0.7795217 0.9024312 0.3921212     C
C     0.7795217 0.9024312 0.6078812     C
C     0.7798216 0.1234812 0.3665411     C
C     0.7798216 0.1234812 0.6334611     C
C     0.7798216 0.3665411 0.1234812     C
C     0.7798216 0.3665411 0.8765212     C
C     0.7798216 0.6334611 0.1234812     C
C     0.7798216 0.6334611 0.8765212     C
C     0.7798216 0.8765212 0.3665411     C
C     0.7798216 0.8765212 0.6334611     C
O     0.782069 0.217949 0.217949     O
O     0.782069 0.217949 0.782069     O
O     0.782069 0.782069 0.217949     O
O     0.782069 0.782069 0.782069     O
Zr    0.79289415 0.20710615 0.27157617    Zr
Zr    0.79289415 0.20710615 0.72842417    Zr
Zr    0.79289415 0.27157617 0.20710615    Zr
Zr    0.79289415 0.27157617 0.79289415    Zr
Zr    0.79289415 0.72842417 0.20710615    Zr
Zr    0.79289415 0.72842417 0.79289415    Zr
Zr    0.79289415 0.79289415 0.27157617    Zr
Zr    0.79289415 0.79289415 0.72842417    Zr
O     0.7990116 0.1534411 0.2490513     O
O     0.7990116 0.1534411 0.7509513     O
O     0.7990116 0.2490513 0.1534411     O
O     0.7990116 0.2490513 0.8465611     O
O     0.7990116 0.7509513 0.1534411     O
O     0.7990116 0.7509513 0.8465611     O
O     0.7990116 0.8465611 0.2490513     O
O     0.7990116 0.8465611 0.7509513     O
H       0.8002   0.0851    0.397     H
H       0.8002   0.0851    0.603     H
H       0.8002    0.397   0.0851     H
H       0.8002    0.397   0.9149     H
H       0.8002    0.603   0.0851     H
H       0.8002    0.603   0.9149     H
H       0.8002   0.9149    0.397     H
H       0.8002   0.9149    0.603     H
H       0.8007   0.1288   0.3545     H
H       0.8007   0.1288   0.6455     H
H       0.8007   0.3545   0.1288     H
H       0.8007   0.3545   0.8712     H
H       0.8007   0.6455   0.1288     H
H       0.8007   0.6455   0.8712     H
H       0.8007   0.8712   0.3545     H
H       0.8007   0.8712   0.6455     H
O      0.80372 0.258981 0.258981     O
O      0.80372 0.258981 0.741021     O
O      0.80372 0.741021 0.258981     O
O      0.80372 0.741021 0.741021     O
O     0.814748 0.277799 0.327528     O
O     0.814748 0.277799 0.672488     O
O     0.814748 0.327528 0.277799     O
O     0.814748 0.327528 0.722219     O
O     0.814748 0.672488 0.277799     O
O     0.814748 0.672488 0.722219     O
O     0.814748 0.722219 0.327528     O
O     0.814748 0.722219 0.672488     O
O     0.827528 0.222219 0.314748     O
O     0.827528 0.222219 0.685268     O
O     0.827528 0.314748 0.222219     O
O     0.827528 0.314748 0.777799     O
O     0.827528 0.685268 0.222219     O
O     0.827528 0.685268 0.777799     O
O     0.827528 0.777799 0.314748     O
O     0.827528 0.777799 0.685268     O
C     0.831671     0.25 0.331671     C
C     0.831671     0.25 0.668331     C
C     0.831671 0.331671     0.25     C
C     0.831671 0.331671     0.75     C
C     0.831671 0.668331     0.25     C
C     0.831671 0.668331     0.75     C
C     0.831671     0.75 0.331671     C
C     0.831671     0.75 0.668331     C
O     0.8465611 0.2009916 0.2490513     O
O     0.8465611 0.2009916 0.7509513     O
O     0.8465611 0.2490513 0.2009916     O
O     0.8465611 0.2490513 0.7990116     O
O     0.8465611 0.7509513 0.2009916     O
O     0.8465611 0.7509513 0.7990116     O
O     0.8465611 0.7990116 0.2490513     O
O     0.8465611 0.7990116 0.7509513     O
H       0.8545   0.3007   0.3712     H
H       0.8545   0.3007   0.6288     H
H       0.8545   0.3712   0.3007     H
H       0.8545   0.3712   0.6993     H
H       0.8545   0.6288   0.3007     H
H       0.8545   0.6288   0.6993     H
H       0.8545   0.6993   0.3712     H
H       0.8545   0.6993   0.6288     H
C     0.859008     0.25 0.359008     C
C     0.859008     0.25 0.641008     C
C     0.859008 0.359008     0.25     C
C     0.859008 0.359008     0.75     C
C     0.859008 0.641008     0.25     C
C     0.859008 0.641008     0.75     C
C     0.859008     0.75 0.359008     C
C     0.859008     0.75 0.641008     C
C     0.8665411 0.2798216 0.3765212     C
C     0.8665411 0.2798216 0.6234812     C
C     0.8665411 0.3765212 0.2798216     C
C     0.8665411 0.3765212 0.7201816     C
C     0.8665411 0.6234812 0.2798216     C
C     0.8665411 0.6234812 0.7201816     C
C     0.8665411 0.7201816 0.3765212     C
C     0.8665411 0.7201816 0.6234812     C
H       0.8712   0.1993   0.3545     H
H       0.8712   0.1993   0.6455     H
H       0.8712   0.3545   0.1993     H
H       0.8712   0.3545   0.8007     H
H       0.8712   0.6455   0.1993     H
H       0.8712   0.6455   0.8007     H
H       0.8712   0.8007   0.3545     H
H       0.8712   0.8007   0.6455     H
H       0.8723   0.2454   0.4684     H
H       0.8723   0.2454   0.5316     H
H       0.8723   0.4684   0.2454     H
H       0.8723   0.4684   0.7546     H
H       0.8723   0.5316   0.2454     H
H       0.8723   0.5316   0.7546     H
H       0.8723   0.7546   0.4684     H
H       0.8723   0.7546   0.5316     H
C     0.8765212 0.2201816 0.3665411     C
C     0.8765212 0.2201816 0.6334611     C
C     0.8765212 0.3665411 0.2201816     C
C     0.8765212 0.3665411 0.7798216     C
C     0.8765212 0.6334611 0.2201816     C
C     0.8765212 0.6334611 0.7798216     C
C     0.8765212 0.7798216 0.3665411     C
C     0.8765212 0.7798216 0.6334611     C
C     0.8921212 0.2795217 0.4024312     C
C     0.8921212 0.2795217 0.5975712     C
C     0.8921212 0.4024312 0.2795217     C
C     0.8921212 0.4024312 0.7204817     C
C     0.8921212 0.5975712 0.2795217     C
C     0.8921212 0.5975712 0.7204817     C
C     0.8921212 0.7204817 0.4024312     C
C     0.8921212 0.7204817 0.5975712     C
C     0.892138 0.2465418 0.482949     C
C     0.892138 0.2465418 0.517069     C
C     0.892138 0.482949 0.2465418     C
C     0.892138 0.482949 0.7534618     C
C     0.892138 0.517069 0.2465418     C
C     0.892138 0.517069 0.7534618     C
C     0.892138 0.7534618 0.482949     C
C     0.892138 0.7534618 0.517069     C
H        0.897   0.3002   0.4149     H
H        0.897   0.3002   0.5851     H
H        0.897   0.4149   0.3002     H
H        0.897   0.4149   0.6998     H
H        0.897   0.5851   0.3002     H
H        0.897   0.5851   0.6998     H
H        0.897   0.6998   0.4149     H
H        0.897   0.6998   0.5851     H
C     0.9024312 0.2204817 0.3921212     C
C     0.9024312 0.2204817 0.6078812     C
C     0.9024312 0.3921212 0.2204817     C
C     0.9024312 0.3921212 0.7795217     C
C     0.9024312 0.6078812 0.2204817     C
C     0.9024312 0.6078812 0.7795217     C
C     0.9024312 0.7795217 0.3921212     C
C     0.9024312 0.7795217 0.6078812     C
C     0.910039     0.25 0.410039     C
C     0.910039     0.25 0.589979     C
C     0.910039 0.410039     0.25     C
C     0.910039 0.410039     0.75     C
C     0.910039 0.589979     0.25     C
C     0.910039 0.589979     0.75     C
C     0.910039     0.75 0.410039     C
C     0.910039     0.75 0.589979     C
H       0.9149   0.1998    0.397     H
H       0.9149   0.1998    0.603     H
H       0.9149    0.397   0.1998     H
H       0.9149    0.397   0.8002     H
H       0.9149    0.603   0.1998     H
H       0.9149    0.603   0.8002     H
H       0.9149   0.8002    0.397     H
H       0.9149   0.8002    0.603     H
C     0.927828 0.2485316 0.471638     C
C     0.927828 0.2485316 0.528378     C
C     0.927828 0.471638 0.2485316     C
C     0.927828 0.471638 0.7514716     C
C     0.927828 0.528378 0.2485316     C
C     0.927828 0.528378 0.7514716     C
C     0.927828 0.7514716 0.471638     C
C     0.927828 0.7514716 0.528378     C
C     0.937347     0.25 0.437347     C
C     0.937347     0.25 0.562667     C
C     0.937347 0.437347     0.25     C
C     0.937347 0.437347     0.75     C
C     0.937347 0.562667     0.25     C
C     0.937347 0.562667     0.75     C
C     0.937347     0.75 0.437347     C
C     0.937347     0.75 0.562667     C
N     0.949429 0.2499016      0.5     N
N     0.949429      0.5 0.2499016     N
N     0.949429      0.5 0.7501016     N
N     0.949429 0.7501016      0.5     N
H       0.9684   0.2546   0.3723     H
H       0.9684   0.2546   0.6277     H
H       0.9684   0.3723   0.2546     H
H       0.9684   0.3723   0.7454     H
H       0.9684   0.6277   0.2546     H
H       0.9684   0.6277   0.7454     H
H       0.9684   0.7454   0.3723     H
H       0.9684   0.7454   0.6277     H
C     0.971638 0.2514716 0.427828     C
C     0.971638 0.2514716 0.572188     C
C     0.971638 0.427828 0.2514716     C
C     0.971638 0.427828 0.7485316     C
C     0.971638 0.572188 0.2514716     C
C     0.971638 0.572188 0.7485316     C
C     0.971638 0.7485316 0.427828     C
C     0.971638 0.7485316 0.572188     C
C     0.982949 0.2534618 0.392138     C
C     0.982949 0.2534618 0.607878     C
C     0.982949 0.392138 0.2534618     C
C     0.982949 0.392138 0.7465418     C
C     0.982949 0.607878 0.2534618     C
C     0.982949 0.607878 0.7465418     C
C     0.982949 0.7465418 0.392138     C
C     0.982949 0.7465418 0.607878     C
