data_I
_chemical_name_common  '/Users/gianmarcoterrones/Downloads/PCN-225_no_solvent'
_cell_length_a 16.58150
_cell_length_b 16.58150
_cell_length_c 78.30200
_cell_angle_alpha 90.00000
_cell_angle_beta  90.00000
_cell_angle_gamma 90.00000
_space_group_name_H-M_alt      'P 1'


loop_
_space_group_symop_operation_xyz
  'x, y, z' 

loop_
_atom_site_label
_atom_site_fract_x
_atom_site_fract_y
_atom_site_fract_z
_atom_site_type_symbol
Zr        -0.5    -0.25 -0.0938783    Zr
Zr        -0.5     0.25 0.0938797    Zr
Zr        -0.5     0.75 -0.0938783    Zr
O     -0.4191283 -0.17178 -0.079427     O
O     -0.4191283  0.17182 0.079433     O
O     -0.4191283  0.32822 0.079433     O
O     -0.4191283  0.67182 -0.079427     O
Zr    -0.393478 -0.143478   -0.125    Zr
Zr    -0.393478 0.143482    0.125    Zr
Zr    -0.393478 0.356522    0.125    Zr
Zr    -0.393478 0.643482   -0.125    Zr
C     -0.36226 -0.12696 -0.083735     C
C     -0.36226  0.12704 0.083745     C
C     -0.36226  0.37304 0.083745     C
C     -0.36226  0.62704 -0.083735     C
H     -0.35021 0.190463 0.0523555     H
H     -0.35021 0.690463 -0.0523475     H
H     -0.350182 -0.190446 -0.05235     H
H     -0.350182 0.309554 0.052358     H
O     -0.3439783 -0.10848 -0.098807     O
O     -0.3439783  0.10852 0.098813     O
O     -0.3439783  0.39152 0.098813     O
O     -0.3439783  0.60852 -0.098807     O
C     -0.31218 -0.09666 -0.069546     C
C     -0.31218  0.09674 0.069554     C
C     -0.31218  0.40334 0.069554     C
C     -0.31218  0.59674 -0.069546     C
C     -0.31078 -0.13868 -0.054256     C
C     -0.31078  0.13872 0.054264     C
C     -0.31078  0.36132 0.054264     C
C     -0.31078  0.63872 -0.054256     C
H     -0.307288 -0.0156913 -0.0164131     H
H     -0.307288 0.0157713 0.0164251     H
H     -0.307288 0.484309 0.0164251     H
H     -0.307288 0.515771 -0.0164131     H
H     -0.263486 -0.000729394 0.0841703     H
H     -0.263486 0.500809 0.0841703     H
H     -0.263485 0.000813157 -0.0841599     H
H     -0.263485 0.499267 -0.0841599     H
C     -0.26256 -0.03126 -0.072025     C
C     -0.26256  0.03134 0.072035     C
C     -0.26256  0.46874 0.072035     C
C     -0.26256  0.53134 -0.072025     C
C     -0.25866 -0.11416 -0.041386     C
C     -0.25866  0.11424 0.041394     C
C     -0.25866  0.38584 0.041394     C
C     -0.25866  0.61424 -0.041386     C
H     -0.257621 -0.146801 -0.0293197     H
H     -0.25762 0.353202 0.0293272     H
H     -0.257615 0.146896 0.0293295     H
H     -0.257615   0.6469 -0.029322     H
C     -0.25416 -0.00816 -0.008394     C
C     -0.25416  0.00824 0.008406     C
C     -0.25416  0.49184 0.008406     C
C     -0.25416  0.50824 -0.008394     C
C     -0.21098 -0.00596 -0.058985     C
C     -0.21098  0.00604 0.058995     C
C     -0.21098  0.49404 0.058995     C
C     -0.21098  0.50604 -0.058985     C
C     -0.20788 -0.04856 -0.043715     C
C     -0.20788  0.04864 0.043725     C
C     -0.20788  0.45144 0.043725     C
C     -0.20788  0.54864 -0.043715     C
C     -0.17398 -0.01386 -0.013774     C
C     -0.17398  0.01394 0.013786     C
C     -0.17398  0.48614 0.013786     C
C     -0.17398  0.51394 -0.013774     C
H     -0.173221 -0.0470227 0.0607902     H
H     -0.173221 0.0471027 -0.0607802     H
H     -0.173221 0.452977 -0.0607802     H
H     -0.173221 0.547103 0.0607902     H
C     -0.14746 -0.02836 -0.030715     C
C     -0.14746  0.02844 0.030725     C
C     -0.14746  0.47164 0.030725     C
C     -0.14746  0.52844 -0.030715     C
N     -0.12436      0.0      0.0     N
N     -0.12436      0.5      0.0     N
O     -0.12228     0.25 0.357793     O
O     -0.12228     0.75 0.642213     O
Zr    -0.106518 0.143482    0.375    Zr
Zr    -0.106518 0.356522    0.375    Zr
Zr    -0.106518 0.643482    0.625    Zr
Zr    -0.106518 0.856522    0.625    Zr
O     -0.0902182     0.25 0.388503     O
O     -0.0902182     0.75 0.611503     O
O     -0.0808683  0.17182 0.420573     O
O     -0.0808683  0.32822 0.420573     O
O     -0.0808683  0.67182 0.579433     O
O     -0.0808683  0.82822 0.579433     O
O     -0.07818 0.1691317 0.329433     O
O     -0.07818 0.3308717 0.329433     O
O     -0.07818 0.6691317 0.670573     O
O     -0.07818 0.8308717 0.670573     O
H     -0.0780567 0.0908724 0.0618171     H
H     -0.0780559 0.409238 0.0618182     H
H     -0.0780559 0.590875 -0.061805     H
H     -0.0780551 -0.0907642 -0.0618061     H
C     -0.06696 -0.03646 -0.035605     C
C     -0.06696  0.03654 0.035615     C
C     -0.06696  0.46354 0.035615     C
C     -0.06696  0.53654 -0.035605     C
C     -0.03966 -0.06935 -0.051474     C
C     -0.03966  0.06945 0.051486     C
C     -0.03966  0.43065 0.051486     C
C     -0.03966  0.56945 -0.051474     C
Zr         0.0    -0.25 0.5938797    Zr
Zr         0.0    -0.25 0.6561217    Zr
N          0.0 -0.02006 -0.025943     N
N          0.0  0.02014 0.025957     N
O          0.0  0.12772 0.392213     O
O          0.0 0.1597818 0.361503     O
Zr         0.0     0.25 0.3438797    Zr
Zr         0.0     0.25 0.4061217    Zr
O          0.0 0.3402218 0.361503     O
O          0.0  0.37232 0.392213     O
N          0.0  0.47994 0.025957     N
N          0.0  0.52014 -0.025943     N
O          0.0  0.62772 0.607793     O
O          0.0 0.6597818 0.638503     O
Zr         0.0     0.75 0.5938797    Zr
Zr         0.0     0.75 0.6561217    Zr
O          0.0 0.8402218 0.638503     O
O          0.0  0.87232 0.607793     O
Zr         0.0     1.25 0.3438797    Zr
C      0.03974 -0.06935 -0.051474     C
C      0.03974  0.06945 0.051486     C
C      0.03974  0.43065 0.051486     C
C      0.03974  0.56945 -0.051474     C
H     0.0412339  1.00451 0.625361     H
H     0.0414288 0.504019 0.377788     H
H     0.0451273 -0.00521544  0.37149     H
H     0.0595411 0.600208 0.697647     H
H     0.0595411  1.10021 0.302361     H
H     0.0595538 -0.100182  0.69765     H
H     0.0595538 0.399818 0.302358     H
C      0.06704 -0.03646 -0.035605     C
C      0.06704  0.03654 0.035615     C
C      0.06704  0.46354 0.035615     C
C      0.06704  0.53654 -0.035605     C
H     0.0781351 -0.0907642 -0.0618061     H
H     0.0781359 0.409238 0.0618182     H
H     0.0781359 0.590875 -0.061805     H
H     0.0781367 0.0908724 0.0618171     H
O      0.07822 -0.1691283 0.670573     O
O      0.07822 0.1691317 0.329433     O
O      0.07822 0.3308717 0.329433     O
O      0.07822 0.6691317 0.670573     O
O     0.0808717 -0.17178 0.579433     O
O     0.0808717  0.17182 0.420573     O
O     0.0808717  0.32822 0.420573     O
O     0.0808717  0.67182 0.579433     O
O     0.0902218     0.25 0.388503     O
O     0.0902218     0.75 0.611503     O
O      0.09842  0.01222 0.375943     O
O      0.09842  0.48782 0.375943     O
O      0.09842  0.51222 0.624063     O
O      0.09842  0.98782 0.624063     O
H     0.103199 -0.00762058  0.72068     H
H     0.103202  0.49238 0.279327     H
H     0.103219  0.50774 0.720683     H
H     0.103223  1.00774 0.279325     H
H     0.104537  0.49374  0.61207     H
Zr    0.106522 -0.143478    0.625    Zr
Zr    0.106522 0.143482    0.375    Zr
Zr    0.106522 0.356522    0.375    Zr
Zr    0.106522 0.643482    0.625    Zr
Zr    0.106522 0.856522    0.625    Zr
Zr    0.106522 1.143482    0.375    Zr
C      0.11132 -0.06078 0.695744     C
C      0.11132  0.43922 0.304264     C
C      0.11132  0.56082 0.695744     C
C      0.11132  1.06082 0.304264     C
O      0.12232     0.25 0.357793     O
O      0.12232     0.75 0.642213     O
C      0.12304 -0.11226 0.666265     C
C      0.12304  0.38774 0.333745     C
C      0.12304  0.61234 0.666265     C
C      0.12304  1.11234 0.333745     C
N      0.12444      0.0      0.0     N
N      0.12444      0.5      0.0     N
H      0.13095  1.01134 0.633474     H
H     0.132125 0.508384 0.385478     H
C      0.13584 -0.00866 0.708614     C
C      0.13584  0.49134 0.291394     C
C      0.13584  0.50874 0.708614     C
C      0.13584  1.00874 0.291394     C
C      0.13774 -0.12696 0.583745     C
C      0.13774  0.12704 0.416265     C
C      0.13774  0.37304 0.416265     C
C      0.13774  0.62704 0.583745     C
O      0.14152 -0.0939783 0.651193     O
O      0.14152 0.0939817 0.348813     O
O      0.14152 0.4060217 0.348813     O
O      0.14152 0.5939817 0.651193     O
H       0.1419 -0.0116145 0.368832     H
H     0.141906 0.488393 0.631174     H
C      0.14754 -0.02836 -0.030715     C
C      0.14754  0.02844 0.030725     C
C      0.14754  0.47164 0.030725     C
C      0.14754  0.52844 -0.030715     C
H      0.14979 0.190463 0.447652     H
H      0.14979 0.690463 0.552356     H
H     0.149818 -0.190446 0.552358     H
H     0.149818 0.309554  0.44765     H
C      0.15334 -0.06218 0.680454     C
C      0.15334  0.43782 0.319554     C
C      0.15334  0.56222 0.680454     C
C      0.15334  1.06222 0.319554     C
O     0.1560217 -0.10848 0.598813     O
O     0.1560217  0.10852 0.401193     O
O     0.1560217  0.39152 0.401193     O
O     0.1560217  0.60852 0.598813     O
H     0.159236 0.171945 0.688194     H
H     0.159236 0.328135 0.688194     H
H     0.159238 0.671944 0.311818     H
H     0.159238 0.828136 0.311818     H
H     0.173246 -0.0470102 0.0607929     H
H     0.173246 0.0470902 -0.0607829     H
H     0.173246  0.45299 -0.0607829     H
H     0.173246  0.54709 0.0607929     H
C      0.17402 -0.01386 -0.013774     C
C      0.17402  0.01394 0.013786     C
C      0.17402  0.48614 0.013786     C
C      0.17402  0.51394 -0.013774     C
C      0.18065  0.21034 0.698526     C
C      0.18065  0.28974 0.698526     C
C      0.18065  0.71034 0.301486     C
C      0.18065  0.78974 0.301486     C
C      0.18782 -0.09666 0.569554     C
C      0.18782  0.09674 0.430454     C
C      0.18782  0.40334 0.430454     C
C      0.18782  0.59674 0.569554     C
C      0.18922 -0.13868 0.554264     C
C      0.18922  0.13872 0.445744     C
C      0.18922  0.36132 0.445744     C
C      0.18922  0.63872 0.554264     C
H     0.192712 -0.0156913 0.516425     H
H     0.192712 0.0157713 0.483587     H
H     0.192712 0.484309 0.483587     H
H     0.192712 0.515771 0.516425     H
C      0.20144  0.04212 0.706285     C
C      0.20144  0.45792 0.706285     C
C      0.20144  0.54212 0.293725     C
C      0.20144  0.95792 0.293725     C
H     0.202977 0.0767794  0.81079     H
H     0.202977 0.576779  0.18922     H
H      0.20299 0.423246 0.810793     H
H      0.20299 0.923246 0.189217     H
C      0.20792 -0.04856 -0.043715     C
C      0.20792  0.04864 0.043725     C
C      0.20792  0.45144 0.043725     C
C      0.20792  0.54864 -0.043715     C
C      0.21102 -0.00596 -0.058985     C
C      0.21102  0.00604 0.058995     C
C      0.21102  0.49404 0.058995     C
C      0.21102  0.50604 -0.058985     C
C      0.21354  0.18304 0.714395     C
C      0.21354  0.31704 0.714395     C
C      0.21354  0.68304 0.285615     C
C      0.21354  0.81704 0.285615     C
C      0.21874 -0.01256 0.677975     C
C      0.21874  0.48744 0.322035     C
C      0.21874  0.51264 0.677975     C
C      0.21874  1.01264 0.322035     C
C      0.22164  0.10254 0.719285     C
C      0.22164  0.39754 0.719285     C
C      0.22164  0.60254 0.280725     C
C      0.22164  0.89754 0.280725     C
N      0.22994     0.25 0.724057     N
N      0.22994     0.75 0.275957     N
H     0.234308 0.557365 0.733586     H
H     0.234308  1.05736 0.266426     H
H     0.234309 -0.0572878 0.733587     H
H     0.234309 0.442712 0.266425     H
C      0.23614  0.07602 0.736226     C
C      0.23614  0.42402 0.736226     C
C      0.23614  0.57602 0.263786     C
C      0.23614  0.92402 0.263786     C
H     0.236514 0.000809394  0.58417     H
H     0.236514 0.499271  0.58417     H
H     0.236515 -0.000733157  0.41584     H
H     0.236515 0.500813  0.41584     H
C      0.23744 -0.03126 0.572035     C
C      0.23744  0.03134 0.427975     C
C      0.23744  0.46874 0.427975     C
C      0.23744  0.53134 0.572035     C
O      0.23782  0.15162 0.374063     O
O      0.23782  0.34842 0.374063     O
O      0.23782  0.65162 0.625943     O
O      0.23782  0.84842 0.625943     O
H     0.238393 0.891906 0.881174     H
H     0.238472 0.0980023 0.123371     H
H     0.239078 0.596928 0.872429     H
C      0.24134 -0.11416 0.541394     C
C      0.24134  0.11424 0.458614     C
C      0.24134  0.38584 0.458614     C
C      0.24134  0.61424 0.541394     C
C      0.24184 -0.00416 0.741606     C
C      0.24184  0.49584 0.258406     C
C      0.24184  0.50424 0.741606     C
C      0.24184  1.00424 0.258406     C
H     0.241916 0.674824 0.884935     H
H     0.242379 0.353199  0.47068     H
H      0.24238 -0.146798 0.529327     H
H     0.242385   0.1469 0.470678     H
H     0.242385 0.646896  0.52933     H
H     0.243293 0.308584 0.117364     H
C      0.24404  0.03902 0.691015     C
C      0.24404  0.46102 0.691015     C
C      0.24404  0.53902 0.308995     C
C      0.24404  0.96102 0.308995     C
H     0.244789 0.795131 0.878519     H
H     0.245142 0.330943 0.137521     H
H     0.245146 0.169093 0.137522     H
C      0.24584 -0.00816 0.508406     C
C      0.24584  0.00824 0.491606     C
C      0.24584  0.49184 0.491606     C
C      0.24584  0.50824 0.508406     C
H     0.249247  1.01361 0.165843     H
H      0.24925 0.513606 0.834168     H
H     0.249267 0.486515  0.16584     H
H     0.249271 -0.0134859  0.83417     H
N         0.25  0.12564     0.75     N
N         0.25  0.37444     0.75     N
N         0.25  0.62564     0.25     N
N         0.25  0.87444     0.25     N
H     0.250809 0.486514  0.33417     H
H     0.250813 -0.0134853  0.66584     H
H      0.25083  1.01361 0.334168     H
H     0.250833 0.513605 0.665843     H
C      0.25424 -0.00816 -0.008394     C
C      0.25424  0.00824 0.008406     C
C      0.25424  0.49184 0.008406     C
C      0.25424  0.50824 -0.008394     C
H      0.25543 0.659332 0.637953     H
H     0.255443 0.159328 0.362053     H
C      0.25604  0.03902 0.808995     C
C      0.25604  0.46102 0.808995     C
C      0.25604  0.53902 0.191015     C
C      0.25604  0.96102 0.191015     C
H     0.256073 0.698095 0.618941     H
H     0.257353  0.36939 0.362928     H
H     0.257734 0.146876 0.0293269     H
H     0.257735  0.64688 -0.0293193     H
H      0.25774 -0.146781 -0.029317     H
H      0.25774 0.353223 0.0293246     H
C      0.25824 -0.00416 0.758406     C
C      0.25824  0.49584 0.241606     C
C      0.25824  0.50424 0.758406     C
C      0.25824  1.00424 0.241606     C
H     0.258384 0.882125 0.635478     H
C      0.25874 -0.11416 -0.041386     C
C      0.25874  0.11424 0.041394     C
C      0.25874  0.38584 0.041394     C
C      0.25874  0.61424 -0.041386     C
H     0.260795 0.868019 0.614992     H
H     0.261336  0.38095 0.383474     H
H      0.26169 0.101137 0.378644     H
O      0.26222  0.15162 0.125943     O
O      0.26222  0.34842 0.125943     O
O      0.26222  0.65162 0.874063     O
O      0.26222  0.84842 0.874063     O
C      0.26264 -0.03126 -0.072025     C
C      0.26264  0.03134 0.072035     C
C      0.26264  0.46874 0.072035     C
C      0.26264  0.53134 -0.072025     C
H     0.263605 0.000833446 -0.0841573     H
H     0.263605 0.499247 -0.0841573     H
H     0.263606 -0.000749681 0.0841678     H
H     0.263606  0.50083 0.0841678     H
C      0.26394  0.07602 0.763786     C
C      0.26394  0.42402 0.763786     C
C      0.26394  0.57602 0.236226     C
C      0.26394  0.92402 0.236226     C
H     0.265771 -0.0572878 0.766425     H
H     0.265771 0.442712 0.233587     H
H     0.265772 0.557365 0.766426     H
H     0.265772  1.05736 0.233586     H
N      0.27014     0.25 0.775957     N
N      0.27014     0.75 0.224057     N
C      0.27844  0.10254 0.780725     C
C      0.27844  0.39754 0.780725     C
C      0.27844  0.60254 0.219285     C
C      0.27844  0.89754 0.219285     C
C      0.28134 -0.01256 0.822035     C
C      0.28134  0.48744 0.177975     C
C      0.28134  0.51264 0.822035     C
C      0.28134  1.01264 0.177975     C
C      0.28654  0.18304 0.785615     C
C      0.28654  0.31704 0.785615     C
C      0.28654  0.68304 0.214395     C
C      0.28654  0.81704 0.214395     C
C      0.28902 -0.00596 0.558995     C
C      0.28902  0.00604 0.441015     C
C      0.28902  0.49404 0.441015     C
C      0.28902  0.50604 0.558995     C
C      0.29212 -0.04856 0.543725     C
C      0.29212  0.04864 0.456285     C
C      0.29212  0.45144 0.456285     C
C      0.29212  0.54864 0.543725     C
H      0.29709 0.423246 0.689217     H
H      0.29709 0.923246 0.310793     H
H     0.297103 0.0767794  0.68922     H
H     0.297103 0.576779  0.31079     H
C      0.29864  0.04212 0.793725     C
C      0.29864  0.45792 0.793725     C
C      0.29864  0.54212 0.206285     C
C      0.29864  0.95792 0.206285     C
H     0.307365 -0.0156922 -0.0164139     H
H     0.307365 0.0157722 0.0164259     H
H     0.307365 0.484308 0.0164259     H
H     0.307365 0.515772 -0.0164139     H
C      0.31082 -0.13868 -0.054256     C
C      0.31082  0.13872 0.054264     C
C      0.31082  0.36132 0.054264     C
C      0.31082  0.63872 -0.054256     C
C      0.31222 -0.09666 -0.069546     C
C      0.31222  0.09674 0.069554     C
C      0.31222  0.40334 0.069554     C
C      0.31222  0.59674 -0.069546     C
C      0.31945  0.21034 0.801486     C
C      0.31945  0.28974 0.801486     C
C      0.31945  0.71034 0.198526     C
C      0.31945  0.78974 0.198526     C
C      0.32602 -0.01386 0.513786     C
C      0.32602  0.01394 0.486226     C
C      0.32602  0.48614 0.486226     C
C      0.32602  0.51394 0.513786     C
H     0.326779 -0.0470227  0.43922     H
H     0.326779 0.0471027  0.56079     H
H     0.326779 0.452977  0.56079     H
H     0.326779 0.547103  0.43922     H
H     0.340872 0.171943 0.811817     H
H     0.340872 0.328137 0.811817     H
H     0.340875 0.671944 0.188195     H
H     0.340875 0.828136 0.188195     H
O     0.3439817 -0.10848 -0.098807     O
O     0.3439817  0.10852 0.098813     O
O     0.3439817  0.39152 0.098813     O
O     0.3439817  0.60852 -0.098807     O
C      0.34674 -0.06218 0.819554     C
C      0.34674  0.43782 0.180454     C
C      0.34674  0.56222 0.819554     C
C      0.34674  1.06222 0.180454     C
H     0.350208 -0.190459 -0.0523528     H
H     0.350208 0.309541 0.0523608     H
H     0.350236 0.190476 0.0523582     H
H     0.350236 0.690476 -0.0523502     H
C      0.35254 -0.02836 0.530725     C
C      0.35254  0.02844 0.469285     C
C      0.35254  0.47164 0.469285     C
C      0.35254  0.52844 0.530725     C
O      0.35852 -0.0939783 0.848813     O
O      0.35852 0.0939817 0.151193     O
O      0.35852 0.4060217 0.151193     O
O      0.35852 0.5939817 0.848813     O
C      0.36234 -0.12696 -0.083735     C
C      0.36234  0.12704 0.083745     C
C      0.36234  0.37304 0.083745     C
C      0.36234  0.62704 -0.083735     C
C      0.36424 -0.00866 0.791394     C
C      0.36424  0.49134 0.208614     C
C      0.36424  0.50874 0.791394     C
C      0.36424  1.00874 0.208614     C
H     0.373131 -0.0079171 0.113755     H
H     0.373142  1.00795 0.886253     H
N      0.37564      0.0      0.5     N
N      0.37564      0.5      0.5     N
H     0.376242 0.488972 0.865565     H
H     0.376254 0.511056 0.134444     H
C      0.37704 -0.11226 0.833745     C
C      0.37704  0.38774 0.166265     C
C      0.37704  0.61234 0.833745     C
C      0.37704  1.11234 0.166265     C
O      0.37772     0.25 0.142213     O
O      0.37772     0.75 0.857793     O
C      0.38872 -0.06078 0.804264     C
C      0.38872  0.43922 0.195744     C
C      0.38872  0.56082 0.804264     C
C      0.38872  1.06082 0.195744     C
Zr    0.393482 -0.143478   -0.125    Zr
Zr    0.393482 -0.143478    0.875    Zr
Zr    0.393482 0.143482    0.125    Zr
Zr    0.393482 0.356522    0.125    Zr
Zr    0.393482 0.643482   -0.125    Zr
Zr    0.393482 0.643482    0.875    Zr
Zr    0.393482 0.856522    0.875    Zr
Zr    0.393482 1.143482    0.125    Zr
H     0.396876 0.507734 0.779327     H
H      0.39688  1.00773 0.220681     H
H     0.396896 -0.00761462  0.77933     H
H       0.3969 0.492385 0.220678     H
O      0.40162  0.01222 0.124063     O
O      0.40162  0.48782 0.124063     O
O      0.40162  0.51222 0.875943     O
O      0.40162  0.98782 0.875943     O
O     0.4097818     0.25 0.111503     O
O     0.4097818     0.75 0.888503     O
O     0.4191317 -0.17178 -0.079427     O
O     0.4191317  0.17182 0.079433     O
O     0.4191317  0.32822 0.079433     O
O     0.4191317  0.67182 -0.079427     O
O      0.42182 -0.1691283 0.829433     O
O      0.42182 0.1691317 0.170573     O
O      0.42182 0.3308717 0.170573     O
O      0.42182 0.6691317 0.829433     O
H     0.421943 0.590872 0.561817     H
H     0.421944 -0.0907617 0.561818     H
H     0.421944 0.0908749 0.438195     H
H     0.421945 0.409236 0.438194     H
C      0.43304 -0.03646 0.535615     C
C      0.43304  0.03654 0.464395     C
C      0.43304  0.46354 0.464395     C
C      0.43304  0.53654 0.535615     C
H     0.440463 -0.10021 0.802356     H
H     0.440463  0.39979 0.197652     H
H     0.440476 0.600236 0.802358     H
H     0.440476  1.10024  0.19765     H
H     0.459178 0.504185 0.123563     H
H     0.459179 -0.00414361 0.123564     H
H     0.459179 0.495856  0.87644     H
H     0.459179  1.00418 0.876441     H
C      0.46034 -0.06935 0.551486     C
C      0.46034  0.06945 0.448526     C
C      0.46034  0.43065 0.448526     C
C      0.46034  0.56945 0.551486     C
Zr         0.5    -0.25 -0.0938783    Zr
Zr         0.5    -0.25 0.8438797    Zr
N          0.5 -0.02006 0.525957     N
N          0.5  0.02014 0.474057     N
O          0.5  0.12772 0.107793     O
O          0.5 0.1597818 0.138503     O
Zr         0.5     0.25 0.0938797    Zr
Zr         0.5     0.25 0.1561217    Zr
O          0.5 0.3402218 0.138503     O
O          0.5  0.37232 0.107793     O
N          0.5  0.47994 0.474057     N
N          0.5  0.52014 0.525957     N
O          0.5  0.62772 0.892213     O
O          0.5 0.6597818 0.861503     O
Zr         0.5     0.75 -0.0938783    Zr
Zr         0.5     0.75 0.8438797    Zr
Zr         0.5     0.75 0.9061217    Zr
O          0.5 0.8402218 0.861503     O
O          0.5  0.87232 0.892213     O
Zr         0.5     1.25 0.1561217    Zr
C      0.53974 -0.06935 0.551486     C
C      0.53974  0.06945 0.448526     C
C      0.53974  0.43065 0.448526     C
C      0.53974  0.56945 0.551486     C
H     0.559541 0.600208 0.802361     H
H     0.559541  1.10021 0.197647     H
H     0.559554 -0.100182 0.802358     H
H     0.559554 0.399818  0.19765     H
C      0.56704 -0.03646 0.535615     C
C      0.56704  0.03654 0.464395     C
C      0.56704  0.46354 0.464395     C
C      0.56704  0.53654 0.535615     C
H     0.569014 -0.00430826 0.113585     H
H     0.569014 0.492387 0.865725     H
H     0.569014 0.507643 0.134282     H
H     0.569014  1.00434 0.886422     H
H     0.578135 0.409236 0.438194     H
H     0.578136 -0.0907617 0.561818     H
H     0.578136 0.0908749 0.438195     H
H     0.578137 0.590872 0.561817     H
O      0.57822 -0.1691283 0.829433     O
O      0.57822 0.1691317 0.170573     O
O      0.57822 0.3308717 0.170573     O
O      0.57822 0.6691317 0.829433     O
O     0.5902218     0.25 0.111503     O
O     0.5902218     0.75 0.888503     O
O      0.59842  0.01222 0.124063     O
O      0.59842  0.48782 0.124063     O
O      0.59842  0.51222 0.875943     O
O      0.59842  0.98782 0.875943     O
H     0.603199 0.492379  0.22068     H
H     0.603202 -0.00762007 0.779327     H
H     0.603219  1.00774 0.220683     H
H     0.603223  0.50774 0.779325     H
Zr    0.606522 -0.143478    0.875    Zr
Zr    0.606522 0.143482    0.125    Zr
Zr    0.606522 0.356522    0.125    Zr
Zr    0.606522 0.643482    0.875    Zr
Zr    0.606522 0.856522    0.875    Zr
Zr    0.606522 1.143482    0.125    Zr
C      0.61132 -0.06078 0.804264     C
C      0.61132  0.43922 0.195744     C
C      0.61132  0.56082 0.804264     C
C      0.61132  1.06082 0.195744     C
O      0.62232     0.25 0.142213     O
O      0.62232     0.75 0.857793     O
C      0.62304 -0.11226 0.833745     C
C      0.62304  0.38774 0.166265     C
C      0.62304  0.61234 0.833745     C
C      0.62304  1.11234 0.166265     C
N      0.62444      0.0      0.5     N
N      0.62444      0.5      0.5     N
C      0.63584 -0.00866 0.791394     C
C      0.63584  0.49134 0.208614     C
C      0.63584  0.50874 0.791394     C
C      0.63584  1.00874 0.208614     C
O      0.64152 -0.0939783 0.848813     O
O      0.64152 0.0939817 0.151193     O
O      0.64152 0.4060217 0.151193     O
O      0.64152 0.5939817 0.848813     O
C      0.64754 -0.02836 0.530725     C
C      0.64754  0.02844 0.469285     C
C      0.64754  0.47164 0.469285     C
C      0.64754  0.52844 0.530725     C
C      0.65334 -0.06218 0.819554     C
C      0.65334  0.43782 0.180454     C
C      0.65334  0.56222 0.819554     C
C      0.65334  1.06222 0.180454     C
H     0.653545 -0.0111673 0.123896     H
H     0.653545 0.488833 0.876111     H
H     0.653545 0.511206 0.123896     H
H     0.653545  1.01121 0.876111     H
H     0.659236 0.671945 0.188194     H
H     0.659236 0.828135 0.188194     H
H     0.659238 0.171944 0.811818     H
H     0.659238 0.328136 0.811818     H
H     0.673246 -0.0470102 0.439217     H
H     0.673246 0.0470902 0.560793     H
H     0.673246  0.45299 0.560793     H
H     0.673246  0.54709 0.439217     H
C      0.67402 -0.01386 0.513786     C
C      0.67402  0.01394 0.486226     C
C      0.67402  0.48614 0.486226     C
C      0.67402  0.51394 0.513786     C
C      0.68065  0.21034 0.801486     C
C      0.68065  0.28974 0.801486     C
C      0.68065  0.71034 0.198526     C
C      0.68065  0.78974 0.198526     C
C      0.70144  0.04212 0.793725     C
C      0.70144  0.45792 0.793725     C
C      0.70144  0.54212 0.206285     C
C      0.70144  0.95792 0.206285     C
H     0.702977 0.0767794  0.68922     H
H     0.702977 0.576779  0.31079     H
H      0.70299 0.423246 0.689217     H
H      0.70299 0.923246 0.310793     H
C      0.70792 -0.04856 0.543725     C
C      0.70792  0.04864 0.456285     C
C      0.70792  0.45144 0.456285     C
C      0.70792  0.54864 0.543725     C
C      0.71102 -0.00596 0.558995     C
C      0.71102  0.00604 0.441015     C
C      0.71102  0.49404 0.441015     C
C      0.71102  0.50604 0.558995     C
C      0.71354  0.18304 0.785615     C
C      0.71354  0.31704 0.785615     C
C      0.71354  0.68304 0.214395     C
C      0.71354  0.81704 0.214395     C
C      0.71874 -0.01256 0.822035     C
C      0.71874  0.48744 0.177975     C
C      0.71874  0.51264 0.822035     C
C      0.71874  1.01264 0.177975     C
C      0.72164  0.10254 0.780725     C
C      0.72164  0.39754 0.780725     C
C      0.72164  0.60254 0.219285     C
C      0.72164  0.89754 0.219285     C
N      0.72994     0.25 0.775957     N
N      0.72994     0.75 0.224057     N
H     0.734308 0.557365 0.766426     H
H     0.734308  1.05736 0.233586     H
H     0.734309 -0.0572878 0.766425     H
H     0.734309 0.442712 0.233587     H
C      0.73614  0.07602 0.763786     C
C      0.73614  0.42402 0.763786     C
C      0.73614  0.57602 0.236226     C
C      0.73614  0.92402 0.236226     C
O      0.73782  0.15162 0.125943     O
O      0.73782  0.34842 0.125943     O
O      0.73782  0.65162 0.874063     O
O      0.73782  0.84842 0.874063     O
H     0.738386   0.8919 0.618832     H
H     0.738472 0.598002 0.623371     H
H     0.738489 0.402046 0.376634     H
C      0.74184 -0.00416 0.758406     C
C      0.74184  0.49584 0.241606     C
C      0.74184  0.50424 0.758406     C
C      0.74184  1.00424 0.241606     C
H     0.743313  0.19147 0.382641     H
H     0.743752 0.854545 0.637937     H
C      0.74404  0.03902 0.808995     C
C      0.74404  0.46102 0.808995     C
C      0.74404  0.53902 0.191015     C
C      0.74404  0.96102 0.191015     C
H      0.74513 0.330944 0.362486     H
H     0.745135 0.169091 0.362485     H
H     0.745146 0.669093 0.637522     H
H     0.749247 0.513605 0.665843     H
H      0.74925  1.01361 0.334168     H
H     0.749267 -0.0134853  0.66584     H
H     0.749271 0.486514  0.33417     H
N         0.75  0.12564     0.75     N
N         0.75  0.37444     0.75     N
N         0.75  0.62564     0.25     N
N         0.75  0.87444     0.25     N
H     0.750809 -0.0134859  0.83417     H
H     0.750813 0.486515  0.16584     H
H      0.75083 0.513606 0.834168     H
H     0.750833  1.01361 0.165843     H
C      0.75424 -0.00816 0.508406     C
C      0.75424  0.00824 0.491606     C
C      0.75424  0.49184 0.491606     C
C      0.75424  0.50824 0.508406     C
H     0.755743 0.154086 0.138032     H
H     0.755746 0.700951 0.880169     H
H      0.75575  0.29896 0.119884     H
H     0.755753 0.845912 0.861975     H
C      0.75604  0.03902 0.691015     C
C      0.75604  0.46102 0.691015     C
C      0.75604  0.53902 0.308995     C
C      0.75604  0.96102 0.308995     C
H     0.757734 0.646876 0.529327     H
H     0.757735  0.14688 0.470681     H
H      0.75774 -0.146777 0.529325     H
H      0.75774 0.353219 0.470683     H
C      0.75824 -0.00416 0.741606     C
C      0.75824  0.49584 0.258406     C
C      0.75824  0.50424 0.741606     C
C      0.75824  1.00424 0.258406     C
C      0.75874 -0.11416 0.541394     C
C      0.75874  0.11424 0.458614     C
C      0.75874  0.38584 0.458614     C
C      0.75874  0.61424 0.541394     C
H     0.761693 0.896622 0.879638     H
H     0.761698 0.396549 0.120341     H
H     0.761706 0.603374 0.879618     H
H     0.761712 0.103447 0.120361     H
O      0.76222  0.15162 0.374063     O
O      0.76222  0.34842 0.374063     O
O      0.76222  0.65162 0.625943     O
O      0.76222  0.84842 0.625943     O
C      0.76264 -0.03126 0.572035     C
C      0.76264  0.03134 0.427975     C
C      0.76264  0.46874 0.427975     C
C      0.76264  0.53134 0.572035     C
H     0.763605 -0.000753446 0.415843     H
H     0.763605 0.500833 0.415843     H
H     0.763606 0.000829681 0.584168     H
H     0.763606  0.49925 0.584168     H
C      0.76394  0.07602 0.736226     C
C      0.76394  0.42402 0.736226     C
C      0.76394  0.57602 0.263786     C
C      0.76394  0.92402 0.263786     C
H     0.765771 -0.0572878 0.733587     H
H     0.765771 0.442712 0.266425     H
H     0.765772 0.557365 0.733586     H
H     0.765772  1.05736 0.266426     H
N      0.77014     0.25 0.724057     N
N      0.77014     0.75 0.275957     N
C      0.77844  0.10254 0.719285     C
C      0.77844  0.39754 0.719285     C
C      0.77844  0.60254 0.280725     C
C      0.77844  0.89754 0.280725     C
C      0.78134 -0.01256 0.677975     C
C      0.78134  0.48744 0.322035     C
C      0.78134  0.51264 0.677975     C
C      0.78134  1.01264 0.322035     C
C      0.78654  0.18304 0.714395     C
C      0.78654  0.31704 0.714395     C
C      0.78654  0.68304 0.285615     C
C      0.78654  0.81704 0.285615     C
H      0.79709 0.423246 0.810793     H
H      0.79709 0.923246 0.189217     H
H     0.797103 0.0767794  0.81079     H
H     0.797103 0.576779  0.18922     H
C      0.79864  0.04212 0.706285     C
C      0.79864  0.45792 0.706285     C
C      0.79864  0.54212 0.293725     C
C      0.79864  0.95792 0.293725     C
H     0.807365 -0.0156922 0.516426     H
H     0.807365 0.0157722 0.483586     H
H     0.807365 0.484308 0.483586     H
H     0.807365 0.515772 0.516426     H
C      0.81082 -0.13868 0.554264     C
C      0.81082  0.13872 0.445744     C
C      0.81082  0.36132 0.445744     C
C      0.81082  0.63872 0.554264     C
C      0.81222 -0.09666 0.569554     C
C      0.81222  0.09674 0.430454     C
C      0.81222  0.40334 0.430454     C
C      0.81222  0.59674 0.569554     C
C      0.81945  0.21034 0.698526     C
C      0.81945  0.28974 0.698526     C
C      0.81945  0.71034 0.301486     C
C      0.81945  0.78974 0.301486     C
H     0.840872 0.671943 0.311817     H
H     0.840872 0.828137 0.311817     H
H     0.840875 0.171944 0.688195     H
H     0.840875 0.328136 0.688195     H
O     0.8439817 -0.10848 0.598813     O
O     0.8439817  0.10852 0.401193     O
O     0.8439817  0.39152 0.401193     O
O     0.8439817  0.60852 0.598813     O
C      0.84674 -0.06218 0.680454     C
C      0.84674  0.43782 0.319554     C
C      0.84674  0.56222 0.680454     C
C      0.84674  1.06222 0.319554     C
H     0.850208 -0.190459 0.552361     H
H     0.850208 0.309541 0.447647     H
H     0.850236 0.190476  0.44765     H
H     0.850236 0.690476 0.552358     H
O      0.85852 -0.0939783 0.651193     O
O      0.85852 0.0939817 0.348813     O
O      0.85852 0.4060217 0.348813     O
O      0.85852 0.5939817 0.651193     O
C      0.86234 -0.12696 0.583745     C
C      0.86234  0.12704 0.416265     C
C      0.86234  0.37304 0.416265     C
C      0.86234  0.62704 0.583745     C
C      0.86424 -0.00866 0.708614     C
C      0.86424  0.49134 0.291394     C
C      0.86424  0.50874 0.708614     C
C      0.86424  1.00874 0.291394     C
H     0.873131 0.492083 0.613755     H
H     0.873142 0.507946 0.386253     H
H     0.876242 -0.0110278 0.365565     H
H     0.876254  1.01106 0.634444     H
C      0.87704 -0.11226 0.666265     C
C      0.87704  0.38774 0.333745     C
C      0.87704  0.61234 0.666265     C
C      0.87704  1.11234 0.333745     C
C      0.88872 -0.06078 0.695744     C
C      0.88872  0.43922 0.304264     C
C      0.88872  0.56082 0.695744     C
C      0.88872  1.06082 0.304264     C
Zr    0.893482 -0.143478    0.625    Zr
Zr    0.893482 0.143482    0.375    Zr
Zr    0.893482 0.356522    0.375    Zr
Zr    0.893482 0.643482    0.625    Zr
Zr    0.893482 0.856522    0.625    Zr
Zr    0.893482 1.143482    0.375    Zr
H     0.896876  1.00773 0.279327     H
H      0.89688 0.507735 0.720681     H
H     0.896896 0.492385  0.27933     H
H       0.8969 -0.00761512 0.720678     H
O      0.90162  0.01222 0.375943     O
O      0.90162  0.48782 0.375943     O
O      0.90162  0.51222 0.624063     O
O      0.90162  0.98782 0.624063     O
H     0.940463 -0.10021 0.697652     H
H     0.940463  0.39979 0.302356     H
H     0.940476 0.600236  0.69765     H
H     0.940476  1.10024 0.302358     H
H     0.959178  1.00418 0.623563     H
H     0.959179 -0.00414354  0.37644     H
H     0.959179 0.495856 0.623564     H
H     0.959179 0.504185 0.376441     H
Zr         1.0    -0.25 0.5938797    Zr
Zr         1.0    -0.25 0.6561217    Zr
Zr         1.0     0.25 0.3438797    Zr
Zr         1.0     0.25 0.4061217    Zr
Zr         1.0     0.75 0.5938797    Zr
Zr         1.0     0.75 0.6561217    Zr
Zr         1.0     1.25 0.3438797    Zr
Zr    1.106522 0.143482    0.375    Zr
Zr    1.106522 0.356522    0.375    Zr
Zr    1.106522 0.643482    0.625    Zr
Zr    1.106522 0.856522    0.625    Zr
