data_I
_chemical_name_common  '/Users/gianmarcoterrones/Downloads/PCN-57_no_solvent'
_cell_length_a 32.65719
_cell_length_b 32.65719
_cell_length_c 32.65719
_cell_angle_alpha 90.00000
_cell_angle_beta  90.00000
_cell_angle_gamma 90.00000
_space_group_name_H-M_alt      'P 1'


loop_
_space_group_symop_operation_xyz
  'x, y, z' 

loop_
_atom_site_label
_atom_site_fract_x
_atom_site_fract_y
_atom_site_fract_z
_atom_site_type_symbol
H     -0.103032 0.266329 0.766329     H
H     -0.103032 0.766329 0.266329     H
H     -0.103019 0.233742 0.266319     H
H     -0.103019 0.266319 0.233742     H
H     -0.103019 0.733742 0.766319     H
H     -0.103019 0.766319 0.733742     H
H     -0.103006 0.233752 0.733752     H
H     -0.103006 0.733752 0.233752     H
H     -0.0794282 0.185618 0.275953     H
H     -0.0794282 0.275953 0.185618     H
H     -0.0794282 0.685618 0.775953     H
H     -0.0794282 0.775953 0.685618     H
H     -0.0794262 0.185621 0.724126     H
H     -0.0794262 0.224126 0.685621     H
H     -0.0794262 0.685621 0.224126     H
H     -0.0794262 0.724126 0.185621     H
H     -0.0794032 0.275935  0.81444     H
H     -0.0794032  0.31444 0.775935     H
H     -0.0794032 0.775935  0.31444     H
H     -0.0794032  0.81444 0.275935     H
H     -0.0794012 0.224144 0.314437     H
H     -0.0794012 0.314437 0.224144     H
H     -0.0794012 0.724144 0.814437     H
H     -0.0794012 0.814437 0.724144     H
C     -0.07766  0.21843  0.28163     C
C     -0.07766  0.21843  0.71843     C
C     -0.07766  0.28163  0.21843     C
C     -0.07766  0.28163  0.78163     C
C     -0.07766  0.71843  0.21843     C
C     -0.07766  0.71843  0.78163     C
C     -0.07766  0.78163  0.28163     C
C     -0.07766  0.78163  0.71843     C
Zr    -0.075347      0.0      0.5    Zr
Zr    -0.075347      0.5      0.0    Zr
Zr    -0.075347      0.5      1.0    Zr
Zr    -0.075347      1.0      0.5    Zr
O     -0.0586486      0.0 0.3918214     O
O     -0.0586486      0.0 0.6081814     O
O     -0.0586486 0.1081814      0.5     O
O     -0.0586486 0.3918214      0.0     O
O     -0.0586486      0.5 0.1081814     O
O     -0.0586486      0.5 0.8918214     O
O     -0.0586486 0.6081814      0.0     O
O     -0.0586486 0.8918214      0.5     O
C     -0.0371783 0.234957 0.265057     C
C     -0.0371783 0.234957 0.734957     C
C     -0.0371783 0.265057 0.234957     C
C     -0.0371783 0.265057 0.765057     C
C     -0.0371783 0.734957 0.234957     C
C     -0.0371783 0.734957 0.765057     C
C     -0.0371783 0.765057 0.265057     C
C     -0.0371783 0.765057 0.734957     C
O     -0.0370683 -0.0370683 0.4629317     O
O     -0.0370683 -0.0370683 0.5370717     O
O     -0.0370683 0.0370717 0.4629317     O
O     -0.0370683 0.0370717 0.5370717     O
O     -0.0370683 0.4629317 -0.0370683     O
O     -0.0370683 0.4629317 0.0370717     O
O     -0.0370683 0.5370717 -0.0370683     O
O     -0.0370683 0.5370717 0.0370717     O
H     -6.16298e-33 0.138629 0.268547     H
H     -4.62223e-33 0.268547 0.138629     H
Zr         0.0 -0.075347      0.5    Zr
O          0.0 -0.0586486 0.3918214     O
O          0.0 -0.0586486 0.6081814     O
Zr         0.0      0.0 0.424653    Zr
Zr         0.0      0.0 0.575353    Zr
O          0.0 0.0586514 0.3918214     O
O          0.0 0.0586514 0.6081814     O
Zr         0.0 0.075353      0.5    Zr
C          0.0 0.0946717 0.4053317     C
C          0.0 0.0946717 0.5946717     C
O          0.0 0.1081814 0.4413514     O
O          0.0 0.1081814 0.5586514     O
C          0.0  0.11662  0.33132     C
C          0.0  0.11662  0.66872     C
C          0.0 0.1276016 0.3724016     C
C          0.0 0.1276016 0.6276016     C
C          0.0  0.14702  0.30082     C
C          0.0  0.14702  0.69922     C
C          0.0  0.16872  0.38342     C
C          0.0  0.16872  0.61662     C
H          0.0 0.177324 0.415637     H
H          0.0 0.177337 0.584406     H
C          0.0  0.18762  0.31242     C
C          0.0  0.18762  0.68762     C
C          0.0  0.19922  0.35302     C
C          0.0  0.19922  0.64702     C
C          0.0 0.2203318 0.2796718     C
C          0.0 0.2203318 0.7203318     C
H          0.0 0.231493 0.361411     H
C          0.0 0.2796718 0.2203318     C
C          0.0 0.2796718 0.7796718     C
C          0.0  0.30082  0.14702     C
C          0.0  0.30082  0.85302     C
C          0.0  0.31242  0.18762     C
C          0.0  0.31242  0.81242     C
H          0.0  0.32272 0.915638     H
C          0.0  0.33132  0.11662     C
C          0.0  0.33132  0.88342     C
C          0.0  0.35302  0.19922     C
C          0.0  0.35302  0.80082     C
H          0.0 0.361411 0.231493     H
C          0.0 0.3724016 0.1276016     C
C          0.0 0.3724016 0.8724016     C
C          0.0  0.38342  0.16872     C
C          0.0  0.38342  0.83132     C
O          0.0 0.3918214 -0.0586486     O
O          0.0 0.3918214 0.0586514     O
C          0.0 0.4053317 0.0946717     C
C          0.0 0.4053317 0.9053317     C
H          0.0 0.415637 0.177324     H
Zr         0.0 0.424653      0.0    Zr
Zr         0.0 0.424653      1.0    Zr
O          0.0 0.4413514 0.1081814     O
O          0.0 0.4413514 0.8918214     O
Zr         0.0      0.5 -0.075347    Zr
Zr         0.0      0.5 0.075353    Zr
Zr         0.0      0.5 0.924653    Zr
O          0.0 0.5586514 0.1081814     O
O          0.0 0.5586514 0.8918214     O
Zr         0.0 0.575353      0.0    Zr
Zr         0.0 0.575353      1.0    Zr
C          0.0 0.5946717 0.0946717     C
C          0.0 0.5946717 0.9053317     C
O          0.0 0.6081814 -0.0586486     O
O          0.0 0.6081814 0.0586514     O
C          0.0  0.61662  0.16872     C
C          0.0  0.61662  0.83132     C
C          0.0 0.6276016 0.1276016     C
C          0.0 0.6276016 0.8724016     C
C          0.0  0.64702  0.19922     C
C          0.0  0.64702  0.80082     C
C          0.0  0.66872  0.11662     C
C          0.0  0.66872  0.88342     C
C          0.0  0.68762  0.18762     C
C          0.0  0.68762  0.81242     C
C          0.0  0.69922  0.14702     C
C          0.0  0.69922  0.85302     C
C          0.0 0.7203318 0.2203318     C
C          0.0 0.7203318 0.7796718     C
C          0.0 0.7796718 0.2796718     C
C          0.0 0.7796718 0.7203318     C
C          0.0  0.80082  0.35302     C
C          0.0  0.80082  0.64702     C
C          0.0  0.81242  0.31242     C
C          0.0  0.81242  0.68762     C
C          0.0  0.83132  0.38342     C
C          0.0  0.83132  0.61662     C
C          0.0  0.85302  0.30082     C
C          0.0  0.85302  0.69922     C
C          0.0 0.8724016 0.3724016     C
C          0.0 0.8724016 0.6276016     C
C          0.0  0.88342  0.33132     C
C          0.0  0.88342  0.66872     C
O          0.0 0.8918214 0.4413514     O
O          0.0 0.8918214 0.5586514     O
C          0.0 0.9053317 0.4053317     C
C          0.0 0.9053317 0.5946717     C
Zr         0.0 0.924653      0.5    Zr
Zr         0.0      1.0 0.424653    Zr
Zr         0.0      1.0 0.575353    Zr
H     2.31112e-33 0.322706 0.0844053     H
H     3.08149e-33 0.0844053 0.322706     H
H     3.08149e-33 0.915638  0.32272     H
H     4.62223e-33 0.584406 0.177337     H
H     6.16298e-33 0.0844063 0.677337     H
H     6.16298e-33 0.231493 0.638629     H
H     6.16298e-33 0.638629 0.768547     H
H     6.16298e-33 0.768547 0.638629     H
H     9.24446e-33 0.638629 0.231493     H
H     1.2326e-32 0.268547 0.861411     H
H     1.2326e-32 0.415638  0.82272     H
H     1.2326e-32 0.584405 0.822706     H
H     1.2326e-32 0.677337 0.0844063     H
H     1.2326e-32 0.822706 0.584405     H
H     1.54074e-32  0.82272 0.415638     H
H     1.84889e-32 0.138629 0.731493     H
H     1.84889e-32 0.361411 0.768547     H
H     1.84889e-32 0.861411 0.268547     H
H     2.15704e-32 0.768547 0.361411     H
H     2.46519e-32 0.677324 0.915637     H
H     2.46519e-32 0.915637 0.677324     H
H     2.61926e-32 0.731493 0.138629     H
H     4.31408e-32 0.731493 0.861411     H
H     4.31408e-32 0.861411 0.731493     H
O     0.0370717 -0.0370683 0.4629317     O
O     0.0370717 -0.0370683 0.5370717     O
O     0.0370717 0.0370717 0.4629317     O
O     0.0370717 0.0370717 0.5370717     O
O     0.0370717 0.4629317 -0.0370683     O
O     0.0370717 0.4629317 0.0370717     O
O     0.0370717 0.5370717 -0.0370683     O
O     0.0370717 0.5370717 0.0370717     O
C     0.0371817 0.234957 0.265057     C
C     0.0371817 0.234957 0.734957     C
C     0.0371817 0.265057 0.234957     C
C     0.0371817 0.265057 0.765057     C
C     0.0371817 0.734957 0.234957     C
C     0.0371817 0.734957 0.765057     C
C     0.0371817 0.765057 0.265057     C
C     0.0371817 0.765057 0.734957     C
O     0.0586514      0.0 0.3918214     O
O     0.0586514      0.0 0.6081814     O
O     0.0586514 0.1081814      0.5     O
O     0.0586514 0.3918214      0.0     O
O     0.0586514      0.5 0.1081814     O
O     0.0586514      0.5 0.8918214     O
O     0.0586514 0.6081814      0.0     O
O     0.0586514 0.8918214      0.5     O
Zr    0.075353      0.0      0.5    Zr
Zr    0.075353      0.5      0.0    Zr
Zr    0.075353      0.5      1.0    Zr
Zr    0.075353      1.0      0.5    Zr
C      0.07774  0.21843  0.28163     C
C      0.07774  0.21843  0.71843     C
C      0.07774  0.28163  0.21843     C
C      0.07774  0.28163  0.78163     C
C      0.07774  0.71843  0.21843     C
C      0.07774  0.71843  0.78163     C
C      0.07774  0.78163  0.28163     C
C      0.07774  0.78163  0.71843     C
H     0.0794969 0.224145 0.314436     H
H     0.0794969 0.314436 0.224145     H
H     0.0794969 0.724145 0.814436     H
H     0.0794969 0.814436 0.724145     H
H     0.0794989 0.275934 0.814439     H
H     0.0794989 0.314439 0.775934     H
H     0.0794989 0.775934 0.314439     H
H     0.0794989 0.814439 0.275934     H
H     0.0795219 0.185622 0.724127     H
H     0.0795219 0.224127 0.685622     H
H     0.0795219 0.685622 0.224127     H
H     0.0795219 0.724127 0.185622     H
H     0.0795238 0.185619 0.275951     H
H     0.0795238 0.275951 0.185619     H
H     0.0795238 0.685619 0.775951     H
H     0.0795238 0.775951 0.685619     H
H     0.0844053 6.16298e-33 0.322706     H
H     0.0844053 0.322706      0.0     H
H     0.0844053      0.5 0.822706     H
H     0.0844053 0.822706      0.5     H
H     0.0844063 6.16298e-33 0.677337     H
H     0.0844063 0.177337      0.5     H
H     0.0844063      0.5 0.177337     H
H     0.0844063 0.677337      0.0     H
C     0.0946717      0.0 0.4053317     C
C     0.0946717      0.0 0.5946717     C
C     0.0946717 0.0946717      0.5     C
C     0.0946717 0.4053317      0.0     C
C     0.0946717      0.5 0.0946717     C
C     0.0946717      0.5 0.9053317     C
C     0.0946717 0.5946717      0.0     C
C     0.0946717 0.9053317      0.5     C
H     0.103068 0.233767 0.733767     H
H     0.103068 0.733767 0.233767     H
H     0.103081 0.233757 0.266304     H
H     0.103081 0.266304 0.233757     H
H     0.103081 0.733757 0.766304     H
H     0.103081 0.766304 0.733757     H
H     0.103095 0.266314 0.766314     H
H     0.103095 0.766314 0.266314     H
O     0.1081814 -0.0586486      0.5     O
O     0.1081814      0.0 0.4413514     O
O     0.1081814      0.0 0.5586514     O
O     0.1081814 0.0586514      0.5     O
O     0.1081814 0.4413514      0.0     O
O     0.1081814      0.5 -0.0586486     O
O     0.1081814      0.5 0.0586514     O
O     0.1081814 0.5586514      0.0     O
C      0.11662      0.0  0.33132     C
C      0.11662      0.0  0.66872     C
C      0.11662  0.16872      0.5     C
C      0.11662  0.33132      0.0     C
C      0.11662      0.5  0.16872     C
C      0.11662      0.5  0.83132     C
C      0.11662  0.66872      0.0     C
C      0.11662  0.83132      0.5     C
C     0.1276016      0.0 0.3724016     C
C     0.1276016      0.0 0.6276016     C
C     0.1276016 0.1276016      0.5     C
C     0.1276016 0.3724016      0.0     C
C     0.1276016      0.5 0.1276016     C
C     0.1276016      0.5 0.8724016     C
C     0.1276016 0.6276016      0.0     C
C     0.1276016 0.8724016      0.5     C
H     0.138629 -3.08149e-33 0.268547     H
H     0.138629 2.46519e-32 0.731493     H
H     0.138629 0.231493      0.5     H
H     0.138629 0.268547      0.0     H
H     0.138629      0.5 0.231493     H
H     0.138629      0.5 0.768547     H
H     0.138629 0.731493      0.0     H
H     0.138629 0.768547      0.5     H
C      0.14702      0.0  0.30082     C
C      0.14702      0.0  0.69922     C
C      0.14702  0.19922      0.5     C
C      0.14702  0.30082      0.0     C
C      0.14702      0.5  0.19922     C
C      0.14702      0.5  0.80082     C
C      0.14702  0.69922      0.0     C
C      0.14702  0.80082      0.5     C
C      0.16872      0.0  0.38342     C
C      0.16872      0.0  0.61662     C
C      0.16872  0.11662      0.5     C
C      0.16872  0.38342      0.0     C
C      0.16872      0.5  0.11662     C
C      0.16872      0.5  0.88342     C
C      0.16872  0.61662      0.0     C
C      0.16872  0.88342      0.5     C
H     0.177324 1.2326e-32 0.415637     H
H     0.177324 0.415637      0.0     H
H     0.177324      0.5 0.915637     H
H     0.177324 0.915637      0.5     H
H     0.177337 6.16298e-33 0.584406     H
H     0.177337 0.0844063      0.5     H
H     0.177337      0.5 0.0844063     H
H     0.177337 0.584406      0.0     H
H     0.185618 -0.0794282 0.275953     H
H     0.185618 0.275953 -0.0794282     H
H     0.185618 0.420572 0.775953     H
H     0.185618 0.775953 0.420572     H
H     0.185619 0.0795238 0.275951     H
H     0.185619 0.275951 0.0795238     H
H     0.185619 0.579524 0.775951     H
H     0.185619 0.775951 0.579524     H
H     0.185621 -0.0794262 0.724126     H
H     0.185621 0.224126 0.420574     H
H     0.185621 0.420574 0.224126     H
H     0.185621 0.724126 -0.0794262     H
H     0.185622 0.0795219 0.724127     H
H     0.185622 0.224127 0.579522     H
H     0.185622 0.579522 0.224127     H
H     0.185622 0.724127 0.0795219     H
C      0.18762      0.0  0.31242     C
C      0.18762      0.0  0.68762     C
C      0.18762  0.18762      0.5     C
C      0.18762  0.31242      0.0     C
C      0.18762      0.5  0.18762     C
C      0.18762      0.5  0.81242     C
C      0.18762  0.68762      0.0     C
C      0.18762  0.81242      0.5     C
C      0.19922      0.0  0.35302     C
C      0.19922      0.0  0.64702     C
C      0.19922  0.14702      0.5     C
C      0.19922  0.35302      0.0     C
C      0.19922      0.5  0.14702     C
C      0.19922      0.5  0.85302     C
C      0.19922  0.64702      0.0     C
C      0.19922  0.85302      0.5     C
C      0.21843 -0.07766  0.28163     C
C      0.21843 -0.07766  0.71843     C
C      0.21843  0.07774  0.28163     C
C      0.21843  0.07774  0.71843     C
C      0.21843  0.21843  0.42234     C
C      0.21843  0.21843  0.57774     C
C      0.21843  0.28163 -0.07766     C
C      0.21843  0.28163  0.07774     C
C      0.21843  0.42234  0.21843     C
C      0.21843  0.42234  0.78163     C
C      0.21843  0.57774  0.21843     C
C      0.21843  0.57774  0.78163     C
C      0.21843  0.71843 -0.07766     C
C      0.21843  0.71843  0.07774     C
C      0.21843  0.78163  0.42234     C
C      0.21843  0.78163  0.57774     C
C     0.2203318      0.0 0.2796718     C
C     0.2203318      0.0 0.7203318     C
C     0.2203318 0.2203318      0.5     C
C     0.2203318 0.2796718      0.0     C
C     0.2203318      0.5 0.2203318     C
C     0.2203318      0.5 0.7796718     C
C     0.2203318 0.7203318      0.0     C
C     0.2203318 0.7796718      0.5     C
H     0.224126 -0.0794262 0.685621     H
H     0.224126 0.185621 0.420574     H
H     0.224126 0.420574 0.185621     H
H     0.224126 0.685621 -0.0794262     H
H     0.224127 0.0795219 0.685622     H
H     0.224127 0.185622 0.579522     H
H     0.224127 0.579522 0.185622     H
H     0.224127 0.685622 0.0795219     H
H     0.224144 -0.0794012 0.314437     H
H     0.224144 0.314437 -0.0794012     H
H     0.224144 0.420599 0.814437     H
H     0.224144 0.814437 0.420599     H
H     0.224145 0.0794969 0.314436     H
H     0.224145 0.314436 0.0794969     H
H     0.224145 0.579497 0.814436     H
H     0.224145 0.814436 0.579497     H
H     0.231493 -3.08149e-33 0.361411     H
H     0.231493      0.0 0.638629     H
H     0.231493 0.138629      0.5     H
H     0.231493 0.361411      0.0     H
H     0.231493      0.5 0.138629     H
H     0.231493      0.5 0.861411     H
H     0.231493 0.638629      0.0     H
H     0.231493 0.861411      0.5     H
H     0.233742 -0.103019 0.266319     H
H     0.233742 0.266319 -0.103019     H
H     0.233742 0.396981 0.766319     H
H     0.233742 0.766319 0.396981     H
H     0.233752 -0.103006 0.733752     H
H     0.233752 0.233752 0.396994     H
H     0.233752 0.396994 0.233752     H
H     0.233752 0.733752 -0.103006     H
H     0.233757 0.103081 0.266304     H
H     0.233757 0.266304 0.103081     H
H     0.233757 0.603081 0.766304     H
H     0.233757 0.766304 0.603081     H
H     0.233767 0.103068 0.733767     H
H     0.233767 0.233767 0.603068     H
H     0.233767 0.603068 0.233767     H
H     0.233767 0.733767 0.103068     H
C     0.234957 -0.0371783 0.265057     C
C     0.234957 -0.0371783 0.734957     C
C     0.234957 0.0371817 0.265057     C
C     0.234957 0.0371817 0.734957     C
C     0.234957 0.234957 0.4628217     C
C     0.234957 0.234957 0.5371817     C
C     0.234957 0.265057 -0.0371783     C
C     0.234957 0.265057 0.0371817     C
C     0.234957 0.4628217 0.234957     C
C     0.234957 0.4628217 0.765057     C
C     0.234957 0.5371817 0.234957     C
C     0.234957 0.5371817 0.765057     C
C     0.234957 0.734957 -0.0371783     C
C     0.234957 0.734957 0.0371817     C
C     0.234957 0.765057 0.4628217     C
C     0.234957 0.765057 0.5371817     C
H     0.256686 0.0952293 0.795191     H
H     0.256686 0.295191 0.595229     H
H     0.256686 0.595229 0.295191     H
H     0.256686 0.795191 0.0952293     H
H     0.256688 0.0952463 0.204886     H
H     0.256688 0.204886 0.0952463     H
H     0.256688 0.595246 0.704886     H
H     0.256688 0.704886 0.595246     H
H     0.256696 -0.0951559 0.795201     H
H     0.256696 0.295201 0.404844     H
H     0.256696 0.404844 0.295201     H
H     0.256696 0.795201 -0.0951559     H
H     0.256699 -0.0951729 0.204876     H
H     0.256699 0.204876 -0.0951729     H
H     0.256699 0.404827 0.704876     H
H     0.256699 0.704876 0.404827     H
C     0.265057 -0.0371783 0.234957     C
C     0.265057 -0.0371783 0.765057     C
C     0.265057 0.0371817 0.234957     C
C     0.265057 0.0371817 0.765057     C
C     0.265057 0.234957 -0.0371783     C
C     0.265057 0.234957 0.0371817     C
C     0.265057 0.265057 0.4628217     C
C     0.265057 0.265057 0.5371817     C
C     0.265057 0.4628217 0.265057     C
C     0.265057 0.4628217 0.734957     C
C     0.265057 0.5371817 0.265057     C
C     0.265057 0.5371817 0.734957     C
C     0.265057 0.734957 0.4628217     C
C     0.265057 0.734957 0.5371817     C
C     0.265057 0.765057 -0.0371783     C
C     0.265057 0.765057 0.0371817     C
H     0.268547 1.54074e-33 0.138629     H
H     0.268547 1.2326e-32 0.861411     H
H     0.268547 0.138629      0.0     H
H     0.268547 0.361411      0.5     H
H     0.268547      0.5 0.361411     H
H     0.268547      0.5 0.638629     H
H     0.268547 0.638629      0.5     H
H     0.268547 0.861411      0.0     H
C     0.2796718      0.0 0.2203318     C
C     0.2796718      0.0 0.7796718     C
C     0.2796718 0.2203318      0.0     C
C     0.2796718 0.2796718      0.5     C
C     0.2796718      0.5 0.2796718     C
C     0.2796718      0.5 0.7203318     C
C     0.2796718 0.7203318      0.5     C
C     0.2796718 0.7796718      0.0     C
C      0.28163 -0.07766  0.21843     C
C      0.28163 -0.07766  0.78163     C
C      0.28163  0.07774  0.21843     C
C      0.28163  0.07774  0.78163     C
C      0.28163  0.21843 -0.07766     C
C      0.28163  0.21843  0.07774     C
C      0.28163  0.28163  0.42234     C
C      0.28163  0.28163  0.57774     C
C      0.28163  0.42234  0.28163     C
C      0.28163  0.42234  0.71843     C
C      0.28163  0.57774  0.28163     C
C      0.28163  0.57774  0.71843     C
C      0.28163  0.71843  0.42234     C
C      0.28163  0.71843  0.57774     C
C      0.28163  0.78163 -0.07766     C
C      0.28163  0.78163  0.07774     C
H     0.295191 0.0952293 0.756686     H
H     0.295191 0.256686 0.595229     H
H     0.295191 0.595229 0.256686     H
H     0.295191 0.756686 0.0952293     H
H     0.295194 0.0952026 0.243391     H
H     0.295194 0.243391 0.0952026     H
H     0.295194 0.595203 0.743391     H
H     0.295194 0.743391 0.595203     H
H     0.295201 -0.0951559 0.756696     H
H     0.295201 0.256696 0.404844     H
H     0.295201 0.404844 0.256696     H
H     0.295201 0.756696 -0.0951559     H
H     0.295204 -0.0951292 0.243381     H
H     0.295204 0.243381 -0.0951292     H
H     0.295204 0.404871 0.743381     H
H     0.295204 0.743381 0.404871     H
C      0.30082      0.0  0.14702     C
C      0.30082      0.0  0.85302     C
C      0.30082  0.14702      0.0     C
C      0.30082  0.35302      0.5     C
C      0.30082      0.5  0.35302     C
C      0.30082      0.5  0.64702     C
C      0.30082  0.64702      0.5     C
C      0.30082  0.85302      0.0     C
H     0.304806 -0.0715465 0.195247     H
H     0.304806 0.195247 -0.0715465     H
H     0.304806 0.428453 0.695247     H
H     0.304806 0.695247 0.428453     H
H     0.304807 -0.0715268 0.804807     H
H     0.304807 0.304807 0.428473     H
H     0.304807 0.428473 0.304807     H
H     0.304807 0.804807 -0.0715268     H
H      0.30481 0.0716534 0.195243     H
H      0.30481 0.195243 0.0716534     H
H      0.30481 0.571653 0.695243     H
H      0.30481 0.695243 0.571653     H
H     0.304811 0.0716337 0.804811     H
H     0.304811 0.304811 0.571634     H
H     0.304811 0.571634 0.304811     H
H     0.304811 0.804811 0.0716337     H
C      0.31242      0.0  0.18762     C
C      0.31242      0.0  0.81242     C
C      0.31242  0.18762      0.0     C
C      0.31242  0.31242      0.5     C
C      0.31242      0.5  0.31242     C
C      0.31242      0.5  0.68762     C
C      0.31242  0.68762      0.5     C
C      0.31242  0.81242      0.0     C
H     0.322706 1.54074e-33 0.0844053     H
H     0.322706 0.0844053      0.0     H
H     0.322706      0.5 0.584405     H
H     0.322706 0.584405      0.5     H
H      0.32272      0.0 0.915638     H
H      0.32272 0.415638      0.5     H
H      0.32272      0.5 0.415638     H
H      0.32272 0.915638      0.0     H
C      0.33132      0.0  0.11662     C
C      0.33132      0.0  0.88342     C
C      0.33132  0.11662      0.0     C
C      0.33132  0.38342      0.5     C
C      0.33132      0.5  0.38342     C
C      0.33132      0.5  0.61662     C
C      0.33132  0.61662      0.5     C
C      0.33132  0.88342      0.0     C
C      0.35302      0.0  0.19922     C
C      0.35302      0.0  0.80082     C
C      0.35302  0.19922      0.0     C
C      0.35302  0.30082      0.5     C
C      0.35302      0.5  0.30082     C
C      0.35302      0.5  0.69922     C
C      0.35302  0.69922      0.5     C
C      0.35302  0.80082      0.0     C
H     0.361411      0.0 0.231493     H
H     0.361411 1.2326e-32 0.768547     H
H     0.361411 0.231493      0.0     H
H     0.361411 0.268547      0.5     H
H     0.361411      0.5 0.268547     H
H     0.361411      0.5 0.731493     H
H     0.361411 0.731493      0.5     H
H     0.361411 0.768547      0.0     H
C     0.3724016      0.0 0.1276016     C
C     0.3724016      0.0 0.8724016     C
C     0.3724016 0.1276016      0.0     C
C     0.3724016 0.3724016      0.5     C
C     0.3724016      0.5 0.3724016     C
C     0.3724016      0.5 0.6276016     C
C     0.3724016 0.6276016      0.5     C
C     0.3724016 0.8724016      0.0     C
C      0.38342      0.0  0.16872     C
C      0.38342      0.0  0.83132     C
C      0.38342  0.16872      0.0     C
C      0.38342  0.33132      0.5     C
C      0.38342      0.5  0.33132     C
C      0.38342      0.5  0.66872     C
C      0.38342  0.66872      0.5     C
C      0.38342  0.83132      0.0     C
O     0.3918214 -0.0586486      0.0     O
O     0.3918214      0.0 -0.0586486     O
O     0.3918214      0.0 0.0586514     O
O     0.3918214 0.0586514      0.0     O
O     0.3918214 0.4413514      0.5     O
O     0.3918214      0.5 0.4413514     O
O     0.3918214      0.5 0.5586514     O
O     0.3918214 0.5586514      0.5     O
H     0.404827 0.204876 0.756699     H
H     0.404827 0.256699 0.704876     H
H     0.404827 0.704876 0.256699     H
H     0.404827 0.756699 0.204876     H
H     0.404844 0.256696 0.295201     H
H     0.404844 0.295201 0.256696     H
H     0.404844 0.756696 0.795201     H
H     0.404844 0.795201 0.756696     H
H     0.404854 0.204874 0.243379     H
H     0.404854 0.243379 0.204874     H
H     0.404854 0.704874 0.743379     H
H     0.404854 0.743379 0.704874     H
H     0.404871 0.243381 0.795204     H
H     0.404871 0.295204 0.743381     H
H     0.404871 0.743381 0.295204     H
H     0.404871 0.795204 0.243381     H
C     0.4053317      0.0 0.0946717     C
C     0.4053317      0.0 0.9053317     C
C     0.4053317 0.0946717      0.0     C
C     0.4053317 0.4053317      0.5     C
C     0.4053317      0.5 0.4053317     C
C     0.4053317      0.5 0.5946717     C
C     0.4053317 0.5946717      0.5     C
C     0.4053317 0.9053317      0.0     C
H     0.415637 3.08149e-33 0.177324     H
H     0.415637 0.177324      0.0     H
H     0.415637      0.5 0.677324     H
H     0.415637 0.677324      0.5     H
H     0.415638      0.0  0.82272     H
H     0.415638  0.32272      0.5     H
H     0.415638      0.5  0.32272     H
H     0.415638  0.82272      0.0     H
C      0.42234  0.21843  0.21843     C
C      0.42234  0.21843  0.78163     C
C      0.42234  0.28163  0.28163     C
C      0.42234  0.28163  0.71843     C
C      0.42234  0.71843  0.28163     C
C      0.42234  0.71843  0.71843     C
C      0.42234  0.78163  0.21843     C
C      0.42234  0.78163  0.78163     C
Zr    0.424653      0.0      0.0    Zr
Zr    0.424653      0.0      1.0    Zr
Zr    0.424653      0.5      0.5    Zr
Zr    0.424653      1.0      0.0    Zr
H     0.428434 0.195248 0.195248     H
H     0.428434 0.695248 0.695248     H
H     0.428453 0.195247 0.804806     H
H     0.428453 0.304806 0.695247     H
H     0.428453 0.695247 0.304806     H
H     0.428453 0.804806 0.195247     H
H     0.428473 0.304807 0.304807     H
H     0.428473 0.804807 0.804807     H
O     0.4413514      0.0 0.1081814     O
O     0.4413514      0.0 0.8918214     O
O     0.4413514 0.1081814      0.0     O
O     0.4413514 0.3918214      0.5     O
O     0.4413514      0.5 0.3918214     O
O     0.4413514      0.5 0.6081814     O
O     0.4413514 0.6081814      0.5     O
O     0.4413514 0.8918214      0.0     O
C     0.4628217 0.234957 0.234957     C
C     0.4628217 0.234957 0.765057     C
C     0.4628217 0.265057 0.265057     C
C     0.4628217 0.265057 0.734957     C
C     0.4628217 0.734957 0.265057     C
C     0.4628217 0.734957 0.734957     C
C     0.4628217 0.765057 0.234957     C
C     0.4628217 0.765057 0.765057     C
O     0.4629317 -0.0370683 -0.0370683     O
O     0.4629317 -0.0370683 0.0370717     O
O     0.4629317 0.0370717 -0.0370683     O
O     0.4629317 0.0370717 0.0370717     O
O     0.4629317 0.4629317 0.4629317     O
O     0.4629317 0.4629317 0.5370717     O
O     0.4629317 0.5370717 0.4629317     O
O     0.4629317 0.5370717 0.5370717     O
Zr         0.5 -0.075347      0.0    Zr
Zr         0.5 -0.075347      1.0    Zr
O          0.5 -0.0586486 0.1081814     O
O          0.5 -0.0586486 0.8918214     O
Zr         0.5      0.0 -0.075347    Zr
Zr         0.5      0.0 0.075353    Zr
Zr         0.5      0.0 0.924653    Zr
O          0.5 0.0586514 0.1081814     O
O          0.5 0.0586514 0.8918214     O
Zr         0.5 0.075353      0.0    Zr
Zr         0.5 0.075353      1.0    Zr
H          0.5 0.0844053 0.822706     H
H          0.5 0.0844063 0.177337     H
C          0.5 0.0946717 0.0946717     C
C          0.5 0.0946717 0.9053317     C
O          0.5 0.1081814 -0.0586486     O
O          0.5 0.1081814 0.0586514     O
C          0.5  0.11662  0.16872     C
C          0.5  0.11662  0.83132     C
C          0.5 0.1276016 0.1276016     C
C          0.5 0.1276016 0.8724016     C
H          0.5 0.138629 0.231493     H
H          0.5 0.138629 0.768547     H
C          0.5  0.14702  0.19922     C
C          0.5  0.14702  0.80082     C
C          0.5  0.16872  0.11662     C
C          0.5  0.16872  0.88342     C
H          0.5 0.177324 0.915637     H
H          0.5 0.177337 0.0844063     H
C          0.5  0.18762  0.18762     C
C          0.5  0.18762  0.81242     C
C          0.5  0.19922  0.14702     C
C          0.5  0.19922  0.85302     C
C          0.5 0.2203318 0.2203318     C
C          0.5 0.2203318 0.7796718     C
H          0.5 0.231493 0.138629     H
H          0.5 0.231493 0.861411     H
H          0.5 0.268547 0.361411     H
H          0.5 0.268547 0.638629     H
C          0.5 0.2796718 0.2796718     C
C          0.5 0.2796718 0.7203318     C
C          0.5  0.30082  0.35302     C
C          0.5  0.30082  0.64702     C
C          0.5  0.31242  0.31242     C
C          0.5  0.31242  0.68762     C
H          0.5 0.322706 0.584405     H
H          0.5  0.32272 0.415638     H
C          0.5  0.33132  0.38342     C
C          0.5  0.33132  0.61662     C
C          0.5  0.35302  0.30082     C
C          0.5  0.35302  0.69922     C
H          0.5 0.361411 0.268547     H
H          0.5 0.361411 0.731493     H
C          0.5 0.3724016 0.3724016     C
C          0.5 0.3724016 0.6276016     C
C          0.5  0.38342  0.33132     C
C          0.5  0.38342  0.66872     C
O          0.5 0.3918214 0.4413514     O
O          0.5 0.3918214 0.5586514     O
C          0.5 0.4053317 0.4053317     C
C          0.5 0.4053317 0.5946717     C
H          0.5 0.415637 0.677324     H
H          0.5 0.415638  0.32272     H
Zr         0.5 0.424653      0.5    Zr
O          0.5 0.4413514 0.3918214     O
O          0.5 0.4413514 0.6081814     O
Zr         0.5      0.5 0.424653    Zr
Zr         0.5      0.5 0.575353    Zr
O          0.5 0.5586514 0.3918214     O
O          0.5 0.5586514 0.6081814     O
Zr         0.5 0.575353      0.5    Zr
H          0.5 0.584405 0.322706     H
H          0.5 0.584406 0.677337     H
C          0.5 0.5946717 0.4053317     C
C          0.5 0.5946717 0.5946717     C
O          0.5 0.6081814 0.4413514     O
O          0.5 0.6081814 0.5586514     O
C          0.5  0.61662  0.33132     C
C          0.5  0.61662  0.66872     C
C          0.5 0.6276016 0.3724016     C
C          0.5 0.6276016 0.6276016     C
H          0.5 0.638629 0.268547     H
H          0.5 0.638629 0.731493     H
C          0.5  0.64702  0.30082     C
C          0.5  0.64702  0.69922     C
C          0.5  0.66872  0.38342     C
C          0.5  0.66872  0.61662     C
H          0.5 0.677324 0.415637     H
H          0.5 0.677337 0.584406     H
C          0.5  0.68762  0.31242     C
C          0.5  0.68762  0.68762     C
C          0.5  0.69922  0.35302     C
C          0.5  0.69922  0.64702     C
C          0.5 0.7203318 0.2796718     C
C          0.5 0.7203318 0.7203318     C
H          0.5 0.731493 0.361411     H
H          0.5 0.731493 0.638629     H
H          0.5 0.768547 0.138629     H
H          0.5 0.768547 0.861411     H
C          0.5 0.7796718 0.2203318     C
C          0.5 0.7796718 0.7796718     C
C          0.5  0.80082  0.14702     C
C          0.5  0.80082  0.85302     C
C          0.5  0.81242  0.18762     C
C          0.5  0.81242  0.81242     C
H          0.5 0.822706 0.0844053     H
H          0.5  0.82272 0.915638     H
C          0.5  0.83132  0.11662     C
C          0.5  0.83132  0.88342     C
C          0.5  0.85302  0.19922     C
C          0.5  0.85302  0.80082     C
H          0.5 0.861411 0.231493     H
H          0.5 0.861411 0.768547     H
C          0.5 0.8724016 0.1276016     C
C          0.5 0.8724016 0.8724016     C
C          0.5  0.88342  0.16872     C
C          0.5  0.88342  0.83132     C
O          0.5 0.8918214 -0.0586486     O
O          0.5 0.8918214 0.0586514     O
C          0.5 0.9053317 0.0946717     C
C          0.5 0.9053317 0.9053317     C
H          0.5 0.915637 0.177324     H
H          0.5 0.915638  0.82272     H
Zr         0.5 0.924653      0.0    Zr
Zr         0.5 0.924653      1.0    Zr
Zr         0.5      1.0 -0.075347    Zr
Zr         0.5      1.0 0.075353    Zr
Zr         0.5      1.0 0.924653    Zr
O     0.5370717 -0.0370683 -0.0370683     O
O     0.5370717 -0.0370683 0.0370717     O
O     0.5370717 0.0370717 -0.0370683     O
O     0.5370717 0.0370717 0.0370717     O
O     0.5370717 0.4629317 0.4629317     O
O     0.5370717 0.4629317 0.5370717     O
O     0.5370717 0.5370717 0.4629317     O
O     0.5370717 0.5370717 0.5370717     O
C     0.5371817 0.234957 0.234957     C
C     0.5371817 0.234957 0.765057     C
C     0.5371817 0.265057 0.265057     C
C     0.5371817 0.265057 0.734957     C
C     0.5371817 0.734957 0.265057     C
C     0.5371817 0.734957 0.734957     C
C     0.5371817 0.765057 0.234957     C
C     0.5371817 0.765057 0.765057     C
O     0.5586514      0.0 0.1081814     O
O     0.5586514      0.0 0.8918214     O
O     0.5586514 0.1081814      0.0     O
O     0.5586514 0.3918214      0.5     O
O     0.5586514      0.5 0.3918214     O
O     0.5586514      0.5 0.6081814     O
O     0.5586514 0.6081814      0.5     O
O     0.5586514 0.8918214      0.0     O
Zr    0.575353      0.0      0.0    Zr
Zr    0.575353      0.0      1.0    Zr
Zr    0.575353      0.5      0.5    Zr
Zr    0.575353      1.0      0.0    Zr
C      0.57774  0.21843  0.21843     C
C      0.57774  0.21843  0.78163     C
C      0.57774  0.28163  0.28163     C
C      0.57774  0.28163  0.71843     C
C      0.57774  0.71843  0.28163     C
C      0.57774  0.71843  0.71843     C
C      0.57774  0.78163  0.21843     C
C      0.57774  0.78163  0.78163     C
H     0.579497 0.224145 0.814436     H
H     0.579497 0.314436 0.724145     H
H     0.579497 0.724145 0.314436     H
H     0.579497 0.814436 0.224145     H
H     0.579499 0.275934 0.314439     H
H     0.579499 0.314439 0.275934     H
H     0.579499 0.775934 0.814439     H
H     0.579499 0.814439 0.775934     H
H     0.579522 0.185622 0.224127     H
H     0.579522 0.224127 0.185622     H
H     0.579522 0.685622 0.724127     H
H     0.579522 0.724127 0.685622     H
H     0.579524 0.185619 0.775951     H
H     0.579524 0.275951 0.685619     H
H     0.579524 0.685619 0.275951     H
H     0.579524 0.775951 0.185619     H
H     0.584405 6.16298e-33 0.822706     H
H     0.584405 0.322706      0.5     H
H     0.584405      0.5 0.322706     H
H     0.584405 0.822706      0.0     H
H     0.584406 1.54074e-33 0.177337     H
H     0.584406 0.177337      0.0     H
H     0.584406      0.5 0.677337     H
H     0.584406 0.677337      0.5     H
C     0.5946717      0.0 0.0946717     C
C     0.5946717      0.0 0.9053317     C
C     0.5946717 0.0946717      0.0     C
C     0.5946717 0.4053317      0.5     C
C     0.5946717      0.5 0.4053317     C
C     0.5946717      0.5 0.5946717     C
C     0.5946717 0.5946717      0.5     C
C     0.5946717 0.9053317      0.0     C
H     0.603068 0.233767 0.233767     H
H     0.603068 0.733767 0.733767     H
H     0.603081 0.233757 0.766304     H
H     0.603081 0.266304 0.733757     H
H     0.603081 0.733757 0.266304     H
H     0.603081 0.766304 0.233757     H
H     0.603095 0.266314 0.266314     H
H     0.603095 0.766314 0.766314     H
O     0.6081814 -0.0586486      0.0     O
O     0.6081814      0.0 -0.0586486     O
O     0.6081814      0.0 0.0586514     O
O     0.6081814 0.0586514      0.0     O
O     0.6081814 0.4413514      0.5     O
O     0.6081814      0.5 0.4413514     O
O     0.6081814      0.5 0.5586514     O
O     0.6081814 0.5586514      0.5     O
C      0.61662      0.0  0.16872     C
C      0.61662      0.0  0.83132     C
C      0.61662  0.16872      0.0     C
C      0.61662  0.33132      0.5     C
C      0.61662      0.5  0.33132     C
C      0.61662      0.5  0.66872     C
C      0.61662  0.66872      0.5     C
C      0.61662  0.83132      0.0     C
C     0.6276016      0.0 0.1276016     C
C     0.6276016      0.0 0.8724016     C
C     0.6276016 0.1276016      0.0     C
C     0.6276016 0.3724016      0.5     C
C     0.6276016      0.5 0.3724016     C
C     0.6276016      0.5 0.6276016     C
C     0.6276016 0.6276016      0.5     C
C     0.6276016 0.8724016      0.0     C
H     0.638629 3.08149e-33 0.231493     H
H     0.638629 1.2326e-32 0.768547     H
H     0.638629 0.231493      0.0     H
H     0.638629 0.268547      0.5     H
H     0.638629      0.5 0.268547     H
H     0.638629      0.5 0.731493     H
H     0.638629 0.731493      0.5     H
H     0.638629 0.768547      0.0     H
C      0.64702      0.0  0.19922     C
C      0.64702      0.0  0.80082     C
C      0.64702  0.19922      0.0     C
C      0.64702  0.30082      0.5     C
C      0.64702      0.5  0.30082     C
C      0.64702      0.5  0.69922     C
C      0.64702  0.69922      0.5     C
C      0.64702  0.80082      0.0     C
C      0.66872      0.0  0.11662     C
C      0.66872      0.0  0.88342     C
C      0.66872  0.11662      0.0     C
C      0.66872  0.38342      0.5     C
C      0.66872      0.5  0.38342     C
C      0.66872      0.5  0.61662     C
C      0.66872  0.61662      0.5     C
C      0.66872  0.88342      0.0     C
H     0.677324 1.2326e-32 0.915637     H
H     0.677324 0.415637      0.5     H
H     0.677324      0.5 0.415637     H
H     0.677324 0.915637      0.0     H
H     0.677337 3.08149e-33 0.0844063     H
H     0.677337 0.0844063      0.0     H
H     0.677337      0.5 0.584406     H
H     0.677337 0.584406      0.5     H
H     0.685618 -0.0794282 0.775953     H
H     0.685618 0.275953 0.420572     H
H     0.685618 0.420572 0.275953     H
H     0.685618 0.775953 -0.0794282     H
H     0.685619 0.0795238 0.775951     H
H     0.685619 0.275951 0.579524     H
H     0.685619 0.579524 0.275951     H
H     0.685619 0.775951 0.0795238     H
H     0.685621 -0.0794262 0.224126     H
H     0.685621 0.224126 -0.0794262     H
H     0.685621 0.420574 0.724126     H
H     0.685621 0.724126 0.420574     H
H     0.685622 0.0795219 0.224127     H
H     0.685622 0.224127 0.0795219     H
H     0.685622 0.579522 0.724127     H
H     0.685622 0.724127 0.579522     H
C      0.68762      0.0  0.18762     C
C      0.68762      0.0  0.81242     C
C      0.68762  0.18762      0.0     C
C      0.68762  0.31242      0.5     C
C      0.68762      0.5  0.31242     C
C      0.68762      0.5  0.68762     C
C      0.68762  0.68762      0.5     C
C      0.68762  0.81242      0.0     C
C      0.69922      0.0  0.14702     C
C      0.69922      0.0  0.85302     C
C      0.69922  0.14702      0.0     C
C      0.69922  0.35302      0.5     C
C      0.69922      0.5  0.35302     C
C      0.69922      0.5  0.64702     C
C      0.69922  0.64702      0.5     C
C      0.69922  0.85302      0.0     C
C      0.71843 -0.07766  0.21843     C
C      0.71843 -0.07766  0.78163     C
C      0.71843  0.07774  0.21843     C
C      0.71843  0.07774  0.78163     C
C      0.71843  0.21843 -0.07766     C
C      0.71843  0.21843  0.07774     C
C      0.71843  0.28163  0.42234     C
C      0.71843  0.28163  0.57774     C
C      0.71843  0.42234  0.28163     C
C      0.71843  0.42234  0.71843     C
C      0.71843  0.57774  0.28163     C
C      0.71843  0.57774  0.71843     C
C      0.71843  0.71843  0.42234     C
C      0.71843  0.71843  0.57774     C
C      0.71843  0.78163 -0.07766     C
C      0.71843  0.78163  0.07774     C
C     0.7203318      0.0 0.2203318     C
C     0.7203318      0.0 0.7796718     C
C     0.7203318 0.2203318      0.0     C
C     0.7203318 0.2796718      0.5     C
C     0.7203318      0.5 0.2796718     C
C     0.7203318      0.5 0.7203318     C
C     0.7203318 0.7203318      0.5     C
C     0.7203318 0.7796718      0.0     C
H     0.724126 -0.0794262 0.185621     H
H     0.724126 0.185621 -0.0794262     H
H     0.724126 0.420574 0.685621     H
H     0.724126 0.685621 0.420574     H
H     0.724127 0.0795219 0.185622     H
H     0.724127 0.185622 0.0795219     H
H     0.724127 0.579522 0.685622     H
H     0.724127 0.685622 0.579522     H
H     0.724144 -0.0794012 0.814437     H
H     0.724144 0.314437 0.420599     H
H     0.724144 0.420599 0.314437     H
H     0.724144 0.814437 -0.0794012     H
H     0.724145 0.0794969 0.814436     H
H     0.724145 0.314436 0.579497     H
H     0.724145 0.579497 0.314436     H
H     0.724145 0.814436 0.0794969     H
H     0.731493 1.54074e-33 0.138629     H
H     0.731493 1.2326e-32 0.861411     H
H     0.731493 0.138629      0.0     H
H     0.731493 0.361411      0.5     H
H     0.731493      0.5 0.361411     H
H     0.731493      0.5 0.638629     H
H     0.731493 0.638629      0.5     H
H     0.731493 0.861411      0.0     H
H     0.733742 -0.103019 0.766319     H
H     0.733742 0.266319 0.396981     H
H     0.733742 0.396981 0.266319     H
H     0.733742 0.766319 -0.103019     H
H     0.733752 -0.103006 0.233752     H
H     0.733752 0.233752 -0.103006     H
H     0.733752 0.396994 0.733752     H
H     0.733752 0.733752 0.396994     H
H     0.733757 0.103081 0.766304     H
H     0.733757 0.266304 0.603081     H
H     0.733757 0.603081 0.266304     H
H     0.733757 0.766304 0.103081     H
H     0.733767 0.103068 0.233767     H
H     0.733767 0.233767 0.103068     H
H     0.733767 0.603068 0.733767     H
H     0.733767 0.733767 0.603068     H
C     0.734957 -0.0371783 0.234957     C
C     0.734957 -0.0371783 0.765057     C
C     0.734957 0.0371817 0.234957     C
C     0.734957 0.0371817 0.765057     C
C     0.734957 0.234957 -0.0371783     C
C     0.734957 0.234957 0.0371817     C
C     0.734957 0.265057 0.4628217     C
C     0.734957 0.265057 0.5371817     C
C     0.734957 0.4628217 0.265057     C
C     0.734957 0.4628217 0.734957     C
C     0.734957 0.5371817 0.265057     C
C     0.734957 0.5371817 0.734957     C
C     0.734957 0.734957 0.4628217     C
C     0.734957 0.734957 0.5371817     C
C     0.734957 0.765057 -0.0371783     C
C     0.734957 0.765057 0.0371817     C
H     0.756686 0.0952293 0.295191     H
H     0.756686 0.295191 0.0952293     H
H     0.756686 0.595229 0.795191     H
H     0.756686 0.795191 0.595229     H
H     0.756688 0.0952463 0.704886     H
H     0.756688 0.204886 0.595246     H
H     0.756688 0.595246 0.204886     H
H     0.756688 0.704886 0.0952463     H
H     0.756696 -0.0951559 0.295201     H
H     0.756696 0.295201 -0.0951559     H
H     0.756696 0.404844 0.795201     H
H     0.756696 0.795201 0.404844     H
H     0.756699 -0.0951729 0.704876     H
H     0.756699 0.204876 0.404827     H
H     0.756699 0.404827 0.204876     H
H     0.756699 0.704876 -0.0951729     H
C     0.765057 -0.0371783 0.265057     C
C     0.765057 -0.0371783 0.734957     C
C     0.765057 0.0371817 0.265057     C
C     0.765057 0.0371817 0.734957     C
C     0.765057 0.234957 0.4628217     C
C     0.765057 0.234957 0.5371817     C
C     0.765057 0.265057 -0.0371783     C
C     0.765057 0.265057 0.0371817     C
C     0.765057 0.4628217 0.234957     C
C     0.765057 0.4628217 0.765057     C
C     0.765057 0.5371817 0.234957     C
C     0.765057 0.5371817 0.765057     C
C     0.765057 0.734957 -0.0371783     C
C     0.765057 0.734957 0.0371817     C
C     0.765057 0.765057 0.4628217     C
C     0.765057 0.765057 0.5371817     C
H     0.768547 -3.08149e-33 0.361411     H
H     0.768547 6.16298e-33 0.638629     H
H     0.768547 0.138629      0.5     H
H     0.768547 0.361411      0.0     H
H     0.768547      0.5 0.138629     H
H     0.768547      0.5 0.861411     H
H     0.768547 0.638629      0.0     H
H     0.768547 0.861411      0.5     H
C     0.7796718      0.0 0.2796718     C
C     0.7796718      0.0 0.7203318     C
C     0.7796718 0.2203318      0.5     C
C     0.7796718 0.2796718      0.0     C
C     0.7796718      0.5 0.2203318     C
C     0.7796718      0.5 0.7796718     C
C     0.7796718 0.7203318      0.0     C
C     0.7796718 0.7796718      0.5     C
C      0.78163 -0.07766  0.28163     C
C      0.78163 -0.07766  0.71843     C
C      0.78163  0.07774  0.28163     C
C      0.78163  0.07774  0.71843     C
C      0.78163  0.21843  0.42234     C
C      0.78163  0.21843  0.57774     C
C      0.78163  0.28163 -0.07766     C
C      0.78163  0.28163  0.07774     C
C      0.78163  0.42234  0.21843     C
C      0.78163  0.42234  0.78163     C
C      0.78163  0.57774  0.21843     C
C      0.78163  0.57774  0.78163     C
C      0.78163  0.71843 -0.07766     C
C      0.78163  0.71843  0.07774     C
C      0.78163  0.78163  0.42234     C
C      0.78163  0.78163  0.57774     C
H     0.795191 0.0952293 0.256686     H
H     0.795191 0.256686 0.0952293     H
H     0.795191 0.595229 0.756686     H
H     0.795191 0.756686 0.595229     H
H     0.795194 0.0952026 0.743391     H
H     0.795194 0.243391 0.595203     H
H     0.795194 0.595203 0.243391     H
H     0.795194 0.743391 0.0952026     H
H     0.795201 -0.0951559 0.256696     H
H     0.795201 0.256696 -0.0951559     H
H     0.795201 0.404844 0.756696     H
H     0.795201 0.756696 0.404844     H
H     0.795204 -0.0951292 0.743381     H
H     0.795204 0.243381 0.404871     H
H     0.795204 0.404871 0.243381     H
H     0.795204 0.743381 -0.0951292     H
C      0.80082      0.0  0.35302     C
C      0.80082      0.0  0.64702     C
C      0.80082  0.14702      0.5     C
C      0.80082  0.35302      0.0     C
C      0.80082      0.5  0.14702     C
C      0.80082      0.5  0.85302     C
C      0.80082  0.64702      0.0     C
C      0.80082  0.85302      0.5     C
H     0.804806 -0.0715465 0.695247     H
H     0.804806 0.195247 0.428453     H
H     0.804806 0.428453 0.195247     H
H     0.804806 0.695247 -0.0715465     H
H     0.804807 -0.0715268 0.304807     H
H     0.804807 0.304807 -0.0715268     H
H     0.804807 0.428473 0.804807     H
H     0.804807 0.804807 0.428473     H
H      0.80481 0.0716534 0.695243     H
H      0.80481 0.195243 0.571653     H
H      0.80481 0.571653 0.195243     H
H      0.80481 0.695243 0.0716534     H
H     0.804811 0.0716337 0.304811     H
H     0.804811 0.304811 0.0716337     H
H     0.804811 0.571634 0.804811     H
H     0.804811 0.804811 0.571634     H
C      0.81242      0.0  0.31242     C
C      0.81242      0.0  0.68762     C
C      0.81242  0.18762      0.5     C
C      0.81242  0.31242      0.0     C
C      0.81242      0.5  0.18762     C
C      0.81242      0.5  0.81242     C
C      0.81242  0.68762      0.0     C
C      0.81242  0.81242      0.5     C
H     0.822706 6.16298e-33 0.584405     H
H     0.822706 0.0844053      0.5     H
H     0.822706      0.5 0.0844053     H
H     0.822706 0.584405      0.0     H
H      0.82272 9.24446e-33 0.415638     H
H      0.82272 0.415638      0.0     H
H      0.82272      0.5 0.915638     H
H      0.82272 0.915638      0.5     H
C      0.83132      0.0  0.38342     C
C      0.83132      0.0  0.61662     C
C      0.83132  0.11662      0.5     C
C      0.83132  0.38342      0.0     C
C      0.83132      0.5  0.11662     C
C      0.83132      0.5  0.88342     C
C      0.83132  0.61662      0.0     C
C      0.83132  0.88342      0.5     C
C      0.85302      0.0  0.30082     C
C      0.85302      0.0  0.69922     C
C      0.85302  0.19922      0.5     C
C      0.85302  0.30082      0.0     C
C      0.85302      0.5  0.19922     C
C      0.85302      0.5  0.80082     C
C      0.85302  0.69922      0.0     C
C      0.85302  0.80082      0.5     C
H     0.861411 -3.08149e-33 0.268547     H
H     0.861411 2.46519e-32 0.731493     H
H     0.861411 0.231493      0.5     H
H     0.861411 0.268547      0.0     H
H     0.861411      0.5 0.231493     H
H     0.861411      0.5 0.768547     H
H     0.861411 0.731493      0.0     H
H     0.861411 0.768547      0.5     H
C     0.8724016      0.0 0.3724016     C
C     0.8724016      0.0 0.6276016     C
C     0.8724016 0.1276016      0.5     C
C     0.8724016 0.3724016      0.0     C
C     0.8724016      0.5 0.1276016     C
C     0.8724016      0.5 0.8724016     C
C     0.8724016 0.6276016      0.0     C
C     0.8724016 0.8724016      0.5     C
C      0.88342      0.0  0.33132     C
C      0.88342      0.0  0.66872     C
C      0.88342  0.16872      0.5     C
C      0.88342  0.33132      0.0     C
C      0.88342      0.5  0.16872     C
C      0.88342      0.5  0.83132     C
C      0.88342  0.66872      0.0     C
C      0.88342  0.83132      0.5     C
O     0.8918214 -0.0586486      0.5     O
O     0.8918214      0.0 0.4413514     O
O     0.8918214      0.0 0.5586514     O
O     0.8918214 0.0586514      0.5     O
O     0.8918214 0.4413514      0.0     O
O     0.8918214      0.5 -0.0586486     O
O     0.8918214      0.5 0.0586514     O
O     0.8918214 0.5586514      0.0     O
C     0.9053317      0.0 0.4053317     C
C     0.9053317      0.0 0.5946717     C
C     0.9053317 0.0946717      0.5     C
C     0.9053317 0.4053317      0.0     C
C     0.9053317      0.5 0.0946717     C
C     0.9053317      0.5 0.9053317     C
C     0.9053317 0.5946717      0.0     C
C     0.9053317 0.9053317      0.5     C
H     0.915637      0.0 0.677324     H
H     0.915637 0.177324      0.5     H
H     0.915637      0.5 0.177324     H
H     0.915637 0.677324      0.0     H
H     0.915638      0.0  0.32272     H
H     0.915638  0.32272      0.0     H
H     0.915638      0.5  0.82272     H
H     0.915638  0.82272      0.5     H
Zr    0.924653      0.0      0.5    Zr
Zr    0.924653      0.5      0.0    Zr
Zr    0.924653      0.5      1.0    Zr
Zr    0.924653      1.0      0.5    Zr
Zr         1.0 -0.075347      0.5    Zr
Zr         1.0      0.0 0.424653    Zr
Zr         1.0      0.0 0.575353    Zr
Zr         1.0 0.075353      0.5    Zr
Zr         1.0 0.424653      0.0    Zr
Zr         1.0      0.5 -0.075347    Zr
Zr         1.0      0.5 0.075353    Zr
Zr         1.0      0.5 0.924653    Zr
Zr         1.0 0.575353      0.0    Zr
Zr         1.0 0.924653      0.5    Zr
