data_image0
_cell_length_a       33.8846
_cell_length_b       33.8846
_cell_length_c       33.8846
_cell_angle_alpha    90
_cell_angle_beta     90
_cell_angle_gamma    90

_symmetry_space_group_name_H-M    "P 1"
_symmetry_int_tables_number       1

loop_
  _symmetry_equiv_pos_as_xyz
  'x, y, z'

loop_
  _atom_site_label
  _atom_site_occupancy
  _atom_site_fract_x
  _atom_site_fract_y
  _atom_site_fract_z
  _atom_site_thermal_displace_type
  _atom_site_B_iso_or_equiv
  _atom_site_type_symbol
  Co1      1.0000 0.89615  0.12447  0.01996  Biso   1.000  Co
  Co2      1.0000 0.89085  0.40521  0.03688  Biso   1.000  Co
  N1       1.0000 0.90377  0.34954  0.04863  Biso   1.000  N
  N2       1.0000 0.93848  0.34407  0.06980  Biso   1.000  N
  N3       1.0000 0.89812  0.18205  0.08422  Biso   1.000  N
  N4       1.0000 0.90397  0.17671  0.04501  Biso   1.000  N
  N5       1.0000 0.90170  0.08900  0.09972  Biso   1.000  N
  N6       1.0000 0.90662  0.08322  0.05933  Biso   1.000  N
  N7       1.0000 0.97565  0.93555  0.11614  Biso   1.000  N
  N8       1.0000 0.94070  0.92320  0.10390  Biso   1.000  N
  H1       1.0000 0.93410  0.89880  0.10240  Biso   1.000  H
  C1       1.0000 0.85080  0.30840  0.01820  Biso   1.000  C
  H2       1.0000 0.83000  0.32200  0.03190  Biso   1.000  H
  H3       1.0000 0.84480  0.28080  0.01690  Biso   1.000  H
  H4       1.0000 0.85310  0.31880  0.99190  Biso   1.000  H
  C2       1.0000 0.88970  0.31440  0.04020  Biso   1.000  C
  C3       1.0000 0.91320  0.28420  0.05550  Biso   1.000  C
  C4       1.0000 0.94360  0.30440  0.07360  Biso   1.000  C
  C5       1.0000 0.98040  0.28790  0.09280  Biso   1.000  C
  H5       1.0000 0.99010  0.26620  0.07740  Biso   1.000  H
  H6       1.0000 0.97420  0.27890  0.11890  Biso   1.000  H
  H7       1.0000 0.00020  0.30810  0.09430  Biso   1.000  H
  C6       1.0000 0.89520  0.23520  0.13270  Biso   1.000  C
  H8       1.0000 0.87600  0.21950  0.14640  Biso   1.000  H
  H9       1.0000 0.88660  0.26220  0.13220  Biso   1.000  H
  H10      1.0000 0.92010  0.23350  0.14620  Biso   1.000  H
  C7       1.0000 0.89960  0.22070  0.09220  Biso   1.000  C
  C8       1.0000 0.90830  0.24180  0.05870  Biso   1.000  C
  C9       1.0000 0.90930  0.21280  0.02840  Biso   1.000  C
  C10      1.0000 0.91730  0.21690  0.98600  Biso   1.000  C
  H11      1.0000 0.93190  0.19440  0.97700  Biso   1.000  H
  H12      1.0000 0.93230  0.24050  0.98150  Biso   1.000  H
  H13      1.0000 0.89270  0.21850  0.97200  Biso   1.000  H
  C11      1.0000 0.90920  0.05200  0.16250  Biso   1.000  C
  H14      1.0000 0.93290  0.06220  0.17400  Biso   1.000  H
  H15      1.0000 0.90620  0.02470  0.16940  Biso   1.000  H
  H16      1.0000 0.88690  0.06660  0.17210  Biso   1.000  H
  C12      1.0000 0.91130  0.05580  0.11890  Biso   1.000  C
  C13      1.0000 0.92370  0.02730  0.09150  Biso   1.000  C
  C14      1.0000 0.91980  0.04590  0.05620  Biso   1.000  C
  C15      1.0000 0.92650  0.02820  0.01470  Biso   1.000  C
  H17      1.0000 0.90520  0.03590  0.99760  Biso   1.000  H
  H18      1.0000 0.92730  0.99990  0.01650  Biso   1.000  H
  H19      1.0000 0.95100  0.03770  0.00420  Biso   1.000  H
  C16      1.0000 0.00730  0.99910  0.12890  Biso   1.000  C
  H20      1.0000 0.02890  0.98210  0.13580  Biso   1.000  H
  H21      1.0000 0.99870  0.01320  0.15190  Biso   1.000  H
  H22      1.0000 0.01570  0.01750  0.10910  Biso   1.000  H
  C17      1.0000 0.97390  0.97480  0.11320  Biso   1.000  C
  C18      1.0000 0.93740  0.98690  0.09990  Biso   1.000  C
  C19      1.0000 0.91740  0.95240  0.09440  Biso   1.000  C
  C20      1.0000 0.87900  0.94620  0.07270  Biso   1.000  C
  H23      1.0000 0.87200  0.91880  0.07340  Biso   1.000  H
  H24      1.0000 0.88190  0.95450  0.04570  Biso   1.000  H
  H25      1.0000 0.85860  0.96150  0.08500  Biso   1.000  H
  C21      1.0000 0.91300  0.43550  0.96570  Biso   1.000  C
  C22      1.0000 0.90720  0.43910  0.92070  Biso   1.000  C
  C23      1.0000 0.93740  0.45510  0.89810  Biso   1.000  C
  H26      1.0000 0.96070  0.46350  0.90980  Biso   1.000  H
  C24      1.0000 0.93190  0.45820  0.85740  Biso   1.000  C
  H27      1.0000 0.95220  0.46890  0.84240  Biso   1.000  H
  C25      1.0000 0.89750  0.44620  0.83790  Biso   1.000  C
  C26      1.0000 0.86840  0.43050  0.86170  Biso   1.000  C
  H28      1.0000 0.84500  0.42210  0.85000  Biso   1.000  H
  C27      1.0000 0.87240  0.42660  0.90310  Biso   1.000  C
  H29      1.0000 0.85210  0.41590  0.91810  Biso   1.000  H
  C28      1.0000 0.88800  0.45200  0.79910  Biso   1.000  C
  C29      1.0000 0.89810  0.42340  0.77190  Biso   1.000  C
  H30      1.0000 0.90630  0.39930  0.78220  Biso   1.000  H
  C30      1.0000 0.89740  0.42640  0.73120  Biso   1.000  C
  H31      1.0000 0.90480  0.40520  0.71540  Biso   1.000  H
  C31      1.0000 0.88540  0.46160  0.71450  Biso   1.000  C
  C32      1.0000 0.87480  0.49170  0.73920  Biso   1.000  C
  H32      1.0000 0.86650  0.51590  0.72930  Biso   1.000  H
  C33      1.0000 0.87680  0.48500  0.77940  Biso   1.000  C
  H33      1.0000 0.86950  0.50620  0.79520  Biso   1.000  H
  C34      1.0000 0.88940  0.47160  0.67210  Biso   1.000  C
  O1       1.0000 0.89080  0.41590  0.98200  Biso   1.000  O
  O2       1.0000 0.94430  0.45620  0.98310  Biso   1.000  O
  O3       1.0000 0.87770  0.49990  0.65686  Biso   1.000  O
  O4       1.0000 0.90610  0.44900  0.65180  Biso   1.000  O
  Co3      1.0000 0.60385  0.87553  0.51996  Biso   1.000  Co
  Co4      1.0000 0.60915  0.59479  0.53688  Biso   1.000  Co
  N9       1.0000 0.59623  0.65046  0.54863  Biso   1.000  N
  N10      1.0000 0.56152  0.65593  0.56980  Biso   1.000  N
  N11      1.0000 0.60188  0.81795  0.58422  Biso   1.000  N
  N12      1.0000 0.59603  0.82329  0.54501  Biso   1.000  N
  N13      1.0000 0.59830  0.91100  0.59972  Biso   1.000  N
  N14      1.0000 0.59338  0.91678  0.55933  Biso   1.000  N
  N15      1.0000 0.52435  0.06445  0.61614  Biso   1.000  N
  N16      1.0000 0.55930  0.07680  0.60390  Biso   1.000  N
  H34      1.0000 0.56590  0.10120  0.60240  Biso   1.000  H
  C35      1.0000 0.64920  0.69160  0.51820  Biso   1.000  C
  H35      1.0000 0.67000  0.67800  0.53190  Biso   1.000  H
  H36      1.0000 0.65520  0.71920  0.51690  Biso   1.000  H
  H37      1.0000 0.64690  0.68120  0.49190  Biso   1.000  H
  C36      1.0000 0.61030  0.68560  0.54020  Biso   1.000  C
  C37      1.0000 0.58680  0.71580  0.55550  Biso   1.000  C
  C38      1.0000 0.55640  0.69560  0.57360  Biso   1.000  C
  C39      1.0000 0.51960  0.71210  0.59280  Biso   1.000  C
  H38      1.0000 0.50990  0.73380  0.57740  Biso   1.000  H
  H39      1.0000 0.52580  0.72110  0.61890  Biso   1.000  H
  H40      1.0000 0.49980  0.69190  0.59430  Biso   1.000  H
  C40      1.0000 0.60480  0.76480  0.63270  Biso   1.000  C
  H41      1.0000 0.62400  0.78050  0.64640  Biso   1.000  H
  H42      1.0000 0.61340  0.73780  0.63220  Biso   1.000  H
  H43      1.0000 0.57990  0.76650  0.64620  Biso   1.000  H
  C41      1.0000 0.60040  0.77930  0.59220  Biso   1.000  C
  C42      1.0000 0.59170  0.75820  0.55870  Biso   1.000  C
  C43      1.0000 0.59070  0.78720  0.52840  Biso   1.000  C
  C44      1.0000 0.58270  0.78310  0.48600  Biso   1.000  C
  H44      1.0000 0.56810  0.80560  0.47700  Biso   1.000  H
  H45      1.0000 0.56770  0.75950  0.48150  Biso   1.000  H
  H46      1.0000 0.60730  0.78150  0.47200  Biso   1.000  H
  C45      1.0000 0.59080  0.94800  0.66250  Biso   1.000  C
  H47      1.0000 0.56710  0.93780  0.67400  Biso   1.000  H
  H48      1.0000 0.59380  0.97530  0.66940  Biso   1.000  H
  H49      1.0000 0.61310  0.93340  0.67210  Biso   1.000  H
  C46      1.0000 0.58870  0.94420  0.61890  Biso   1.000  C
  C47      1.0000 0.57630  0.97270  0.59150  Biso   1.000  C
  C48      1.0000 0.58020  0.95410  0.55620  Biso   1.000  C
  C49      1.0000 0.57350  0.97180  0.51470  Biso   1.000  C
  H50      1.0000 0.59480  0.96410  0.49760  Biso   1.000  H
  H51      1.0000 0.57270  0.00010  0.51650  Biso   1.000  H
  H52      1.0000 0.54900  0.96230  0.50420  Biso   1.000  H
  C50      1.0000 0.49270  0.00090  0.62890  Biso   1.000  C
  H53      1.0000 0.47110  0.01790  0.63580  Biso   1.000  H
  H54      1.0000 0.50130  0.98680  0.65190  Biso   1.000  H
  H55      1.0000 0.48430  0.98250  0.60910  Biso   1.000  H
  C51      1.0000 0.52610  0.02520  0.61320  Biso   1.000  C
  C52      1.0000 0.56260  0.01310  0.59990  Biso   1.000  C
  C53      1.0000 0.58260  0.04760  0.59440  Biso   1.000  C
  C54      1.0000 0.62100  0.05380  0.57270  Biso   1.000  C
  H56      1.0000 0.62800  0.08120  0.57340  Biso   1.000  H
  H57      1.0000 0.61810  0.04550  0.54570  Biso   1.000  H
  H58      1.0000 0.64140  0.03850  0.58500  Biso   1.000  H
  C55      1.0000 0.58700  0.56450  0.46570  Biso   1.000  C
  C56      1.0000 0.59280  0.56090  0.42070  Biso   1.000  C
  C57      1.0000 0.56260  0.54490  0.39810  Biso   1.000  C
  H59      1.0000 0.53930  0.53650  0.40980  Biso   1.000  H
  C58      1.0000 0.56810  0.54180  0.35740  Biso   1.000  C
  H60      1.0000 0.54780  0.53110  0.34240  Biso   1.000  H
  C59      1.0000 0.60250  0.55380  0.33790  Biso   1.000  C
  C60      1.0000 0.63160  0.56950  0.36170  Biso   1.000  C
  H61      1.0000 0.65500  0.57790  0.35000  Biso   1.000  H
  C61      1.0000 0.62760  0.57340  0.40310  Biso   1.000  C
  H62      1.0000 0.64790  0.58410  0.41810  Biso   1.000  H
  C62      1.0000 0.61200  0.54800  0.29910  Biso   1.000  C
  C63      1.0000 0.60190  0.57660  0.27190  Biso   1.000  C
  H63      1.0000 0.59370  0.60070  0.28220  Biso   1.000  H
  C64      1.0000 0.60260  0.57360  0.23120  Biso   1.000  C
  H64      1.0000 0.59520  0.59480  0.21540  Biso   1.000  H
  C65      1.0000 0.61460  0.53840  0.21450  Biso   1.000  C
  C66      1.0000 0.62520  0.50830  0.23920  Biso   1.000  C
  H65      1.0000 0.63350  0.48410  0.22930  Biso   1.000  H
  C67      1.0000 0.62320  0.51500  0.27940  Biso   1.000  C
  H66      1.0000 0.63050  0.49380  0.29520  Biso   1.000  H
  C68      1.0000 0.61060  0.52840  0.17210  Biso   1.000  C
  O5       1.0000 0.60920  0.58410  0.48200  Biso   1.000  O
  O6       1.0000 0.55570  0.54380  0.48310  Biso   1.000  O
  O7       1.0000 0.62230  0.50010  0.15686  Biso   1.000  O
  O8       1.0000 0.59390  0.55100  0.15180  Biso   1.000  O
  Co5      1.0000 0.10385  0.62447  0.48004  Biso   1.000  Co
  Co6      1.0000 0.10915  0.90521  0.46312  Biso   1.000  Co
  N17      1.0000 0.09623  0.84954  0.45137  Biso   1.000  N
  N18      1.0000 0.06152  0.84407  0.43020  Biso   1.000  N
  N19      1.0000 0.10188  0.68205  0.41578  Biso   1.000  N
  N20      1.0000 0.09603  0.67671  0.45499  Biso   1.000  N
  N21      1.0000 0.09830  0.58900  0.40028  Biso   1.000  N
  N22      1.0000 0.09338  0.58322  0.44067  Biso   1.000  N
  N23      1.0000 0.02435  0.43555  0.38386  Biso   1.000  N
  N24      1.0000 0.05930  0.42320  0.39610  Biso   1.000  N
  H67      1.0000 0.06590  0.39880  0.39760  Biso   1.000  H
  C69      1.0000 0.14920  0.80840  0.48180  Biso   1.000  C
  H68      1.0000 0.17000  0.82200  0.46810  Biso   1.000  H
  H69      1.0000 0.15520  0.78080  0.48310  Biso   1.000  H
  H70      1.0000 0.14690  0.81880  0.50810  Biso   1.000  H
  C70      1.0000 0.11030  0.81440  0.45980  Biso   1.000  C
  C71      1.0000 0.08680  0.78420  0.44450  Biso   1.000  C
  C72      1.0000 0.05640  0.80440  0.42640  Biso   1.000  C
  C73      1.0000 0.01960  0.78790  0.40720  Biso   1.000  C
  H71      1.0000 0.00990  0.76620  0.42260  Biso   1.000  H
  H72      1.0000 0.02580  0.77890  0.38110  Biso   1.000  H
  H73      1.0000 0.99980  0.80810  0.40570  Biso   1.000  H
  C74      1.0000 0.10480  0.73520  0.36730  Biso   1.000  C
  H74      1.0000 0.12400  0.71950  0.35360  Biso   1.000  H
  H75      1.0000 0.11340  0.76220  0.36780  Biso   1.000  H
  H76      1.0000 0.07990  0.73350  0.35380  Biso   1.000  H
  C75      1.0000 0.10040  0.72070  0.40780  Biso   1.000  C
  C76      1.0000 0.09170  0.74180  0.44130  Biso   1.000  C
  C77      1.0000 0.09070  0.71280  0.47160  Biso   1.000  C
  C78      1.0000 0.08270  0.71690  0.51400  Biso   1.000  C
  H77      1.0000 0.06810  0.69440  0.52300  Biso   1.000  H
  H78      1.0000 0.06770  0.74050  0.51850  Biso   1.000  H
  H79      1.0000 0.10730  0.71850  0.52800  Biso   1.000  H
  C79      1.0000 0.09080  0.55200  0.33750  Biso   1.000  C
  H80      1.0000 0.06710  0.56220  0.32600  Biso   1.000  H
  H81      1.0000 0.09380  0.52470  0.33060  Biso   1.000  H
  H82      1.0000 0.11310  0.56660  0.32790  Biso   1.000  H
  C80      1.0000 0.08870  0.55580  0.38110  Biso   1.000  C
  C81      1.0000 0.07630  0.52730  0.40850  Biso   1.000  C
  C82      1.0000 0.08020  0.54590  0.44380  Biso   1.000  C
  C83      1.0000 0.07350  0.52820  0.48530  Biso   1.000  C
  H83      1.0000 0.09480  0.53590  0.50240  Biso   1.000  H
  H84      1.0000 0.07270  0.49990  0.48350  Biso   1.000  H
  H85      1.0000 0.04900  0.53770  0.49580  Biso   1.000  H
  C84      1.0000 0.99270  0.49910  0.37110  Biso   1.000  C
  H86      1.0000 0.97110  0.48210  0.36420  Biso   1.000  H
  H87      1.0000 0.00130  0.51320  0.34810  Biso   1.000  H
  H88      1.0000 0.98430  0.51750  0.39090  Biso   1.000  H
  C85      1.0000 0.02610  0.47480  0.38680  Biso   1.000  C
  C86      1.0000 0.06260  0.48690  0.40010  Biso   1.000  C
  C87      1.0000 0.08260  0.45240  0.40560  Biso   1.000  C
  C88      1.0000 0.12100  0.44620  0.42730  Biso   1.000  C
  H89      1.0000 0.12800  0.41880  0.42660  Biso   1.000  H
  H90      1.0000 0.11810  0.45450  0.45430  Biso   1.000  H
  H91      1.0000 0.14140  0.46150  0.41500  Biso   1.000  H
  C89      1.0000 0.08700  0.93550  0.53430  Biso   1.000  C
  C90      1.0000 0.09280  0.93910  0.57930  Biso   1.000  C
  C91      1.0000 0.06260  0.95510  0.60190  Biso   1.000  C
  H92      1.0000 0.03930  0.96350  0.59020  Biso   1.000  H
  C92      1.0000 0.06810  0.95820  0.64260  Biso   1.000  C
  H93      1.0000 0.04780  0.96890  0.65760  Biso   1.000  H
  C93      1.0000 0.10250  0.94620  0.66210  Biso   1.000  C
  C94      1.0000 0.13160  0.93050  0.63830  Biso   1.000  C
  H94      1.0000 0.15500  0.92210  0.65000  Biso   1.000  H
  C95      1.0000 0.12760  0.92660  0.59690  Biso   1.000  C
  H95      1.0000 0.14790  0.91590  0.58190  Biso   1.000  H
  C96      1.0000 0.11200  0.95200  0.70090  Biso   1.000  C
  C97      1.0000 0.10190  0.92340  0.72810  Biso   1.000  C
  H96      1.0000 0.09370  0.89930  0.71780  Biso   1.000  H
  C98      1.0000 0.10260  0.92640  0.76880  Biso   1.000  C
  H97      1.0000 0.09520  0.90520  0.78460  Biso   1.000  H
  C99      1.0000 0.11460  0.96160  0.78550  Biso   1.000  C
  C100     1.0000 0.12520  0.99170  0.76080  Biso   1.000  C
  H98      1.0000 0.13350  0.01590  0.77070  Biso   1.000  H
  C101     1.0000 0.12320  0.98500  0.72060  Biso   1.000  C
  H99      1.0000 0.13050  0.00620  0.70480  Biso   1.000  H
  C102     1.0000 0.11060  0.97160  0.82790  Biso   1.000  C
  O9       1.0000 0.10920  0.91590  0.51800  Biso   1.000  O
  O10      1.0000 0.05570  0.95620  0.51690  Biso   1.000  O
  O11      1.0000 0.12230  0.99990  0.84314  Biso   1.000  O
  O12      1.0000 0.09390  0.94900  0.84820  Biso   1.000  O
  Co7      1.0000 0.39615  0.37553  0.98004  Biso   1.000  Co
  Co8      1.0000 0.39085  0.09479  0.96312  Biso   1.000  Co
  N25      1.0000 0.40377  0.15046  0.95137  Biso   1.000  N
  N26      1.0000 0.43848  0.15593  0.93020  Biso   1.000  N
  N27      1.0000 0.39812  0.31795  0.91578  Biso   1.000  N
  N28      1.0000 0.40397  0.32329  0.95499  Biso   1.000  N
  N29      1.0000 0.40170  0.41100  0.90028  Biso   1.000  N
  N30      1.0000 0.40662  0.41678  0.94067  Biso   1.000  N
  N31      1.0000 0.47565  0.56445  0.88386  Biso   1.000  N
  N32      1.0000 0.44070  0.57680  0.89610  Biso   1.000  N
  H100     1.0000 0.43410  0.60120  0.89760  Biso   1.000  H
  C103     1.0000 0.35080  0.19160  0.98180  Biso   1.000  C
  H101     1.0000 0.33000  0.17800  0.96810  Biso   1.000  H
  H102     1.0000 0.34480  0.21920  0.98310  Biso   1.000  H
  H103     1.0000 0.35310  0.18120  0.00810  Biso   1.000  H
  C104     1.0000 0.38970  0.18560  0.95980  Biso   1.000  C
  C105     1.0000 0.41320  0.21580  0.94450  Biso   1.000  C
  C106     1.0000 0.44360  0.19560  0.92640  Biso   1.000  C
  C107     1.0000 0.48040  0.21210  0.90720  Biso   1.000  C
  H104     1.0000 0.49010  0.23380  0.92260  Biso   1.000  H
  H105     1.0000 0.47420  0.22110  0.88110  Biso   1.000  H
  H106     1.0000 0.50020  0.19190  0.90570  Biso   1.000  H
  C108     1.0000 0.39520  0.26480  0.86730  Biso   1.000  C
  H107     1.0000 0.37600  0.28050  0.85360  Biso   1.000  H
  H108     1.0000 0.38660  0.23780  0.86780  Biso   1.000  H
  H109     1.0000 0.42010  0.26650  0.85380  Biso   1.000  H
  C109     1.0000 0.39960  0.27930  0.90780  Biso   1.000  C
  C110     1.0000 0.40830  0.25820  0.94130  Biso   1.000  C
  C111     1.0000 0.40930  0.28720  0.97160  Biso   1.000  C
  C112     1.0000 0.41730  0.28310  0.01400  Biso   1.000  C
  H110     1.0000 0.43190  0.30560  0.02300  Biso   1.000  H
  H111     1.0000 0.43230  0.25950  0.01850  Biso   1.000  H
  H112     1.0000 0.39270  0.28150  0.02800  Biso   1.000  H
  C113     1.0000 0.40920  0.44800  0.83750  Biso   1.000  C
  H113     1.0000 0.43290  0.43780  0.82600  Biso   1.000  H
  H114     1.0000 0.40620  0.47530  0.83060  Biso   1.000  H
  H115     1.0000 0.38690  0.43340  0.82790  Biso   1.000  H
  C114     1.0000 0.41130  0.44420  0.88110  Biso   1.000  C
  C115     1.0000 0.42370  0.47270  0.90850  Biso   1.000  C
  C116     1.0000 0.41980  0.45410  0.94380  Biso   1.000  C
  C117     1.0000 0.42650  0.47180  0.98530  Biso   1.000  C
  H116     1.0000 0.40520  0.46410  0.00240  Biso   1.000  H
  H117     1.0000 0.42730  0.50010  0.98350  Biso   1.000  H
  H118     1.0000 0.45100  0.46230  0.99580  Biso   1.000  H
  C118     1.0000 0.50730  0.50090  0.87110  Biso   1.000  C
  H119     1.0000 0.52890  0.51790  0.86420  Biso   1.000  H
  H120     1.0000 0.49870  0.48680  0.84810  Biso   1.000  H
  H121     1.0000 0.51570  0.48250  0.89090  Biso   1.000  H
  C119     1.0000 0.47390  0.52520  0.88680  Biso   1.000  C
  C120     1.0000 0.43740  0.51310  0.90010  Biso   1.000  C
  C121     1.0000 0.41740  0.54760  0.90560  Biso   1.000  C
  C122     1.0000 0.37900  0.55380  0.92730  Biso   1.000  C
  H122     1.0000 0.37200  0.58120  0.92660  Biso   1.000  H
  H123     1.0000 0.38190  0.54550  0.95430  Biso   1.000  H
  H124     1.0000 0.35860  0.53850  0.91500  Biso   1.000  H
  C123     1.0000 0.41300  0.06450  0.03430  Biso   1.000  C
  C124     1.0000 0.40720  0.06090  0.07930  Biso   1.000  C
  C125     1.0000 0.43740  0.04490  0.10190  Biso   1.000  C
  H125     1.0000 0.46070  0.03650  0.09020  Biso   1.000  H
  C126     1.0000 0.43190  0.04180  0.14260  Biso   1.000  C
  H126     1.0000 0.45220  0.03110  0.15760  Biso   1.000  H
  C127     1.0000 0.39750  0.05380  0.16210  Biso   1.000  C
  C128     1.0000 0.36840  0.06950  0.13830  Biso   1.000  C
  H127     1.0000 0.34500  0.07790  0.15000  Biso   1.000  H
  C129     1.0000 0.37240  0.07340  0.09690  Biso   1.000  C
  H128     1.0000 0.35210  0.08410  0.08190  Biso   1.000  H
  C130     1.0000 0.38800  0.04800  0.20090  Biso   1.000  C
  C131     1.0000 0.39810  0.07660  0.22810  Biso   1.000  C
  H129     1.0000 0.40630  0.10070  0.21780  Biso   1.000  H
  C132     1.0000 0.39740  0.07360  0.26880  Biso   1.000  C
  H130     1.0000 0.40480  0.09480  0.28460  Biso   1.000  H
  C133     1.0000 0.38540  0.03840  0.28550  Biso   1.000  C
  C134     1.0000 0.37480  0.00830  0.26080  Biso   1.000  C
  H131     1.0000 0.36650  0.98410  0.27070  Biso   1.000  H
  C135     1.0000 0.37680  0.01500  0.22060  Biso   1.000  C
  H132     1.0000 0.36950  0.99380  0.20480  Biso   1.000  H
  C136     1.0000 0.38940  0.02840  0.32790  Biso   1.000  C
  O13      1.0000 0.39080  0.08410  0.01800  Biso   1.000  O
  O14      1.0000 0.44430  0.04380  0.01690  Biso   1.000  O
  O15      1.0000 0.37770  0.00010  0.34314  Biso   1.000  O
  O16      1.0000 0.40610  0.05100  0.34820  Biso   1.000  O
  Co9      1.0000 0.01996  0.89615  0.12447  Biso   1.000  Co
  Co10     1.0000 0.03688  0.89085  0.40521  Biso   1.000  Co
  N33      1.0000 0.04863  0.90377  0.34954  Biso   1.000  N
  N34      1.0000 0.06980  0.93848  0.34407  Biso   1.000  N
  N35      1.0000 0.08422  0.89812  0.18205  Biso   1.000  N
  N36      1.0000 0.04501  0.90397  0.17671  Biso   1.000  N
  N37      1.0000 0.09972  0.90170  0.08900  Biso   1.000  N
  N38      1.0000 0.05933  0.90662  0.08322  Biso   1.000  N
  N39      1.0000 0.11614  0.97565  0.93555  Biso   1.000  N
  N40      1.0000 0.10390  0.94070  0.92320  Biso   1.000  N
  H133     1.0000 0.10240  0.93410  0.89880  Biso   1.000  H
  C137     1.0000 0.01820  0.85080  0.30840  Biso   1.000  C
  H134     1.0000 0.03190  0.83000  0.32200  Biso   1.000  H
  H135     1.0000 0.01690  0.84480  0.28080  Biso   1.000  H
  H136     1.0000 0.99190  0.85310  0.31880  Biso   1.000  H
  C138     1.0000 0.04020  0.88970  0.31440  Biso   1.000  C
  C139     1.0000 0.05550  0.91320  0.28420  Biso   1.000  C
  C140     1.0000 0.07360  0.94360  0.30440  Biso   1.000  C
  C141     1.0000 0.09280  0.98040  0.28790  Biso   1.000  C
  H137     1.0000 0.07740  0.99010  0.26620  Biso   1.000  H
  H138     1.0000 0.11890  0.97420  0.27890  Biso   1.000  H
  H139     1.0000 0.09430  0.00020  0.30810  Biso   1.000  H
  C142     1.0000 0.13270  0.89520  0.23520  Biso   1.000  C
  H140     1.0000 0.14640  0.87600  0.21950  Biso   1.000  H
  H141     1.0000 0.13220  0.88660  0.26220  Biso   1.000  H
  H142     1.0000 0.14620  0.92010  0.23350  Biso   1.000  H
  C143     1.0000 0.09220  0.89960  0.22070  Biso   1.000  C
  C144     1.0000 0.05870  0.90830  0.24180  Biso   1.000  C
  C145     1.0000 0.02840  0.90930  0.21280  Biso   1.000  C
  C146     1.0000 0.98600  0.91730  0.21690  Biso   1.000  C
  H143     1.0000 0.97700  0.93190  0.19440  Biso   1.000  H
  H144     1.0000 0.98150  0.93230  0.24050  Biso   1.000  H
  H145     1.0000 0.97200  0.89270  0.21850  Biso   1.000  H
  C147     1.0000 0.16250  0.90920  0.05200  Biso   1.000  C
  H146     1.0000 0.17400  0.93290  0.06220  Biso   1.000  H
  H147     1.0000 0.16940  0.90620  0.02470  Biso   1.000  H
  H148     1.0000 0.17210  0.88690  0.06660  Biso   1.000  H
  C148     1.0000 0.11890  0.91130  0.05580  Biso   1.000  C
  C149     1.0000 0.09150  0.92370  0.02730  Biso   1.000  C
  C150     1.0000 0.05620  0.91980  0.04590  Biso   1.000  C
  C151     1.0000 0.01470  0.92650  0.02820  Biso   1.000  C
  H149     1.0000 0.99760  0.90520  0.03590  Biso   1.000  H
  H150     1.0000 0.01650  0.92730  0.99990  Biso   1.000  H
  H151     1.0000 0.00420  0.95100  0.03770  Biso   1.000  H
  C152     1.0000 0.12890  0.00730  0.99910  Biso   1.000  C
  H152     1.0000 0.13580  0.02890  0.98210  Biso   1.000  H
  H153     1.0000 0.15190  0.99870  0.01320  Biso   1.000  H
  H154     1.0000 0.10910  0.01570  0.01750  Biso   1.000  H
  C153     1.0000 0.11320  0.97390  0.97480  Biso   1.000  C
  C154     1.0000 0.09990  0.93740  0.98690  Biso   1.000  C
  C155     1.0000 0.09440  0.91740  0.95240  Biso   1.000  C
  C156     1.0000 0.07270  0.87900  0.94620  Biso   1.000  C
  H155     1.0000 0.07340  0.87200  0.91880  Biso   1.000  H
  H156     1.0000 0.04570  0.88190  0.95450  Biso   1.000  H
  H157     1.0000 0.08500  0.85860  0.96150  Biso   1.000  H
  C157     1.0000 0.96570  0.91300  0.43550  Biso   1.000  C
  C158     1.0000 0.92070  0.90720  0.43910  Biso   1.000  C
  C159     1.0000 0.89810  0.93740  0.45510  Biso   1.000  C
  H158     1.0000 0.90980  0.96070  0.46350  Biso   1.000  H
  C160     1.0000 0.85740  0.93190  0.45820  Biso   1.000  C
  H159     1.0000 0.84240  0.95220  0.46890  Biso   1.000  H
  C161     1.0000 0.83790  0.89750  0.44620  Biso   1.000  C
  C162     1.0000 0.86170  0.86840  0.43050  Biso   1.000  C
  H160     1.0000 0.85000  0.84500  0.42210  Biso   1.000  H
  C163     1.0000 0.90310  0.87240  0.42660  Biso   1.000  C
  H161     1.0000 0.91810  0.85210  0.41590  Biso   1.000  H
  C164     1.0000 0.79910  0.88800  0.45200  Biso   1.000  C
  C165     1.0000 0.77190  0.89810  0.42340  Biso   1.000  C
  H162     1.0000 0.78220  0.90630  0.39930  Biso   1.000  H
  C166     1.0000 0.73120  0.89740  0.42640  Biso   1.000  C
  H163     1.0000 0.71540  0.90480  0.40520  Biso   1.000  H
  C167     1.0000 0.71450  0.88540  0.46160  Biso   1.000  C
  C168     1.0000 0.73920  0.87480  0.49170  Biso   1.000  C
  H164     1.0000 0.72930  0.86650  0.51590  Biso   1.000  H
  C169     1.0000 0.77940  0.87680  0.48500  Biso   1.000  C
  H165     1.0000 0.79520  0.86950  0.50620  Biso   1.000  H
  C170     1.0000 0.67210  0.88940  0.47160  Biso   1.000  C
  O17      1.0000 0.98200  0.89080  0.41590  Biso   1.000  O
  O18      1.0000 0.98310  0.94430  0.45620  Biso   1.000  O
  O19      1.0000 0.65686  0.87770  0.49990  Biso   1.000  O
  O20      1.0000 0.65180  0.90610  0.44900  Biso   1.000  O
  Co11     1.0000 0.51996  0.60385  0.87553  Biso   1.000  Co
  Co12     1.0000 0.53688  0.60915  0.59479  Biso   1.000  Co
  N41      1.0000 0.54863  0.59623  0.65046  Biso   1.000  N
  N42      1.0000 0.56980  0.56152  0.65593  Biso   1.000  N
  N43      1.0000 0.58422  0.60188  0.81795  Biso   1.000  N
  N44      1.0000 0.54501  0.59603  0.82329  Biso   1.000  N
  N45      1.0000 0.59972  0.59830  0.91100  Biso   1.000  N
  N46      1.0000 0.55933  0.59338  0.91678  Biso   1.000  N
  N47      1.0000 0.61614  0.52435  0.06445  Biso   1.000  N
  N48      1.0000 0.60390  0.55930  0.07680  Biso   1.000  N
  H166     1.0000 0.60240  0.56590  0.10120  Biso   1.000  H
  C171     1.0000 0.51820  0.64920  0.69160  Biso   1.000  C
  H167     1.0000 0.53190  0.67000  0.67800  Biso   1.000  H
  H168     1.0000 0.51690  0.65520  0.71920  Biso   1.000  H
  H169     1.0000 0.49190  0.64690  0.68120  Biso   1.000  H
  C172     1.0000 0.54020  0.61030  0.68560  Biso   1.000  C
  C173     1.0000 0.55550  0.58680  0.71580  Biso   1.000  C
  C174     1.0000 0.57360  0.55640  0.69560  Biso   1.000  C
  C175     1.0000 0.59280  0.51960  0.71210  Biso   1.000  C
  H170     1.0000 0.57740  0.50990  0.73380  Biso   1.000  H
  H171     1.0000 0.61890  0.52580  0.72110  Biso   1.000  H
  H172     1.0000 0.59430  0.49980  0.69190  Biso   1.000  H
  C176     1.0000 0.63270  0.60480  0.76480  Biso   1.000  C
  H173     1.0000 0.64640  0.62400  0.78050  Biso   1.000  H
  H174     1.0000 0.63220  0.61340  0.73780  Biso   1.000  H
  H175     1.0000 0.64620  0.57990  0.76650  Biso   1.000  H
  C177     1.0000 0.59220  0.60040  0.77930  Biso   1.000  C
  C178     1.0000 0.55870  0.59170  0.75820  Biso   1.000  C
  C179     1.0000 0.52840  0.59070  0.78720  Biso   1.000  C
  C180     1.0000 0.48600  0.58270  0.78310  Biso   1.000  C
  H176     1.0000 0.47700  0.56810  0.80560  Biso   1.000  H
  H177     1.0000 0.48150  0.56770  0.75950  Biso   1.000  H
  H178     1.0000 0.47200  0.60730  0.78150  Biso   1.000  H
  C181     1.0000 0.66250  0.59080  0.94800  Biso   1.000  C
  H179     1.0000 0.67400  0.56710  0.93780  Biso   1.000  H
  H180     1.0000 0.66940  0.59380  0.97530  Biso   1.000  H
  H181     1.0000 0.67210  0.61310  0.93340  Biso   1.000  H
  C182     1.0000 0.61890  0.58870  0.94420  Biso   1.000  C
  C183     1.0000 0.59150  0.57630  0.97270  Biso   1.000  C
  C184     1.0000 0.55620  0.58020  0.95410  Biso   1.000  C
  C185     1.0000 0.51470  0.57350  0.97180  Biso   1.000  C
  H182     1.0000 0.49760  0.59480  0.96410  Biso   1.000  H
  H183     1.0000 0.51650  0.57270  0.00010  Biso   1.000  H
  H184     1.0000 0.50420  0.54900  0.96230  Biso   1.000  H
  C186     1.0000 0.62890  0.49270  0.00090  Biso   1.000  C
  H185     1.0000 0.63580  0.47110  0.01790  Biso   1.000  H
  H186     1.0000 0.65190  0.50130  0.98680  Biso   1.000  H
  H187     1.0000 0.60910  0.48430  0.98250  Biso   1.000  H
  C187     1.0000 0.61320  0.52610  0.02520  Biso   1.000  C
  C188     1.0000 0.59990  0.56260  0.01310  Biso   1.000  C
  C189     1.0000 0.59440  0.58260  0.04760  Biso   1.000  C
  C190     1.0000 0.57270  0.62100  0.05380  Biso   1.000  C
  H188     1.0000 0.57340  0.62800  0.08120  Biso   1.000  H
  H189     1.0000 0.54570  0.61810  0.04550  Biso   1.000  H
  H190     1.0000 0.58500  0.64140  0.03850  Biso   1.000  H
  C191     1.0000 0.46570  0.58700  0.56450  Biso   1.000  C
  C192     1.0000 0.42070  0.59280  0.56090  Biso   1.000  C
  C193     1.0000 0.39810  0.56260  0.54490  Biso   1.000  C
  H191     1.0000 0.40980  0.53930  0.53650  Biso   1.000  H
  C194     1.0000 0.35740  0.56810  0.54180  Biso   1.000  C
  H192     1.0000 0.34240  0.54780  0.53110  Biso   1.000  H
  C195     1.0000 0.33790  0.60250  0.55380  Biso   1.000  C
  C196     1.0000 0.36170  0.63160  0.56950  Biso   1.000  C
  H193     1.0000 0.35000  0.65500  0.57790  Biso   1.000  H
  C197     1.0000 0.40310  0.62760  0.57340  Biso   1.000  C
  H194     1.0000 0.41810  0.64790  0.58410  Biso   1.000  H
  C198     1.0000 0.29910  0.61200  0.54800  Biso   1.000  C
  C199     1.0000 0.27190  0.60190  0.57660  Biso   1.000  C
  H195     1.0000 0.28220  0.59370  0.60070  Biso   1.000  H
  C200     1.0000 0.23120  0.60260  0.57360  Biso   1.000  C
  H196     1.0000 0.21540  0.59520  0.59480  Biso   1.000  H
  C201     1.0000 0.21450  0.61460  0.53840  Biso   1.000  C
  C202     1.0000 0.23920  0.62520  0.50830  Biso   1.000  C
  H197     1.0000 0.22930  0.63350  0.48410  Biso   1.000  H
  C203     1.0000 0.27940  0.62320  0.51500  Biso   1.000  C
  H198     1.0000 0.29520  0.63050  0.49380  Biso   1.000  H
  C204     1.0000 0.17210  0.61060  0.52840  Biso   1.000  C
  O21      1.0000 0.48200  0.60920  0.58410  Biso   1.000  O
  O22      1.0000 0.48310  0.55570  0.54380  Biso   1.000  O
  O23      1.0000 0.15686  0.62230  0.50010  Biso   1.000  O
  O24      1.0000 0.15180  0.59390  0.55100  Biso   1.000  O
  Co13     1.0000 0.48004  0.10385  0.62447  Biso   1.000  Co
  Co14     1.0000 0.46312  0.10915  0.90521  Biso   1.000  Co
  N49      1.0000 0.45137  0.09623  0.84954  Biso   1.000  N
  N50      1.0000 0.43020  0.06152  0.84407  Biso   1.000  N
  N51      1.0000 0.41578  0.10188  0.68205  Biso   1.000  N
  N52      1.0000 0.45499  0.09603  0.67671  Biso   1.000  N
  N53      1.0000 0.40028  0.09830  0.58900  Biso   1.000  N
  N54      1.0000 0.44067  0.09338  0.58322  Biso   1.000  N
  N55      1.0000 0.38386  0.02435  0.43555  Biso   1.000  N
  N56      1.0000 0.39610  0.05930  0.42320  Biso   1.000  N
  H199     1.0000 0.39760  0.06590  0.39880  Biso   1.000  H
  C205     1.0000 0.48180  0.14920  0.80840  Biso   1.000  C
  H200     1.0000 0.46810  0.17000  0.82200  Biso   1.000  H
  H201     1.0000 0.48310  0.15520  0.78080  Biso   1.000  H
  H202     1.0000 0.50810  0.14690  0.81880  Biso   1.000  H
  C206     1.0000 0.45980  0.11030  0.81440  Biso   1.000  C
  C207     1.0000 0.44450  0.08680  0.78420  Biso   1.000  C
  C208     1.0000 0.42640  0.05640  0.80440  Biso   1.000  C
  C209     1.0000 0.40720  0.01960  0.78790  Biso   1.000  C
  H203     1.0000 0.42260  0.00990  0.76620  Biso   1.000  H
  H204     1.0000 0.38110  0.02580  0.77890  Biso   1.000  H
  H205     1.0000 0.40570  0.99980  0.80810  Biso   1.000  H
  C210     1.0000 0.36730  0.10480  0.73520  Biso   1.000  C
  H206     1.0000 0.35360  0.12400  0.71950  Biso   1.000  H
  H207     1.0000 0.36780  0.11340  0.76220  Biso   1.000  H
  H208     1.0000 0.35380  0.07990  0.73350  Biso   1.000  H
  C211     1.0000 0.40780  0.10040  0.72070  Biso   1.000  C
  C212     1.0000 0.44130  0.09170  0.74180  Biso   1.000  C
  C213     1.0000 0.47160  0.09070  0.71280  Biso   1.000  C
  C214     1.0000 0.51400  0.08270  0.71690  Biso   1.000  C
  H209     1.0000 0.52300  0.06810  0.69440  Biso   1.000  H
  H210     1.0000 0.51850  0.06770  0.74050  Biso   1.000  H
  H211     1.0000 0.52800  0.10730  0.71850  Biso   1.000  H
  C215     1.0000 0.33750  0.09080  0.55200  Biso   1.000  C
  H212     1.0000 0.32600  0.06710  0.56220  Biso   1.000  H
  H213     1.0000 0.33060  0.09380  0.52470  Biso   1.000  H
  H214     1.0000 0.32790  0.11310  0.56660  Biso   1.000  H
  C216     1.0000 0.38110  0.08870  0.55580  Biso   1.000  C
  C217     1.0000 0.40850  0.07630  0.52730  Biso   1.000  C
  C218     1.0000 0.44380  0.08020  0.54590  Biso   1.000  C
  C219     1.0000 0.48530  0.07350  0.52820  Biso   1.000  C
  H215     1.0000 0.50240  0.09480  0.53590  Biso   1.000  H
  H216     1.0000 0.48350  0.07270  0.49990  Biso   1.000  H
  H217     1.0000 0.49580  0.04900  0.53770  Biso   1.000  H
  C220     1.0000 0.37110  0.99270  0.49910  Biso   1.000  C
  H218     1.0000 0.36420  0.97110  0.48210  Biso   1.000  H
  H219     1.0000 0.34810  0.00130  0.51320  Biso   1.000  H
  H220     1.0000 0.39090  0.98430  0.51750  Biso   1.000  H
  C221     1.0000 0.38680  0.02610  0.47480  Biso   1.000  C
  C222     1.0000 0.40010  0.06260  0.48690  Biso   1.000  C
  C223     1.0000 0.40560  0.08260  0.45240  Biso   1.000  C
  C224     1.0000 0.42730  0.12100  0.44620  Biso   1.000  C
  H221     1.0000 0.42660  0.12800  0.41880  Biso   1.000  H
  H222     1.0000 0.45430  0.11810  0.45450  Biso   1.000  H
  H223     1.0000 0.41500  0.14140  0.46150  Biso   1.000  H
  C225     1.0000 0.53430  0.08700  0.93550  Biso   1.000  C
  C226     1.0000 0.57930  0.09280  0.93910  Biso   1.000  C
  C227     1.0000 0.60190  0.06260  0.95510  Biso   1.000  C
  H224     1.0000 0.59020  0.03930  0.96350  Biso   1.000  H
  C228     1.0000 0.64260  0.06810  0.95820  Biso   1.000  C
  H225     1.0000 0.65760  0.04780  0.96890  Biso   1.000  H
  C229     1.0000 0.66210  0.10250  0.94620  Biso   1.000  C
  C230     1.0000 0.63830  0.13160  0.93050  Biso   1.000  C
  H226     1.0000 0.65000  0.15500  0.92210  Biso   1.000  H
  C231     1.0000 0.59690  0.12760  0.92660  Biso   1.000  C
  H227     1.0000 0.58190  0.14790  0.91590  Biso   1.000  H
  C232     1.0000 0.70090  0.11200  0.95200  Biso   1.000  C
  C233     1.0000 0.72810  0.10190  0.92340  Biso   1.000  C
  H228     1.0000 0.71780  0.09370  0.89930  Biso   1.000  H
  C234     1.0000 0.76880  0.10260  0.92640  Biso   1.000  C
  H229     1.0000 0.78460  0.09520  0.90520  Biso   1.000  H
  C235     1.0000 0.78550  0.11460  0.96160  Biso   1.000  C
  C236     1.0000 0.76080  0.12520  0.99170  Biso   1.000  C
  H230     1.0000 0.77070  0.13350  0.01590  Biso   1.000  H
  C237     1.0000 0.72060  0.12320  0.98500  Biso   1.000  C
  H231     1.0000 0.70480  0.13050  0.00620  Biso   1.000  H
  C238     1.0000 0.82790  0.11060  0.97160  Biso   1.000  C
  O25      1.0000 0.51800  0.10920  0.91590  Biso   1.000  O
  O26      1.0000 0.51690  0.05570  0.95620  Biso   1.000  O
  O27      1.0000 0.84314  0.12230  0.99990  Biso   1.000  O
  O28      1.0000 0.84820  0.09390  0.94900  Biso   1.000  O
  Co15     1.0000 0.98004  0.39615  0.37553  Biso   1.000  Co
  Co16     1.0000 0.96312  0.39085  0.09479  Biso   1.000  Co
  N57      1.0000 0.95137  0.40377  0.15046  Biso   1.000  N
  N58      1.0000 0.93020  0.43848  0.15593  Biso   1.000  N
  N59      1.0000 0.91578  0.39812  0.31795  Biso   1.000  N
  N60      1.0000 0.95499  0.40397  0.32329  Biso   1.000  N
  N61      1.0000 0.90028  0.40170  0.41100  Biso   1.000  N
  N62      1.0000 0.94067  0.40662  0.41678  Biso   1.000  N
  N63      1.0000 0.88386  0.47565  0.56445  Biso   1.000  N
  N64      1.0000 0.89610  0.44070  0.57680  Biso   1.000  N
  H232     1.0000 0.89760  0.43410  0.60120  Biso   1.000  H
  C239     1.0000 0.98180  0.35080  0.19160  Biso   1.000  C
  H233     1.0000 0.96810  0.33000  0.17800  Biso   1.000  H
  H234     1.0000 0.98310  0.34480  0.21920  Biso   1.000  H
  H235     1.0000 0.00810  0.35310  0.18120  Biso   1.000  H
  C240     1.0000 0.95980  0.38970  0.18560  Biso   1.000  C
  C241     1.0000 0.94450  0.41320  0.21580  Biso   1.000  C
  C242     1.0000 0.92640  0.44360  0.19560  Biso   1.000  C
  C243     1.0000 0.90720  0.48040  0.21210  Biso   1.000  C
  H236     1.0000 0.92260  0.49010  0.23380  Biso   1.000  H
  H237     1.0000 0.88110  0.47420  0.22110  Biso   1.000  H
  H238     1.0000 0.90570  0.50020  0.19190  Biso   1.000  H
  C244     1.0000 0.86730  0.39520  0.26480  Biso   1.000  C
  H239     1.0000 0.85360  0.37600  0.28050  Biso   1.000  H
  H240     1.0000 0.86780  0.38660  0.23780  Biso   1.000  H
  H241     1.0000 0.85380  0.42010  0.26650  Biso   1.000  H
  C245     1.0000 0.90780  0.39960  0.27930  Biso   1.000  C
  C246     1.0000 0.94130  0.40830  0.25820  Biso   1.000  C
  C247     1.0000 0.97160  0.40930  0.28720  Biso   1.000  C
  C248     1.0000 0.01400  0.41730  0.28310  Biso   1.000  C
  H242     1.0000 0.02300  0.43190  0.30560  Biso   1.000  H
  H243     1.0000 0.01850  0.43230  0.25950  Biso   1.000  H
  H244     1.0000 0.02800  0.39270  0.28150  Biso   1.000  H
  C249     1.0000 0.83750  0.40920  0.44800  Biso   1.000  C
  H245     1.0000 0.82600  0.43290  0.43780  Biso   1.000  H
  H246     1.0000 0.83060  0.40620  0.47530  Biso   1.000  H
  H247     1.0000 0.82790  0.38690  0.43340  Biso   1.000  H
  C250     1.0000 0.88110  0.41130  0.44420  Biso   1.000  C
  C251     1.0000 0.90850  0.42370  0.47270  Biso   1.000  C
  C252     1.0000 0.94380  0.41980  0.45410  Biso   1.000  C
  C253     1.0000 0.98530  0.42650  0.47180  Biso   1.000  C
  H248     1.0000 0.00240  0.40520  0.46410  Biso   1.000  H
  H249     1.0000 0.98350  0.42730  0.50010  Biso   1.000  H
  H250     1.0000 0.99580  0.45100  0.46230  Biso   1.000  H
  C254     1.0000 0.87110  0.50730  0.50090  Biso   1.000  C
  H251     1.0000 0.86420  0.52890  0.51790  Biso   1.000  H
  H252     1.0000 0.84810  0.49870  0.48680  Biso   1.000  H
  H253     1.0000 0.89090  0.51570  0.48250  Biso   1.000  H
  C255     1.0000 0.88680  0.47390  0.52520  Biso   1.000  C
  C256     1.0000 0.90010  0.43740  0.51310  Biso   1.000  C
  C257     1.0000 0.90560  0.41740  0.54760  Biso   1.000  C
  C258     1.0000 0.92730  0.37900  0.55380  Biso   1.000  C
  H254     1.0000 0.92660  0.37200  0.58120  Biso   1.000  H
  H255     1.0000 0.95430  0.38190  0.54550  Biso   1.000  H
  H256     1.0000 0.91500  0.35860  0.53850  Biso   1.000  H
  C259     1.0000 0.03430  0.41300  0.06450  Biso   1.000  C
  C260     1.0000 0.07930  0.40720  0.06090  Biso   1.000  C
  C261     1.0000 0.10190  0.43740  0.04490  Biso   1.000  C
  H257     1.0000 0.09020  0.46070  0.03650  Biso   1.000  H
  C262     1.0000 0.14260  0.43190  0.04180  Biso   1.000  C
  H258     1.0000 0.15760  0.45220  0.03110  Biso   1.000  H
  C263     1.0000 0.16210  0.39750  0.05380  Biso   1.000  C
  C264     1.0000 0.13830  0.36840  0.06950  Biso   1.000  C
  H259     1.0000 0.15000  0.34500  0.07790  Biso   1.000  H
  C265     1.0000 0.09690  0.37240  0.07340  Biso   1.000  C
  H260     1.0000 0.08190  0.35210  0.08410  Biso   1.000  H
  C266     1.0000 0.20090  0.38800  0.04800  Biso   1.000  C
  C267     1.0000 0.22810  0.39810  0.07660  Biso   1.000  C
  H261     1.0000 0.21780  0.40630  0.10070  Biso   1.000  H
  C268     1.0000 0.26880  0.39740  0.07360  Biso   1.000  C
  H262     1.0000 0.28460  0.40480  0.09480  Biso   1.000  H
  C269     1.0000 0.28550  0.38540  0.03840  Biso   1.000  C
  C270     1.0000 0.26080  0.37480  0.00830  Biso   1.000  C
  H263     1.0000 0.27070  0.36650  0.98410  Biso   1.000  H
  C271     1.0000 0.22060  0.37680  0.01500  Biso   1.000  C
  H264     1.0000 0.20480  0.36950  0.99380  Biso   1.000  H
  C272     1.0000 0.32790  0.38940  0.02840  Biso   1.000  C
  O29      1.0000 0.01800  0.39080  0.08410  Biso   1.000  O
  O30      1.0000 0.01690  0.44430  0.04380  Biso   1.000  O
  O31      1.0000 0.34314  0.37770  0.00010  Biso   1.000  O
  O32      1.0000 0.34820  0.40610  0.05100  Biso   1.000  O
  Co17     1.0000 0.12447  0.01996  0.89615  Biso   1.000  Co
  Co18     1.0000 0.40521  0.03688  0.89085  Biso   1.000  Co
  N65      1.0000 0.34954  0.04863  0.90377  Biso   1.000  N
  N66      1.0000 0.34407  0.06980  0.93848  Biso   1.000  N
  N67      1.0000 0.18205  0.08422  0.89812  Biso   1.000  N
  N68      1.0000 0.17671  0.04501  0.90397  Biso   1.000  N
  N69      1.0000 0.08900  0.09972  0.90170  Biso   1.000  N
  N70      1.0000 0.08322  0.05933  0.90662  Biso   1.000  N
  N71      1.0000 0.93555  0.11614  0.97565  Biso   1.000  N
  N72      1.0000 0.92320  0.10390  0.94070  Biso   1.000  N
  H265     1.0000 0.89880  0.10240  0.93410  Biso   1.000  H
  C273     1.0000 0.30840  0.01820  0.85080  Biso   1.000  C
  H266     1.0000 0.32200  0.03190  0.83000  Biso   1.000  H
  H267     1.0000 0.28080  0.01690  0.84480  Biso   1.000  H
  H268     1.0000 0.31880  0.99190  0.85310  Biso   1.000  H
  C274     1.0000 0.31440  0.04020  0.88970  Biso   1.000  C
  C275     1.0000 0.28420  0.05550  0.91320  Biso   1.000  C
  C276     1.0000 0.30440  0.07360  0.94360  Biso   1.000  C
  C277     1.0000 0.28790  0.09280  0.98040  Biso   1.000  C
  H269     1.0000 0.26620  0.07740  0.99010  Biso   1.000  H
  H270     1.0000 0.27890  0.11890  0.97420  Biso   1.000  H
  H271     1.0000 0.30810  0.09430  0.00020  Biso   1.000  H
  C278     1.0000 0.23520  0.13270  0.89520  Biso   1.000  C
  H272     1.0000 0.21950  0.14640  0.87600  Biso   1.000  H
  H273     1.0000 0.26220  0.13220  0.88660  Biso   1.000  H
  H274     1.0000 0.23350  0.14620  0.92010  Biso   1.000  H
  C279     1.0000 0.22070  0.09220  0.89960  Biso   1.000  C
  C280     1.0000 0.24180  0.05870  0.90830  Biso   1.000  C
  C281     1.0000 0.21280  0.02840  0.90930  Biso   1.000  C
  C282     1.0000 0.21690  0.98600  0.91730  Biso   1.000  C
  H275     1.0000 0.19440  0.97700  0.93190  Biso   1.000  H
  H276     1.0000 0.24050  0.98150  0.93230  Biso   1.000  H
  H277     1.0000 0.21850  0.97200  0.89270  Biso   1.000  H
  C283     1.0000 0.05200  0.16250  0.90920  Biso   1.000  C
  H278     1.0000 0.06220  0.17400  0.93290  Biso   1.000  H
  H279     1.0000 0.02470  0.16940  0.90620  Biso   1.000  H
  H280     1.0000 0.06660  0.17210  0.88690  Biso   1.000  H
  C284     1.0000 0.05580  0.11890  0.91130  Biso   1.000  C
  C285     1.0000 0.02730  0.09150  0.92370  Biso   1.000  C
  C286     1.0000 0.04590  0.05620  0.91980  Biso   1.000  C
  C287     1.0000 0.02820  0.01470  0.92650  Biso   1.000  C
  H281     1.0000 0.03590  0.99760  0.90520  Biso   1.000  H
  H282     1.0000 0.99990  0.01650  0.92730  Biso   1.000  H
  H283     1.0000 0.03770  0.00420  0.95100  Biso   1.000  H
  C288     1.0000 0.99910  0.12890  0.00730  Biso   1.000  C
  H284     1.0000 0.98210  0.13580  0.02890  Biso   1.000  H
  H285     1.0000 0.01320  0.15190  0.99870  Biso   1.000  H
  H286     1.0000 0.01750  0.10910  0.01570  Biso   1.000  H
  C289     1.0000 0.97480  0.11320  0.97390  Biso   1.000  C
  C290     1.0000 0.98690  0.09990  0.93740  Biso   1.000  C
  C291     1.0000 0.95240  0.09440  0.91740  Biso   1.000  C
  C292     1.0000 0.94620  0.07270  0.87900  Biso   1.000  C
  H287     1.0000 0.91880  0.07340  0.87200  Biso   1.000  H
  H288     1.0000 0.95450  0.04570  0.88190  Biso   1.000  H
  H289     1.0000 0.96150  0.08500  0.85860  Biso   1.000  H
  C293     1.0000 0.43550  0.96570  0.91300  Biso   1.000  C
  C294     1.0000 0.43910  0.92070  0.90720  Biso   1.000  C
  C295     1.0000 0.45510  0.89810  0.93740  Biso   1.000  C
  H290     1.0000 0.46350  0.90980  0.96070  Biso   1.000  H
  C296     1.0000 0.45820  0.85740  0.93190  Biso   1.000  C
  H291     1.0000 0.46890  0.84240  0.95220  Biso   1.000  H
  C297     1.0000 0.44620  0.83790  0.89750  Biso   1.000  C
  C298     1.0000 0.43050  0.86170  0.86840  Biso   1.000  C
  H292     1.0000 0.42210  0.85000  0.84500  Biso   1.000  H
  C299     1.0000 0.42660  0.90310  0.87240  Biso   1.000  C
  H293     1.0000 0.41590  0.91810  0.85210  Biso   1.000  H
  C300     1.0000 0.45200  0.79910  0.88800  Biso   1.000  C
  C301     1.0000 0.42340  0.77190  0.89810  Biso   1.000  C
  H294     1.0000 0.39930  0.78220  0.90630  Biso   1.000  H
  C302     1.0000 0.42640  0.73120  0.89740  Biso   1.000  C
  H295     1.0000 0.40520  0.71540  0.90480  Biso   1.000  H
  C303     1.0000 0.46160  0.71450  0.88540  Biso   1.000  C
  C304     1.0000 0.49170  0.73920  0.87480  Biso   1.000  C
  H296     1.0000 0.51590  0.72930  0.86650  Biso   1.000  H
  C305     1.0000 0.48500  0.77940  0.87680  Biso   1.000  C
  H297     1.0000 0.50620  0.79520  0.86950  Biso   1.000  H
  C306     1.0000 0.47160  0.67210  0.88940  Biso   1.000  C
  O33      1.0000 0.41590  0.98200  0.89080  Biso   1.000  O
  O34      1.0000 0.45620  0.98310  0.94430  Biso   1.000  O
  O35      1.0000 0.49990  0.65686  0.87770  Biso   1.000  O
  O36      1.0000 0.44900  0.65180  0.90610  Biso   1.000  O
  Co19     1.0000 0.87553  0.51996  0.60385  Biso   1.000  Co
  Co20     1.0000 0.59479  0.53688  0.60915  Biso   1.000  Co
  N73      1.0000 0.65046  0.54863  0.59623  Biso   1.000  N
  N74      1.0000 0.65593  0.56980  0.56152  Biso   1.000  N
  N75      1.0000 0.81795  0.58422  0.60188  Biso   1.000  N
  N76      1.0000 0.82329  0.54501  0.59603  Biso   1.000  N
  N77      1.0000 0.91100  0.59972  0.59830  Biso   1.000  N
  N78      1.0000 0.91678  0.55933  0.59338  Biso   1.000  N
  N79      1.0000 0.06445  0.61614  0.52435  Biso   1.000  N
  N80      1.0000 0.07680  0.60390  0.55930  Biso   1.000  N
  H298     1.0000 0.10120  0.60240  0.56590  Biso   1.000  H
  C307     1.0000 0.69160  0.51820  0.64920  Biso   1.000  C
  H299     1.0000 0.67800  0.53190  0.67000  Biso   1.000  H
  H300     1.0000 0.71920  0.51690  0.65520  Biso   1.000  H
  H301     1.0000 0.68120  0.49190  0.64690  Biso   1.000  H
  C308     1.0000 0.68560  0.54020  0.61030  Biso   1.000  C
  C309     1.0000 0.71580  0.55550  0.58680  Biso   1.000  C
  C310     1.0000 0.69560  0.57360  0.55640  Biso   1.000  C
  C311     1.0000 0.71210  0.59280  0.51960  Biso   1.000  C
  H302     1.0000 0.73380  0.57740  0.50990  Biso   1.000  H
  H303     1.0000 0.72110  0.61890  0.52580  Biso   1.000  H
  H304     1.0000 0.69190  0.59430  0.49980  Biso   1.000  H
  C312     1.0000 0.76480  0.63270  0.60480  Biso   1.000  C
  H305     1.0000 0.78050  0.64640  0.62400  Biso   1.000  H
  H306     1.0000 0.73780  0.63220  0.61340  Biso   1.000  H
  H307     1.0000 0.76650  0.64620  0.57990  Biso   1.000  H
  C313     1.0000 0.77930  0.59220  0.60040  Biso   1.000  C
  C314     1.0000 0.75820  0.55870  0.59170  Biso   1.000  C
  C315     1.0000 0.78720  0.52840  0.59070  Biso   1.000  C
  C316     1.0000 0.78310  0.48600  0.58270  Biso   1.000  C
  H308     1.0000 0.80560  0.47700  0.56810  Biso   1.000  H
  H309     1.0000 0.75950  0.48150  0.56770  Biso   1.000  H
  H310     1.0000 0.78150  0.47200  0.60730  Biso   1.000  H
  C317     1.0000 0.94800  0.66250  0.59080  Biso   1.000  C
  H311     1.0000 0.93780  0.67400  0.56710  Biso   1.000  H
  H312     1.0000 0.97530  0.66940  0.59380  Biso   1.000  H
  H313     1.0000 0.93340  0.67210  0.61310  Biso   1.000  H
  C318     1.0000 0.94420  0.61890  0.58870  Biso   1.000  C
  C319     1.0000 0.97270  0.59150  0.57630  Biso   1.000  C
  C320     1.0000 0.95410  0.55620  0.58020  Biso   1.000  C
  C321     1.0000 0.97180  0.51470  0.57350  Biso   1.000  C
  H314     1.0000 0.96410  0.49760  0.59480  Biso   1.000  H
  H315     1.0000 0.00010  0.51650  0.57270  Biso   1.000  H
  H316     1.0000 0.96230  0.50420  0.54900  Biso   1.000  H
  C322     1.0000 0.00090  0.62890  0.49270  Biso   1.000  C
  H317     1.0000 0.01790  0.63580  0.47110  Biso   1.000  H
  H318     1.0000 0.98680  0.65190  0.50130  Biso   1.000  H
  H319     1.0000 0.98250  0.60910  0.48430  Biso   1.000  H
  C323     1.0000 0.02520  0.61320  0.52610  Biso   1.000  C
  C324     1.0000 0.01310  0.59990  0.56260  Biso   1.000  C
  C325     1.0000 0.04760  0.59440  0.58260  Biso   1.000  C
  C326     1.0000 0.05380  0.57270  0.62100  Biso   1.000  C
  H320     1.0000 0.08120  0.57340  0.62800  Biso   1.000  H
  H321     1.0000 0.04550  0.54570  0.61810  Biso   1.000  H
  H322     1.0000 0.03850  0.58500  0.64140  Biso   1.000  H
  C327     1.0000 0.56450  0.46570  0.58700  Biso   1.000  C
  C328     1.0000 0.56090  0.42070  0.59280  Biso   1.000  C
  C329     1.0000 0.54490  0.39810  0.56260  Biso   1.000  C
  H323     1.0000 0.53650  0.40980  0.53930  Biso   1.000  H
  C330     1.0000 0.54180  0.35740  0.56810  Biso   1.000  C
  H324     1.0000 0.53110  0.34240  0.54780  Biso   1.000  H
  C331     1.0000 0.55380  0.33790  0.60250  Biso   1.000  C
  C332     1.0000 0.56950  0.36170  0.63160  Biso   1.000  C
  H325     1.0000 0.57790  0.35000  0.65500  Biso   1.000  H
  C333     1.0000 0.57340  0.40310  0.62760  Biso   1.000  C
  H326     1.0000 0.58410  0.41810  0.64790  Biso   1.000  H
  C334     1.0000 0.54800  0.29910  0.61200  Biso   1.000  C
  C335     1.0000 0.57660  0.27190  0.60190  Biso   1.000  C
  H327     1.0000 0.60070  0.28220  0.59370  Biso   1.000  H
  C336     1.0000 0.57360  0.23120  0.60260  Biso   1.000  C
  H328     1.0000 0.59480  0.21540  0.59520  Biso   1.000  H
  C337     1.0000 0.53840  0.21450  0.61460  Biso   1.000  C
  C338     1.0000 0.50830  0.23920  0.62520  Biso   1.000  C
  H329     1.0000 0.48410  0.22930  0.63350  Biso   1.000  H
  C339     1.0000 0.51500  0.27940  0.62320  Biso   1.000  C
  H330     1.0000 0.49380  0.29520  0.63050  Biso   1.000  H
  C340     1.0000 0.52840  0.17210  0.61060  Biso   1.000  C
  O37      1.0000 0.58410  0.48200  0.60920  Biso   1.000  O
  O38      1.0000 0.54380  0.48310  0.55570  Biso   1.000  O
  O39      1.0000 0.50010  0.15686  0.62230  Biso   1.000  O
  O40      1.0000 0.55100  0.15180  0.59390  Biso   1.000  O
  Co21     1.0000 0.62447  0.48004  0.10385  Biso   1.000  Co
  Co22     1.0000 0.90521  0.46312  0.10915  Biso   1.000  Co
  N81      1.0000 0.84954  0.45137  0.09623  Biso   1.000  N
  N82      1.0000 0.84407  0.43020  0.06152  Biso   1.000  N
  N83      1.0000 0.68205  0.41578  0.10188  Biso   1.000  N
  N84      1.0000 0.67671  0.45499  0.09603  Biso   1.000  N
  N85      1.0000 0.58900  0.40028  0.09830  Biso   1.000  N
  N86      1.0000 0.58322  0.44067  0.09338  Biso   1.000  N
  N87      1.0000 0.43555  0.38386  0.02435  Biso   1.000  N
  N88      1.0000 0.42320  0.39610  0.05930  Biso   1.000  N
  H331     1.0000 0.39880  0.39760  0.06590  Biso   1.000  H
  C341     1.0000 0.80840  0.48180  0.14920  Biso   1.000  C
  H332     1.0000 0.82200  0.46810  0.17000  Biso   1.000  H
  H333     1.0000 0.78080  0.48310  0.15520  Biso   1.000  H
  H334     1.0000 0.81880  0.50810  0.14690  Biso   1.000  H
  C342     1.0000 0.81440  0.45980  0.11030  Biso   1.000  C
  C343     1.0000 0.78420  0.44450  0.08680  Biso   1.000  C
  C344     1.0000 0.80440  0.42640  0.05640  Biso   1.000  C
  C345     1.0000 0.78790  0.40720  0.01960  Biso   1.000  C
  H335     1.0000 0.76620  0.42260  0.00990  Biso   1.000  H
  H336     1.0000 0.77890  0.38110  0.02580  Biso   1.000  H
  H337     1.0000 0.80810  0.40570  0.99980  Biso   1.000  H
  C346     1.0000 0.73520  0.36730  0.10480  Biso   1.000  C
  H338     1.0000 0.71950  0.35360  0.12400  Biso   1.000  H
  H339     1.0000 0.76220  0.36780  0.11340  Biso   1.000  H
  H340     1.0000 0.73350  0.35380  0.07990  Biso   1.000  H
  C347     1.0000 0.72070  0.40780  0.10040  Biso   1.000  C
  C348     1.0000 0.74180  0.44130  0.09170  Biso   1.000  C
  C349     1.0000 0.71280  0.47160  0.09070  Biso   1.000  C
  C350     1.0000 0.71690  0.51400  0.08270  Biso   1.000  C
  H341     1.0000 0.69440  0.52300  0.06810  Biso   1.000  H
  H342     1.0000 0.74050  0.51850  0.06770  Biso   1.000  H
  H343     1.0000 0.71850  0.52800  0.10730  Biso   1.000  H
  C351     1.0000 0.55200  0.33750  0.09080  Biso   1.000  C
  H344     1.0000 0.56220  0.32600  0.06710  Biso   1.000  H
  H345     1.0000 0.52470  0.33060  0.09380  Biso   1.000  H
  H346     1.0000 0.56660  0.32790  0.11310  Biso   1.000  H
  C352     1.0000 0.55580  0.38110  0.08870  Biso   1.000  C
  C353     1.0000 0.52730  0.40850  0.07630  Biso   1.000  C
  C354     1.0000 0.54590  0.44380  0.08020  Biso   1.000  C
  C355     1.0000 0.52820  0.48530  0.07350  Biso   1.000  C
  H347     1.0000 0.53590  0.50240  0.09480  Biso   1.000  H
  H348     1.0000 0.49990  0.48350  0.07270  Biso   1.000  H
  H349     1.0000 0.53770  0.49580  0.04900  Biso   1.000  H
  C356     1.0000 0.49910  0.37110  0.99270  Biso   1.000  C
  H350     1.0000 0.48210  0.36420  0.97110  Biso   1.000  H
  H351     1.0000 0.51320  0.34810  0.00130  Biso   1.000  H
  H352     1.0000 0.51750  0.39090  0.98430  Biso   1.000  H
  C357     1.0000 0.47480  0.38680  0.02610  Biso   1.000  C
  C358     1.0000 0.48690  0.40010  0.06260  Biso   1.000  C
  C359     1.0000 0.45240  0.40560  0.08260  Biso   1.000  C
  C360     1.0000 0.44620  0.42730  0.12100  Biso   1.000  C
  H353     1.0000 0.41880  0.42660  0.12800  Biso   1.000  H
  H354     1.0000 0.45450  0.45430  0.11810  Biso   1.000  H
  H355     1.0000 0.46150  0.41500  0.14140  Biso   1.000  H
  C361     1.0000 0.93550  0.53430  0.08700  Biso   1.000  C
  C362     1.0000 0.93910  0.57930  0.09280  Biso   1.000  C
  C363     1.0000 0.95510  0.60190  0.06260  Biso   1.000  C
  H356     1.0000 0.96350  0.59020  0.03930  Biso   1.000  H
  C364     1.0000 0.95820  0.64260  0.06810  Biso   1.000  C
  H357     1.0000 0.96890  0.65760  0.04780  Biso   1.000  H
  C365     1.0000 0.94620  0.66210  0.10250  Biso   1.000  C
  C366     1.0000 0.93050  0.63830  0.13160  Biso   1.000  C
  H358     1.0000 0.92210  0.65000  0.15500  Biso   1.000  H
  C367     1.0000 0.92660  0.59690  0.12760  Biso   1.000  C
  H359     1.0000 0.91590  0.58190  0.14790  Biso   1.000  H
  C368     1.0000 0.95200  0.70090  0.11200  Biso   1.000  C
  C369     1.0000 0.92340  0.72810  0.10190  Biso   1.000  C
  H360     1.0000 0.89930  0.71780  0.09370  Biso   1.000  H
  C370     1.0000 0.92640  0.76880  0.10260  Biso   1.000  C
  H361     1.0000 0.90520  0.78460  0.09520  Biso   1.000  H
  C371     1.0000 0.96160  0.78550  0.11460  Biso   1.000  C
  C372     1.0000 0.99170  0.76080  0.12520  Biso   1.000  C
  H362     1.0000 0.01590  0.77070  0.13350  Biso   1.000  H
  C373     1.0000 0.98500  0.72060  0.12320  Biso   1.000  C
  H363     1.0000 0.00620  0.70480  0.13050  Biso   1.000  H
  C374     1.0000 0.97160  0.82790  0.11060  Biso   1.000  C
  O41      1.0000 0.91590  0.51800  0.10920  Biso   1.000  O
  O42      1.0000 0.95620  0.51690  0.05570  Biso   1.000  O
  O43      1.0000 0.99990  0.84314  0.12230  Biso   1.000  O
  O44      1.0000 0.94900  0.84820  0.09390  Biso   1.000  O
  Co23     1.0000 0.37553  0.98004  0.39615  Biso   1.000  Co
  Co24     1.0000 0.09479  0.96312  0.39085  Biso   1.000  Co
  N89      1.0000 0.15046  0.95137  0.40377  Biso   1.000  N
  N90      1.0000 0.15593  0.93020  0.43848  Biso   1.000  N
  N91      1.0000 0.31795  0.91578  0.39812  Biso   1.000  N
  N92      1.0000 0.32329  0.95499  0.40397  Biso   1.000  N
  N93      1.0000 0.41100  0.90028  0.40170  Biso   1.000  N
  N94      1.0000 0.41678  0.94067  0.40662  Biso   1.000  N
  N95      1.0000 0.56445  0.88386  0.47565  Biso   1.000  N
  N96      1.0000 0.57680  0.89610  0.44070  Biso   1.000  N
  H364     1.0000 0.60120  0.89760  0.43410  Biso   1.000  H
  C375     1.0000 0.19160  0.98180  0.35080  Biso   1.000  C
  H365     1.0000 0.17800  0.96810  0.33000  Biso   1.000  H
  H366     1.0000 0.21920  0.98310  0.34480  Biso   1.000  H
  H367     1.0000 0.18120  0.00810  0.35310  Biso   1.000  H
  C376     1.0000 0.18560  0.95980  0.38970  Biso   1.000  C
  C377     1.0000 0.21580  0.94450  0.41320  Biso   1.000  C
  C378     1.0000 0.19560  0.92640  0.44360  Biso   1.000  C
  C379     1.0000 0.21210  0.90720  0.48040  Biso   1.000  C
  H368     1.0000 0.23380  0.92260  0.49010  Biso   1.000  H
  H369     1.0000 0.22110  0.88110  0.47420  Biso   1.000  H
  H370     1.0000 0.19190  0.90570  0.50020  Biso   1.000  H
  C380     1.0000 0.26480  0.86730  0.39520  Biso   1.000  C
  H371     1.0000 0.28050  0.85360  0.37600  Biso   1.000  H
  H372     1.0000 0.23780  0.86780  0.38660  Biso   1.000  H
  H373     1.0000 0.26650  0.85380  0.42010  Biso   1.000  H
  C381     1.0000 0.27930  0.90780  0.39960  Biso   1.000  C
  C382     1.0000 0.25820  0.94130  0.40830  Biso   1.000  C
  C383     1.0000 0.28720  0.97160  0.40930  Biso   1.000  C
  C384     1.0000 0.28310  0.01400  0.41730  Biso   1.000  C
  H374     1.0000 0.30560  0.02300  0.43190  Biso   1.000  H
  H375     1.0000 0.25950  0.01850  0.43230  Biso   1.000  H
  H376     1.0000 0.28150  0.02800  0.39270  Biso   1.000  H
  C385     1.0000 0.44800  0.83750  0.40920  Biso   1.000  C
  H377     1.0000 0.43780  0.82600  0.43290  Biso   1.000  H
  H378     1.0000 0.47530  0.83060  0.40620  Biso   1.000  H
  H379     1.0000 0.43340  0.82790  0.38690  Biso   1.000  H
  C386     1.0000 0.44420  0.88110  0.41130  Biso   1.000  C
  C387     1.0000 0.47270  0.90850  0.42370  Biso   1.000  C
  C388     1.0000 0.45410  0.94380  0.41980  Biso   1.000  C
  C389     1.0000 0.47180  0.98530  0.42650  Biso   1.000  C
  H380     1.0000 0.46410  0.00240  0.40520  Biso   1.000  H
  H381     1.0000 0.50010  0.98350  0.42730  Biso   1.000  H
  H382     1.0000 0.46230  0.99580  0.45100  Biso   1.000  H
  C390     1.0000 0.50090  0.87110  0.50730  Biso   1.000  C
  H383     1.0000 0.51790  0.86420  0.52890  Biso   1.000  H
  H384     1.0000 0.48680  0.84810  0.49870  Biso   1.000  H
  H385     1.0000 0.48250  0.89090  0.51570  Biso   1.000  H
  C391     1.0000 0.52520  0.88680  0.47390  Biso   1.000  C
  C392     1.0000 0.51310  0.90010  0.43740  Biso   1.000  C
  C393     1.0000 0.54760  0.90560  0.41740  Biso   1.000  C
  C394     1.0000 0.55380  0.92730  0.37900  Biso   1.000  C
  H386     1.0000 0.58120  0.92660  0.37200  Biso   1.000  H
  H387     1.0000 0.54550  0.95430  0.38190  Biso   1.000  H
  H388     1.0000 0.53850  0.91500  0.35860  Biso   1.000  H
  C395     1.0000 0.06450  0.03430  0.41300  Biso   1.000  C
  C396     1.0000 0.06090  0.07930  0.40720  Biso   1.000  C
  C397     1.0000 0.04490  0.10190  0.43740  Biso   1.000  C
  H389     1.0000 0.03650  0.09020  0.46070  Biso   1.000  H
  C398     1.0000 0.04180  0.14260  0.43190  Biso   1.000  C
  H390     1.0000 0.03110  0.15760  0.45220  Biso   1.000  H
  C399     1.0000 0.05380  0.16210  0.39750  Biso   1.000  C
  C400     1.0000 0.06950  0.13830  0.36840  Biso   1.000  C
  H391     1.0000 0.07790  0.15000  0.34500  Biso   1.000  H
  C401     1.0000 0.07340  0.09690  0.37240  Biso   1.000  C
  H392     1.0000 0.08410  0.08190  0.35210  Biso   1.000  H
  C402     1.0000 0.04800  0.20090  0.38800  Biso   1.000  C
  C403     1.0000 0.07660  0.22810  0.39810  Biso   1.000  C
  H393     1.0000 0.10070  0.21780  0.40630  Biso   1.000  H
  C404     1.0000 0.07360  0.26880  0.39740  Biso   1.000  C
  H394     1.0000 0.09480  0.28460  0.40480  Biso   1.000  H
  C405     1.0000 0.03840  0.28550  0.38540  Biso   1.000  C
  C406     1.0000 0.00830  0.26080  0.37480  Biso   1.000  C
  H395     1.0000 0.98410  0.27070  0.36650  Biso   1.000  H
  C407     1.0000 0.01500  0.22060  0.37680  Biso   1.000  C
  H396     1.0000 0.99380  0.20480  0.36950  Biso   1.000  H
  C408     1.0000 0.02840  0.32790  0.38940  Biso   1.000  C
  O45      1.0000 0.08410  0.01800  0.39080  Biso   1.000  O
  O46      1.0000 0.04380  0.01690  0.44430  Biso   1.000  O
  O47      1.0000 0.00010  0.34314  0.37770  Biso   1.000  O
  O48      1.0000 0.05100  0.34820  0.40610  Biso   1.000  O
  Co25     1.0000 0.87447  0.14615  0.23004  Biso   1.000  Co
  Co26     1.0000 0.15521  0.14085  0.21312  Biso   1.000  Co
  N97      1.0000 0.09954  0.15377  0.20137  Biso   1.000  N
  N98      1.0000 0.09407  0.18848  0.18020  Biso   1.000  N
  N99      1.0000 0.93205  0.14812  0.16578  Biso   1.000  N
  N100     1.0000 0.92671  0.15397  0.20499  Biso   1.000  N
  N101     1.0000 0.83900  0.15170  0.15028  Biso   1.000  N
  N102     1.0000 0.83322  0.15662  0.19067  Biso   1.000  N
  N103     1.0000 0.68555  0.22565  0.13386  Biso   1.000  N
  N104     1.0000 0.67320  0.19070  0.14610  Biso   1.000  N
  H397     1.0000 0.64880  0.18410  0.14760  Biso   1.000  H
  C409     1.0000 0.05840  0.10080  0.23180  Biso   1.000  C
  H398     1.0000 0.07200  0.08000  0.21810  Biso   1.000  H
  H399     1.0000 0.03080  0.09480  0.23310  Biso   1.000  H
  H400     1.0000 0.06880  0.10310  0.25810  Biso   1.000  H
  C410     1.0000 0.06440  0.13970  0.20980  Biso   1.000  C
  C411     1.0000 0.03420  0.16320  0.19450  Biso   1.000  C
  C412     1.0000 0.05440  0.19360  0.17640  Biso   1.000  C
  C413     1.0000 0.03790  0.23040  0.15720  Biso   1.000  C
  H401     1.0000 0.01620  0.24010  0.17260  Biso   1.000  H
  H402     1.0000 0.02890  0.22420  0.13110  Biso   1.000  H
  H403     1.0000 0.05810  0.25020  0.15570  Biso   1.000  H
  C414     1.0000 0.98520  0.14520  0.11730  Biso   1.000  C
  H404     1.0000 0.96950  0.12600  0.10360  Biso   1.000  H
  H405     1.0000 0.01220  0.13660  0.11780  Biso   1.000  H
  H406     1.0000 0.98350  0.17010  0.10380  Biso   1.000  H
  C415     1.0000 0.97070  0.14960  0.15780  Biso   1.000  C
  C416     1.0000 0.99180  0.15830  0.19130  Biso   1.000  C
  C417     1.0000 0.96280  0.15930  0.22160  Biso   1.000  C
  C418     1.0000 0.96690  0.16730  0.26400  Biso   1.000  C
  H407     1.0000 0.94440  0.18190  0.27300  Biso   1.000  H
  H408     1.0000 0.99050  0.18230  0.26850  Biso   1.000  H
  H409     1.0000 0.96850  0.14270  0.27800  Biso   1.000  H
  C419     1.0000 0.80200  0.15920  0.08750  Biso   1.000  C
  H410     1.0000 0.81220  0.18290  0.07600  Biso   1.000  H
  H411     1.0000 0.77470  0.15620  0.08060  Biso   1.000  H
  H412     1.0000 0.81660  0.13690  0.07790  Biso   1.000  H
  C420     1.0000 0.80580  0.16130  0.13110  Biso   1.000  C
  C421     1.0000 0.77730  0.17370  0.15850  Biso   1.000  C
  C422     1.0000 0.79590  0.16980  0.19380  Biso   1.000  C
  C423     1.0000 0.77820  0.17650  0.23530  Biso   1.000  C
  H413     1.0000 0.78590  0.15520  0.25240  Biso   1.000  H
  H414     1.0000 0.74990  0.17730  0.23350  Biso   1.000  H
  H415     1.0000 0.78770  0.20100  0.24580  Biso   1.000  H
  C424     1.0000 0.74910  0.25730  0.12110  Biso   1.000  C
  H416     1.0000 0.73210  0.27890  0.11420  Biso   1.000  H
  H417     1.0000 0.76320  0.24870  0.09810  Biso   1.000  H
  H418     1.0000 0.76750  0.26570  0.14090  Biso   1.000  H
  C425     1.0000 0.72480  0.22390  0.13680  Biso   1.000  C
  C426     1.0000 0.73690  0.18740  0.15010  Biso   1.000  C
  C427     1.0000 0.70240  0.16740  0.15560  Biso   1.000  C
  C428     1.0000 0.69620  0.12900  0.17730  Biso   1.000  C
  H419     1.0000 0.66880  0.12200  0.17660  Biso   1.000  H
  H420     1.0000 0.70450  0.13190  0.20430  Biso   1.000  H
  H421     1.0000 0.71150  0.10860  0.16500  Biso   1.000  H
  C429     1.0000 0.18550  0.16300  0.28430  Biso   1.000  C
  C430     1.0000 0.18910  0.15720  0.32930  Biso   1.000  C
  C431     1.0000 0.20510  0.18740  0.35190  Biso   1.000  C
  H422     1.0000 0.21350  0.21070  0.34020  Biso   1.000  H
  C432     1.0000 0.20820  0.18190  0.39260  Biso   1.000  C
  H423     1.0000 0.21890  0.20220  0.40760  Biso   1.000  H
  C433     1.0000 0.19620  0.14750  0.41210  Biso   1.000  C
  C434     1.0000 0.18050  0.11840  0.38830  Biso   1.000  C
  H424     1.0000 0.17210  0.09500  0.40000  Biso   1.000  H
  C435     1.0000 0.17660  0.12240  0.34690  Biso   1.000  C
  H425     1.0000 0.16590  0.10210  0.33190  Biso   1.000  H
  C436     1.0000 0.20200  0.13800  0.45090  Biso   1.000  C
  C437     1.0000 0.17340  0.14810  0.47810  Biso   1.000  C
  H426     1.0000 0.14930  0.15630  0.46780  Biso   1.000  H
  C438     1.0000 0.17640  0.14740  0.51880  Biso   1.000  C
  H427     1.0000 0.15520  0.15480  0.53460  Biso   1.000  H
  C439     1.0000 0.21160  0.13540  0.53550  Biso   1.000  C
  C440     1.0000 0.24170  0.12480  0.51080  Biso   1.000  C
  H428     1.0000 0.26590  0.11650  0.52070  Biso   1.000  H
  C441     1.0000 0.23500  0.12680  0.47060  Biso   1.000  C
  H429     1.0000 0.25620  0.11950  0.45480  Biso   1.000  H
  C442     1.0000 0.22160  0.13940  0.57790  Biso   1.000  C
  O49      1.0000 0.16590  0.14080  0.26800  Biso   1.000  O
  O50      1.0000 0.20620  0.19430  0.26690  Biso   1.000  O
  O51      1.0000 0.24990  0.12770  0.59314  Biso   1.000  O
  O52      1.0000 0.19900  0.15610  0.59820  Biso   1.000  O
  Co27     1.0000 0.62553  0.85385  0.73004  Biso   1.000  Co
  Co28     1.0000 0.34479  0.85915  0.71312  Biso   1.000  Co
  N105     1.0000 0.40046  0.84623  0.70137  Biso   1.000  N
  N106     1.0000 0.40593  0.81152  0.68020  Biso   1.000  N
  N107     1.0000 0.56795  0.85188  0.66578  Biso   1.000  N
  N108     1.0000 0.57329  0.84603  0.70499  Biso   1.000  N
  N109     1.0000 0.66100  0.84830  0.65028  Biso   1.000  N
  N110     1.0000 0.66678  0.84338  0.69067  Biso   1.000  N
  N111     1.0000 0.81445  0.77435  0.63386  Biso   1.000  N
  N112     1.0000 0.82680  0.80930  0.64610  Biso   1.000  N
  H430     1.0000 0.85120  0.81590  0.64760  Biso   1.000  H
  C443     1.0000 0.44160  0.89920  0.73180  Biso   1.000  C
  H431     1.0000 0.42800  0.92000  0.71810  Biso   1.000  H
  H432     1.0000 0.46920  0.90520  0.73310  Biso   1.000  H
  H433     1.0000 0.43120  0.89690  0.75810  Biso   1.000  H
  C444     1.0000 0.43560  0.86030  0.70980  Biso   1.000  C
  C445     1.0000 0.46580  0.83680  0.69450  Biso   1.000  C
  C446     1.0000 0.44560  0.80640  0.67640  Biso   1.000  C
  C447     1.0000 0.46210  0.76960  0.65720  Biso   1.000  C
  H434     1.0000 0.48380  0.75990  0.67260  Biso   1.000  H
  H435     1.0000 0.47110  0.77580  0.63110  Biso   1.000  H
  H436     1.0000 0.44190  0.74980  0.65570  Biso   1.000  H
  C448     1.0000 0.51480  0.85480  0.61730  Biso   1.000  C
  H437     1.0000 0.53050  0.87400  0.60360  Biso   1.000  H
  H438     1.0000 0.48780  0.86340  0.61780  Biso   1.000  H
  H439     1.0000 0.51650  0.82990  0.60380  Biso   1.000  H
  C449     1.0000 0.52930  0.85040  0.65780  Biso   1.000  C
  C450     1.0000 0.50820  0.84170  0.69130  Biso   1.000  C
  C451     1.0000 0.53720  0.84070  0.72160  Biso   1.000  C
  C452     1.0000 0.53310  0.83270  0.76400  Biso   1.000  C
  H440     1.0000 0.55560  0.81810  0.77300  Biso   1.000  H
  H441     1.0000 0.50950  0.81770  0.76850  Biso   1.000  H
  H442     1.0000 0.53150  0.85730  0.77800  Biso   1.000  H
  C453     1.0000 0.69800  0.84080  0.58750  Biso   1.000  C
  H443     1.0000 0.68780  0.81710  0.57600  Biso   1.000  H
  H444     1.0000 0.72530  0.84380  0.58060  Biso   1.000  H
  H445     1.0000 0.68340  0.86310  0.57790  Biso   1.000  H
  C454     1.0000 0.69420  0.83870  0.63110  Biso   1.000  C
  C455     1.0000 0.72270  0.82630  0.65850  Biso   1.000  C
  C456     1.0000 0.70410  0.83020  0.69380  Biso   1.000  C
  C457     1.0000 0.72180  0.82350  0.73530  Biso   1.000  C
  H446     1.0000 0.71410  0.84480  0.75240  Biso   1.000  H
  H447     1.0000 0.75010  0.82270  0.73350  Biso   1.000  H
  H448     1.0000 0.71230  0.79900  0.74580  Biso   1.000  H
  C458     1.0000 0.75090  0.74270  0.62110  Biso   1.000  C
  H449     1.0000 0.76790  0.72110  0.61420  Biso   1.000  H
  H450     1.0000 0.73680  0.75130  0.59810  Biso   1.000  H
  H451     1.0000 0.73250  0.73430  0.64090  Biso   1.000  H
  C459     1.0000 0.77520  0.77610  0.63680  Biso   1.000  C
  C460     1.0000 0.76310  0.81260  0.65010  Biso   1.000  C
  C461     1.0000 0.79760  0.83260  0.65560  Biso   1.000  C
  C462     1.0000 0.80380  0.87100  0.67730  Biso   1.000  C
  H452     1.0000 0.83120  0.87800  0.67660  Biso   1.000  H
  H453     1.0000 0.79550  0.86810  0.70430  Biso   1.000  H
  H454     1.0000 0.78850  0.89140  0.66500  Biso   1.000  H
  C463     1.0000 0.31450  0.83700  0.78430  Biso   1.000  C
  C464     1.0000 0.31090  0.84280  0.82930  Biso   1.000  C
  C465     1.0000 0.29490  0.81260  0.85190  Biso   1.000  C
  H455     1.0000 0.28650  0.78930  0.84020  Biso   1.000  H
  C466     1.0000 0.29180  0.81810  0.89260  Biso   1.000  C
  H456     1.0000 0.28110  0.79780  0.90760  Biso   1.000  H
  C467     1.0000 0.30380  0.85250  0.91210  Biso   1.000  C
  C468     1.0000 0.31950  0.88160  0.88830  Biso   1.000  C
  H457     1.0000 0.32790  0.90500  0.90000  Biso   1.000  H
  C469     1.0000 0.32340  0.87760  0.84690  Biso   1.000  C
  H458     1.0000 0.33410  0.89790  0.83190  Biso   1.000  H
  C470     1.0000 0.29800  0.86200  0.95090  Biso   1.000  C
  C471     1.0000 0.32660  0.85190  0.97810  Biso   1.000  C
  H459     1.0000 0.35070  0.84370  0.96780  Biso   1.000  H
  C472     1.0000 0.32360  0.85260  0.01880  Biso   1.000  C
  H460     1.0000 0.34480  0.84520  0.03460  Biso   1.000  H
  C473     1.0000 0.28840  0.86460  0.03550  Biso   1.000  C
  C474     1.0000 0.25830  0.87520  0.01080  Biso   1.000  C
  H461     1.0000 0.23410  0.88350  0.02070  Biso   1.000  H
  C475     1.0000 0.26500  0.87320  0.97060  Biso   1.000  C
  H462     1.0000 0.24380  0.88050  0.95480  Biso   1.000  H
  C476     1.0000 0.27840  0.86060  0.07790  Biso   1.000  C
  O53      1.0000 0.33410  0.85920  0.76800  Biso   1.000  O
  O54      1.0000 0.29380  0.80570  0.76690  Biso   1.000  O
  O55      1.0000 0.25010  0.87230  0.09314  Biso   1.000  O
  O56      1.0000 0.30100  0.84390  0.09820  Biso   1.000  O
  Co29     1.0000 0.37447  0.35385  0.76996  Biso   1.000  Co
  Co30     1.0000 0.65521  0.35915  0.78688  Biso   1.000  Co
  N113     1.0000 0.59954  0.34623  0.79863  Biso   1.000  N
  N114     1.0000 0.59407  0.31152  0.81980  Biso   1.000  N
  N115     1.0000 0.43205  0.35188  0.83422  Biso   1.000  N
  N116     1.0000 0.42671  0.34603  0.79501  Biso   1.000  N
  N117     1.0000 0.33900  0.34830  0.84972  Biso   1.000  N
  N118     1.0000 0.33322  0.34338  0.80933  Biso   1.000  N
  N119     1.0000 0.18555  0.27435  0.86614  Biso   1.000  N
  N120     1.0000 0.17320  0.30930  0.85390  Biso   1.000  N
  H463     1.0000 0.14880  0.31590  0.85240  Biso   1.000  H
  C477     1.0000 0.55840  0.39920  0.76820  Biso   1.000  C
  H464     1.0000 0.57200  0.42000  0.78190  Biso   1.000  H
  H465     1.0000 0.53080  0.40520  0.76690  Biso   1.000  H
  H466     1.0000 0.56880  0.39690  0.74190  Biso   1.000  H
  C478     1.0000 0.56440  0.36030  0.79020  Biso   1.000  C
  C479     1.0000 0.53420  0.33680  0.80550  Biso   1.000  C
  C480     1.0000 0.55440  0.30640  0.82360  Biso   1.000  C
  C481     1.0000 0.53790  0.26960  0.84280  Biso   1.000  C
  H467     1.0000 0.51620  0.25990  0.82740  Biso   1.000  H
  H468     1.0000 0.52890  0.27580  0.86890  Biso   1.000  H
  H469     1.0000 0.55810  0.24980  0.84430  Biso   1.000  H
  C482     1.0000 0.48520  0.35480  0.88270  Biso   1.000  C
  H470     1.0000 0.46950  0.37400  0.89640  Biso   1.000  H
  H471     1.0000 0.51220  0.36340  0.88220  Biso   1.000  H
  H472     1.0000 0.48350  0.32990  0.89620  Biso   1.000  H
  C483     1.0000 0.47070  0.35040  0.84220  Biso   1.000  C
  C484     1.0000 0.49180  0.34170  0.80870  Biso   1.000  C
  C485     1.0000 0.46280  0.34070  0.77840  Biso   1.000  C
  C486     1.0000 0.46690  0.33270  0.73600  Biso   1.000  C
  H473     1.0000 0.44440  0.31810  0.72700  Biso   1.000  H
  H474     1.0000 0.49050  0.31770  0.73150  Biso   1.000  H
  H475     1.0000 0.46850  0.35730  0.72200  Biso   1.000  H
  C487     1.0000 0.30200  0.34080  0.91250  Biso   1.000  C
  H476     1.0000 0.31220  0.31710  0.92400  Biso   1.000  H
  H477     1.0000 0.27470  0.34380  0.91940  Biso   1.000  H
  H478     1.0000 0.31660  0.36310  0.92210  Biso   1.000  H
  C488     1.0000 0.30580  0.33870  0.86890  Biso   1.000  C
  C489     1.0000 0.27730  0.32630  0.84150  Biso   1.000  C
  C490     1.0000 0.29590  0.33020  0.80620  Biso   1.000  C
  C491     1.0000 0.27820  0.32350  0.76470  Biso   1.000  C
  H479     1.0000 0.28590  0.34480  0.74760  Biso   1.000  H
  H480     1.0000 0.24990  0.32270  0.76650  Biso   1.000  H
  H481     1.0000 0.28770  0.29900  0.75420  Biso   1.000  H
  C492     1.0000 0.24910  0.24270  0.87890  Biso   1.000  C
  H482     1.0000 0.23210  0.22110  0.88580  Biso   1.000  H
  H483     1.0000 0.26320  0.25130  0.90190  Biso   1.000  H
  H484     1.0000 0.26750  0.23430  0.85910  Biso   1.000  H
  C493     1.0000 0.22480  0.27610  0.86320  Biso   1.000  C
  C494     1.0000 0.23690  0.31260  0.84990  Biso   1.000  C
  C495     1.0000 0.20240  0.33260  0.84440  Biso   1.000  C
  C496     1.0000 0.19620  0.37100  0.82270  Biso   1.000  C
  H485     1.0000 0.16880  0.37800  0.82340  Biso   1.000  H
  H486     1.0000 0.20450  0.36810  0.79570  Biso   1.000  H
  H487     1.0000 0.21150  0.39140  0.83500  Biso   1.000  H
  C497     1.0000 0.68550  0.33700  0.71570  Biso   1.000  C
  C498     1.0000 0.68910  0.34280  0.67070  Biso   1.000  C
  C499     1.0000 0.70510  0.31260  0.64810  Biso   1.000  C
  H488     1.0000 0.71350  0.28930  0.65980  Biso   1.000  H
  C500     1.0000 0.70820  0.31810  0.60740  Biso   1.000  C
  H489     1.0000 0.71890  0.29780  0.59240  Biso   1.000  H
  C501     1.0000 0.69620  0.35250  0.58790  Biso   1.000  C
  C502     1.0000 0.68050  0.38160  0.61170  Biso   1.000  C
  H490     1.0000 0.67210  0.40500  0.60000  Biso   1.000  H
  C503     1.0000 0.67660  0.37760  0.65310  Biso   1.000  C
  H491     1.0000 0.66590  0.39790  0.66810  Biso   1.000  H
  C504     1.0000 0.70200  0.36200  0.54910  Biso   1.000  C
  C505     1.0000 0.67340  0.35190  0.52190  Biso   1.000  C
  H492     1.0000 0.64930  0.34370  0.53220  Biso   1.000  H
  C506     1.0000 0.67640  0.35260  0.48120  Biso   1.000  C
  H493     1.0000 0.65520  0.34520  0.46540  Biso   1.000  H
  C507     1.0000 0.71160  0.36460  0.46450  Biso   1.000  C
  C508     1.0000 0.74170  0.37520  0.48920  Biso   1.000  C
  H494     1.0000 0.76590  0.38350  0.47930  Biso   1.000  H
  C509     1.0000 0.73500  0.37320  0.52940  Biso   1.000  C
  H495     1.0000 0.75620  0.38050  0.54520  Biso   1.000  H
  C510     1.0000 0.72160  0.36060  0.42210  Biso   1.000  C
  O57      1.0000 0.66590  0.35920  0.73200  Biso   1.000  O
  O58      1.0000 0.70620  0.30570  0.73310  Biso   1.000  O
  O59      1.0000 0.74990  0.37230  0.40686  Biso   1.000  O
  O60      1.0000 0.69900  0.34390  0.40180  Biso   1.000  O
  Co31     1.0000 0.12553  0.64615  0.26996  Biso   1.000  Co
  Co32     1.0000 0.84479  0.64085  0.28688  Biso   1.000  Co
  N121     1.0000 0.90046  0.65377  0.29863  Biso   1.000  N
  N122     1.0000 0.90593  0.68848  0.31980  Biso   1.000  N
  N123     1.0000 0.06795  0.64812  0.33422  Biso   1.000  N
  N124     1.0000 0.07329  0.65397  0.29501  Biso   1.000  N
  N125     1.0000 0.16100  0.65170  0.34972  Biso   1.000  N
  N126     1.0000 0.16678  0.65662  0.30933  Biso   1.000  N
  N127     1.0000 0.31445  0.72565  0.36614  Biso   1.000  N
  N128     1.0000 0.32680  0.69070  0.35390  Biso   1.000  N
  H496     1.0000 0.35120  0.68410  0.35240  Biso   1.000  H
  C511     1.0000 0.94160  0.60080  0.26820  Biso   1.000  C
  H497     1.0000 0.92800  0.58000  0.28190  Biso   1.000  H
  H498     1.0000 0.96920  0.59480  0.26690  Biso   1.000  H
  H499     1.0000 0.93120  0.60310  0.24190  Biso   1.000  H
  C512     1.0000 0.93560  0.63970  0.29020  Biso   1.000  C
  C513     1.0000 0.96580  0.66320  0.30550  Biso   1.000  C
  C514     1.0000 0.94560  0.69360  0.32360  Biso   1.000  C
  C515     1.0000 0.96210  0.73040  0.34280  Biso   1.000  C
  H500     1.0000 0.98380  0.74010  0.32740  Biso   1.000  H
  H501     1.0000 0.97110  0.72420  0.36890  Biso   1.000  H
  H502     1.0000 0.94190  0.75020  0.34430  Biso   1.000  H
  C516     1.0000 0.01480  0.64520  0.38270  Biso   1.000  C
  H503     1.0000 0.03050  0.62600  0.39640  Biso   1.000  H
  H504     1.0000 0.98780  0.63660  0.38220  Biso   1.000  H
  H505     1.0000 0.01650  0.67010  0.39620  Biso   1.000  H
  C517     1.0000 0.02930  0.64960  0.34220  Biso   1.000  C
  C518     1.0000 0.00820  0.65830  0.30870  Biso   1.000  C
  C519     1.0000 0.03720  0.65930  0.27840  Biso   1.000  C
  C520     1.0000 0.03310  0.66730  0.23600  Biso   1.000  C
  H506     1.0000 0.05560  0.68190  0.22700  Biso   1.000  H
  H507     1.0000 0.00950  0.68230  0.23150  Biso   1.000  H
  H508     1.0000 0.03150  0.64270  0.22200  Biso   1.000  H
  C521     1.0000 0.19800  0.65920  0.41250  Biso   1.000  C
  H509     1.0000 0.18780  0.68290  0.42400  Biso   1.000  H
  H510     1.0000 0.22530  0.65620  0.41940  Biso   1.000  H
  H511     1.0000 0.18340  0.63690  0.42210  Biso   1.000  H
  C522     1.0000 0.19420  0.66130  0.36890  Biso   1.000  C
  C523     1.0000 0.22270  0.67370  0.34150  Biso   1.000  C
  C524     1.0000 0.20410  0.66980  0.30620  Biso   1.000  C
  C525     1.0000 0.22180  0.67650  0.26470  Biso   1.000  C
  H512     1.0000 0.21410  0.65520  0.24760  Biso   1.000  H
  H513     1.0000 0.25010  0.67730  0.26650  Biso   1.000  H
  H514     1.0000 0.21230  0.70100  0.25420  Biso   1.000  H
  C526     1.0000 0.25090  0.75730  0.37890  Biso   1.000  C
  H515     1.0000 0.26790  0.77890  0.38580  Biso   1.000  H
  H516     1.0000 0.23680  0.74870  0.40190  Biso   1.000  H
  H517     1.0000 0.23250  0.76570  0.35910  Biso   1.000  H
  C527     1.0000 0.27520  0.72390  0.36320  Biso   1.000  C
  C528     1.0000 0.26310  0.68740  0.34990  Biso   1.000  C
  C529     1.0000 0.29760  0.66740  0.34440  Biso   1.000  C
  C530     1.0000 0.30380  0.62900  0.32270  Biso   1.000  C
  H518     1.0000 0.33120  0.62200  0.32340  Biso   1.000  H
  H519     1.0000 0.29550  0.63190  0.29570  Biso   1.000  H
  H520     1.0000 0.28850  0.60860  0.33500  Biso   1.000  H
  C531     1.0000 0.81450  0.66300  0.21570  Biso   1.000  C
  C532     1.0000 0.81090  0.65720  0.17070  Biso   1.000  C
  C533     1.0000 0.79490  0.68740  0.14810  Biso   1.000  C
  H521     1.0000 0.78650  0.71070  0.15980  Biso   1.000  H
  C534     1.0000 0.79180  0.68190  0.10740  Biso   1.000  C
  H522     1.0000 0.78110  0.70220  0.09240  Biso   1.000  H
  C535     1.0000 0.80380  0.64750  0.08790  Biso   1.000  C
  C536     1.0000 0.81950  0.61840  0.11170  Biso   1.000  C
  H523     1.0000 0.82790  0.59500  0.10000  Biso   1.000  H
  C537     1.0000 0.82340  0.62240  0.15310  Biso   1.000  C
  H524     1.0000 0.83410  0.60210  0.16810  Biso   1.000  H
  C538     1.0000 0.79800  0.63800  0.04910  Biso   1.000  C
  C539     1.0000 0.82660  0.64810  0.02190  Biso   1.000  C
  H525     1.0000 0.85070  0.65630  0.03220  Biso   1.000  H
  C540     1.0000 0.82360  0.64740  0.98120  Biso   1.000  C
  H526     1.0000 0.84480  0.65480  0.96540  Biso   1.000  H
  C541     1.0000 0.78840  0.63540  0.96450  Biso   1.000  C
  C542     1.0000 0.75830  0.62480  0.98920  Biso   1.000  C
  H527     1.0000 0.73410  0.61650  0.97930  Biso   1.000  H
  C543     1.0000 0.76500  0.62680  0.02940  Biso   1.000  C
  H528     1.0000 0.74380  0.61950  0.04520  Biso   1.000  H
  C544     1.0000 0.77840  0.63940  0.92210  Biso   1.000  C
  O61      1.0000 0.83410  0.64080  0.23200  Biso   1.000  O
  O62      1.0000 0.79380  0.69430  0.23310  Biso   1.000  O
  O63      1.0000 0.75010  0.62770  0.90686  Biso   1.000  O
  O64      1.0000 0.80100  0.65610  0.90180  Biso   1.000  O
  Co33     1.0000 0.64615  0.26996  0.12553  Biso   1.000  Co
  Co34     1.0000 0.64085  0.28688  0.84479  Biso   1.000  Co
  N129     1.0000 0.65377  0.29863  0.90046  Biso   1.000  N
  N130     1.0000 0.68848  0.31980  0.90593  Biso   1.000  N
  N131     1.0000 0.64812  0.33422  0.06795  Biso   1.000  N
  N132     1.0000 0.65397  0.29501  0.07329  Biso   1.000  N
  N133     1.0000 0.65170  0.34972  0.16100  Biso   1.000  N
  N134     1.0000 0.65662  0.30933  0.16678  Biso   1.000  N
  N135     1.0000 0.72565  0.36614  0.31445  Biso   1.000  N
  N136     1.0000 0.69070  0.35390  0.32680  Biso   1.000  N
  H529     1.0000 0.68410  0.35240  0.35120  Biso   1.000  H
  C545     1.0000 0.60080  0.26820  0.94160  Biso   1.000  C
  H530     1.0000 0.58000  0.28190  0.92800  Biso   1.000  H
  H531     1.0000 0.59480  0.26690  0.96920  Biso   1.000  H
  H532     1.0000 0.60310  0.24190  0.93120  Biso   1.000  H
  C546     1.0000 0.63970  0.29020  0.93560  Biso   1.000  C
  C547     1.0000 0.66320  0.30550  0.96580  Biso   1.000  C
  C548     1.0000 0.69360  0.32360  0.94560  Biso   1.000  C
  C549     1.0000 0.73040  0.34280  0.96210  Biso   1.000  C
  H533     1.0000 0.74010  0.32740  0.98380  Biso   1.000  H
  H534     1.0000 0.72420  0.36890  0.97110  Biso   1.000  H
  H535     1.0000 0.75020  0.34430  0.94190  Biso   1.000  H
  C550     1.0000 0.64520  0.38270  0.01480  Biso   1.000  C
  H536     1.0000 0.62600  0.39640  0.03050  Biso   1.000  H
  H537     1.0000 0.63660  0.38220  0.98780  Biso   1.000  H
  H538     1.0000 0.67010  0.39620  0.01650  Biso   1.000  H
  C551     1.0000 0.64960  0.34220  0.02930  Biso   1.000  C
  C552     1.0000 0.65830  0.30870  0.00820  Biso   1.000  C
  C553     1.0000 0.65930  0.27840  0.03720  Biso   1.000  C
  C554     1.0000 0.66730  0.23600  0.03310  Biso   1.000  C
  H539     1.0000 0.68190  0.22700  0.05560  Biso   1.000  H
  H540     1.0000 0.68230  0.23150  0.00950  Biso   1.000  H
  H541     1.0000 0.64270  0.22200  0.03150  Biso   1.000  H
  C555     1.0000 0.65920  0.41250  0.19800  Biso   1.000  C
  H542     1.0000 0.68290  0.42400  0.18780  Biso   1.000  H
  H543     1.0000 0.65620  0.41940  0.22530  Biso   1.000  H
  H544     1.0000 0.63690  0.42210  0.18340  Biso   1.000  H
  C556     1.0000 0.66130  0.36890  0.19420  Biso   1.000  C
  C557     1.0000 0.67370  0.34150  0.22270  Biso   1.000  C
  C558     1.0000 0.66980  0.30620  0.20410  Biso   1.000  C
  C559     1.0000 0.67650  0.26470  0.22180  Biso   1.000  C
  H545     1.0000 0.65520  0.24760  0.21410  Biso   1.000  H
  H546     1.0000 0.67730  0.26650  0.25010  Biso   1.000  H
  H547     1.0000 0.70100  0.25420  0.21230  Biso   1.000  H
  C560     1.0000 0.75730  0.37890  0.25090  Biso   1.000  C
  H548     1.0000 0.77890  0.38580  0.26790  Biso   1.000  H
  H549     1.0000 0.74870  0.40190  0.23680  Biso   1.000  H
  H550     1.0000 0.76570  0.35910  0.23250  Biso   1.000  H
  C561     1.0000 0.72390  0.36320  0.27520  Biso   1.000  C
  C562     1.0000 0.68740  0.34990  0.26310  Biso   1.000  C
  C563     1.0000 0.66740  0.34440  0.29760  Biso   1.000  C
  C564     1.0000 0.62900  0.32270  0.30380  Biso   1.000  C
  H551     1.0000 0.62200  0.32340  0.33120  Biso   1.000  H
  H552     1.0000 0.63190  0.29570  0.29550  Biso   1.000  H
  H553     1.0000 0.60860  0.33500  0.28850  Biso   1.000  H
  C565     1.0000 0.66300  0.21570  0.81450  Biso   1.000  C
  C566     1.0000 0.65720  0.17070  0.81090  Biso   1.000  C
  C567     1.0000 0.68740  0.14810  0.79490  Biso   1.000  C
  H554     1.0000 0.71070  0.15980  0.78650  Biso   1.000  H
  C568     1.0000 0.68190  0.10740  0.79180  Biso   1.000  C
  H555     1.0000 0.70220  0.09240  0.78110  Biso   1.000  H
  C569     1.0000 0.64750  0.08790  0.80380  Biso   1.000  C
  C570     1.0000 0.61840  0.11170  0.81950  Biso   1.000  C
  H556     1.0000 0.59500  0.10000  0.82790  Biso   1.000  H
  C571     1.0000 0.62240  0.15310  0.82340  Biso   1.000  C
  H557     1.0000 0.60210  0.16810  0.83410  Biso   1.000  H
  C572     1.0000 0.63800  0.04910  0.79800  Biso   1.000  C
  C573     1.0000 0.64810  0.02190  0.82660  Biso   1.000  C
  H558     1.0000 0.65630  0.03220  0.85070  Biso   1.000  H
  C574     1.0000 0.64740  0.98120  0.82360  Biso   1.000  C
  H559     1.0000 0.65480  0.96540  0.84480  Biso   1.000  H
  C575     1.0000 0.63540  0.96450  0.78840  Biso   1.000  C
  C576     1.0000 0.62480  0.98920  0.75830  Biso   1.000  C
  H560     1.0000 0.61650  0.97930  0.73410  Biso   1.000  H
  C577     1.0000 0.62680  0.02940  0.76500  Biso   1.000  C
  H561     1.0000 0.61950  0.04520  0.74380  Biso   1.000  H
  C578     1.0000 0.63940  0.92210  0.77840  Biso   1.000  C
  O65      1.0000 0.64080  0.23200  0.83410  Biso   1.000  O
  O66      1.0000 0.69430  0.23310  0.79380  Biso   1.000  O
  O67      1.0000 0.62770  0.90686  0.75010  Biso   1.000  O
  O68      1.0000 0.65610  0.90180  0.80100  Biso   1.000  O
  Co35     1.0000 0.35385  0.76996  0.37447  Biso   1.000  Co
  Co36     1.0000 0.35915  0.78688  0.65521  Biso   1.000  Co
  N137     1.0000 0.34623  0.79863  0.59954  Biso   1.000  N
  N138     1.0000 0.31152  0.81980  0.59407  Biso   1.000  N
  N139     1.0000 0.35188  0.83422  0.43205  Biso   1.000  N
  N140     1.0000 0.34603  0.79501  0.42671  Biso   1.000  N
  N141     1.0000 0.34830  0.84972  0.33900  Biso   1.000  N
  N142     1.0000 0.34338  0.80933  0.33322  Biso   1.000  N
  N143     1.0000 0.27435  0.86614  0.18555  Biso   1.000  N
  N144     1.0000 0.30930  0.85390  0.17320  Biso   1.000  N
  H562     1.0000 0.31590  0.85240  0.14880  Biso   1.000  H
  C579     1.0000 0.39920  0.76820  0.55840  Biso   1.000  C
  H563     1.0000 0.42000  0.78190  0.57200  Biso   1.000  H
  H564     1.0000 0.40520  0.76690  0.53080  Biso   1.000  H
  H565     1.0000 0.39690  0.74190  0.56880  Biso   1.000  H
  C580     1.0000 0.36030  0.79020  0.56440  Biso   1.000  C
  C581     1.0000 0.33680  0.80550  0.53420  Biso   1.000  C
  C582     1.0000 0.30640  0.82360  0.55440  Biso   1.000  C
  C583     1.0000 0.26960  0.84280  0.53790  Biso   1.000  C
  H566     1.0000 0.25990  0.82740  0.51620  Biso   1.000  H
  H567     1.0000 0.27580  0.86890  0.52890  Biso   1.000  H
  H568     1.0000 0.24980  0.84430  0.55810  Biso   1.000  H
  C584     1.0000 0.35480  0.88270  0.48520  Biso   1.000  C
  H569     1.0000 0.37400  0.89640  0.46950  Biso   1.000  H
  H570     1.0000 0.36340  0.88220  0.51220  Biso   1.000  H
  H571     1.0000 0.32990  0.89620  0.48350  Biso   1.000  H
  C585     1.0000 0.35040  0.84220  0.47070  Biso   1.000  C
  C586     1.0000 0.34170  0.80870  0.49180  Biso   1.000  C
  C587     1.0000 0.34070  0.77840  0.46280  Biso   1.000  C
  C588     1.0000 0.33270  0.73600  0.46690  Biso   1.000  C
  H572     1.0000 0.31810  0.72700  0.44440  Biso   1.000  H
  H573     1.0000 0.31770  0.73150  0.49050  Biso   1.000  H
  H574     1.0000 0.35730  0.72200  0.46850  Biso   1.000  H
  C589     1.0000 0.34080  0.91250  0.30200  Biso   1.000  C
  H575     1.0000 0.31710  0.92400  0.31220  Biso   1.000  H
  H576     1.0000 0.34380  0.91940  0.27470  Biso   1.000  H
  H577     1.0000 0.36310  0.92210  0.31660  Biso   1.000  H
  C590     1.0000 0.33870  0.86890  0.30580  Biso   1.000  C
  C591     1.0000 0.32630  0.84150  0.27730  Biso   1.000  C
  C592     1.0000 0.33020  0.80620  0.29590  Biso   1.000  C
  C593     1.0000 0.32350  0.76470  0.27820  Biso   1.000  C
  H578     1.0000 0.34480  0.74760  0.28590  Biso   1.000  H
  H579     1.0000 0.32270  0.76650  0.24990  Biso   1.000  H
  H580     1.0000 0.29900  0.75420  0.28770  Biso   1.000  H
  C594     1.0000 0.24270  0.87890  0.24910  Biso   1.000  C
  H581     1.0000 0.22110  0.88580  0.23210  Biso   1.000  H
  H582     1.0000 0.25130  0.90190  0.26320  Biso   1.000  H
  H583     1.0000 0.23430  0.85910  0.26750  Biso   1.000  H
  C595     1.0000 0.27610  0.86320  0.22480  Biso   1.000  C
  C596     1.0000 0.31260  0.84990  0.23690  Biso   1.000  C
  C597     1.0000 0.33260  0.84440  0.20240  Biso   1.000  C
  C598     1.0000 0.37100  0.82270  0.19620  Biso   1.000  C
  H584     1.0000 0.37800  0.82340  0.16880  Biso   1.000  H
  H585     1.0000 0.36810  0.79570  0.20450  Biso   1.000  H
  H586     1.0000 0.39140  0.83500  0.21150  Biso   1.000  H
  C599     1.0000 0.33700  0.71570  0.68550  Biso   1.000  C
  C600     1.0000 0.34280  0.67070  0.68910  Biso   1.000  C
  C601     1.0000 0.31260  0.64810  0.70510  Biso   1.000  C
  H587     1.0000 0.28930  0.65980  0.71350  Biso   1.000  H
  C602     1.0000 0.31810  0.60740  0.70820  Biso   1.000  C
  H588     1.0000 0.29780  0.59240  0.71890  Biso   1.000  H
  C603     1.0000 0.35250  0.58790  0.69620  Biso   1.000  C
  C604     1.0000 0.38160  0.61170  0.68050  Biso   1.000  C
  H589     1.0000 0.40500  0.60000  0.67210  Biso   1.000  H
  C605     1.0000 0.37760  0.65310  0.67660  Biso   1.000  C
  H590     1.0000 0.39790  0.66810  0.66590  Biso   1.000  H
  C606     1.0000 0.36200  0.54910  0.70200  Biso   1.000  C
  C607     1.0000 0.35190  0.52190  0.67340  Biso   1.000  C
  H591     1.0000 0.34370  0.53220  0.64930  Biso   1.000  H
  C608     1.0000 0.35260  0.48120  0.67640  Biso   1.000  C
  H592     1.0000 0.34520  0.46540  0.65520  Biso   1.000  H
  C609     1.0000 0.36460  0.46450  0.71160  Biso   1.000  C
  C610     1.0000 0.37520  0.48920  0.74170  Biso   1.000  C
  H593     1.0000 0.38350  0.47930  0.76590  Biso   1.000  H
  C611     1.0000 0.37320  0.52940  0.73500  Biso   1.000  C
  H594     1.0000 0.38050  0.54520  0.75620  Biso   1.000  H
  C612     1.0000 0.36060  0.42210  0.72160  Biso   1.000  C
  O69      1.0000 0.35920  0.73200  0.66590  Biso   1.000  O
  O70      1.0000 0.30570  0.73310  0.70620  Biso   1.000  O
  O71      1.0000 0.37230  0.40686  0.74990  Biso   1.000  O
  O72      1.0000 0.34390  0.40180  0.69900  Biso   1.000  O
  Co37     1.0000 0.85385  0.73004  0.62553  Biso   1.000  Co
  Co38     1.0000 0.85915  0.71312  0.34479  Biso   1.000  Co
  N145     1.0000 0.84623  0.70137  0.40046  Biso   1.000  N
  N146     1.0000 0.81152  0.68020  0.40593  Biso   1.000  N
  N147     1.0000 0.85188  0.66578  0.56795  Biso   1.000  N
  N148     1.0000 0.84603  0.70499  0.57329  Biso   1.000  N
  N149     1.0000 0.84830  0.65028  0.66100  Biso   1.000  N
  N150     1.0000 0.84338  0.69067  0.66678  Biso   1.000  N
  N151     1.0000 0.77435  0.63386  0.81445  Biso   1.000  N
  N152     1.0000 0.80930  0.64610  0.82680  Biso   1.000  N
  H595     1.0000 0.81590  0.64760  0.85120  Biso   1.000  H
  C613     1.0000 0.89920  0.73180  0.44160  Biso   1.000  C
  H596     1.0000 0.92000  0.71810  0.42800  Biso   1.000  H
  H597     1.0000 0.90520  0.73310  0.46920  Biso   1.000  H
  H598     1.0000 0.89690  0.75810  0.43120  Biso   1.000  H
  C614     1.0000 0.86030  0.70980  0.43560  Biso   1.000  C
  C615     1.0000 0.83680  0.69450  0.46580  Biso   1.000  C
  C616     1.0000 0.80640  0.67640  0.44560  Biso   1.000  C
  C617     1.0000 0.76960  0.65720  0.46210  Biso   1.000  C
  H599     1.0000 0.75990  0.67260  0.48380  Biso   1.000  H
  H600     1.0000 0.77580  0.63110  0.47110  Biso   1.000  H
  H601     1.0000 0.74980  0.65570  0.44190  Biso   1.000  H
  C618     1.0000 0.85480  0.61730  0.51480  Biso   1.000  C
  H602     1.0000 0.87400  0.60360  0.53050  Biso   1.000  H
  H603     1.0000 0.86340  0.61780  0.48780  Biso   1.000  H
  H604     1.0000 0.82990  0.60380  0.51650  Biso   1.000  H
  C619     1.0000 0.85040  0.65780  0.52930  Biso   1.000  C
  C620     1.0000 0.84170  0.69130  0.50820  Biso   1.000  C
  C621     1.0000 0.84070  0.72160  0.53720  Biso   1.000  C
  C622     1.0000 0.83270  0.76400  0.53310  Biso   1.000  C
  H605     1.0000 0.81810  0.77300  0.55560  Biso   1.000  H
  H606     1.0000 0.81770  0.76850  0.50950  Biso   1.000  H
  H607     1.0000 0.85730  0.77800  0.53150  Biso   1.000  H
  C623     1.0000 0.84080  0.58750  0.69800  Biso   1.000  C
  H608     1.0000 0.81710  0.57600  0.68780  Biso   1.000  H
  H609     1.0000 0.84380  0.58060  0.72530  Biso   1.000  H
  H610     1.0000 0.86310  0.57790  0.68340  Biso   1.000  H
  C624     1.0000 0.83870  0.63110  0.69420  Biso   1.000  C
  C625     1.0000 0.82630  0.65850  0.72270  Biso   1.000  C
  C626     1.0000 0.83020  0.69380  0.70410  Biso   1.000  C
  C627     1.0000 0.82350  0.73530  0.72180  Biso   1.000  C
  H611     1.0000 0.84480  0.75240  0.71410  Biso   1.000  H
  H612     1.0000 0.82270  0.73350  0.75010  Biso   1.000  H
  H613     1.0000 0.79900  0.74580  0.71230  Biso   1.000  H
  C628     1.0000 0.74270  0.62110  0.75090  Biso   1.000  C
  H614     1.0000 0.72110  0.61420  0.76790  Biso   1.000  H
  H615     1.0000 0.75130  0.59810  0.73680  Biso   1.000  H
  H616     1.0000 0.73430  0.64090  0.73250  Biso   1.000  H
  C629     1.0000 0.77610  0.63680  0.77520  Biso   1.000  C
  C630     1.0000 0.81260  0.65010  0.76310  Biso   1.000  C
  C631     1.0000 0.83260  0.65560  0.79760  Biso   1.000  C
  C632     1.0000 0.87100  0.67730  0.80380  Biso   1.000  C
  H617     1.0000 0.87800  0.67660  0.83120  Biso   1.000  H
  H618     1.0000 0.86810  0.70430  0.79550  Biso   1.000  H
  H619     1.0000 0.89140  0.66500  0.78850  Biso   1.000  H
  C633     1.0000 0.83700  0.78430  0.31450  Biso   1.000  C
  C634     1.0000 0.84280  0.82930  0.31090  Biso   1.000  C
  C635     1.0000 0.81260  0.85190  0.29490  Biso   1.000  C
  H620     1.0000 0.78930  0.84020  0.28650  Biso   1.000  H
  C636     1.0000 0.81810  0.89260  0.29180  Biso   1.000  C
  H621     1.0000 0.79780  0.90760  0.28110  Biso   1.000  H
  C637     1.0000 0.85250  0.91210  0.30380  Biso   1.000  C
  C638     1.0000 0.88160  0.88830  0.31950  Biso   1.000  C
  H622     1.0000 0.90500  0.90000  0.32790  Biso   1.000  H
  C639     1.0000 0.87760  0.84690  0.32340  Biso   1.000  C
  H623     1.0000 0.89790  0.83190  0.33410  Biso   1.000  H
  C640     1.0000 0.86200  0.95090  0.29800  Biso   1.000  C
  C641     1.0000 0.85190  0.97810  0.32660  Biso   1.000  C
  H624     1.0000 0.84370  0.96780  0.35070  Biso   1.000  H
  C642     1.0000 0.85260  0.01880  0.32360  Biso   1.000  C
  H625     1.0000 0.84520  0.03460  0.34480  Biso   1.000  H
  C643     1.0000 0.86460  0.03550  0.28840  Biso   1.000  C
  C644     1.0000 0.87520  0.01080  0.25830  Biso   1.000  C
  H626     1.0000 0.88350  0.02070  0.23410  Biso   1.000  H
  C645     1.0000 0.87320  0.97060  0.26500  Biso   1.000  C
  H627     1.0000 0.88050  0.95480  0.24380  Biso   1.000  H
  C646     1.0000 0.86060  0.07790  0.27840  Biso   1.000  C
  O73      1.0000 0.85920  0.76800  0.33410  Biso   1.000  O
  O74      1.0000 0.80570  0.76690  0.29380  Biso   1.000  O
  O75      1.0000 0.87230  0.09314  0.25010  Biso   1.000  O
  O76      1.0000 0.84390  0.09820  0.30100  Biso   1.000  O
  Co39     1.0000 0.14615  0.23004  0.87447  Biso   1.000  Co
  Co40     1.0000 0.14085  0.21312  0.15521  Biso   1.000  Co
  N153     1.0000 0.15377  0.20137  0.09954  Biso   1.000  N
  N154     1.0000 0.18848  0.18020  0.09407  Biso   1.000  N
  N155     1.0000 0.14812  0.16578  0.93205  Biso   1.000  N
  N156     1.0000 0.15397  0.20499  0.92671  Biso   1.000  N
  N157     1.0000 0.15170  0.15028  0.83900  Biso   1.000  N
  N158     1.0000 0.15662  0.19067  0.83322  Biso   1.000  N
  N159     1.0000 0.22565  0.13386  0.68555  Biso   1.000  N
  N160     1.0000 0.19070  0.14610  0.67320  Biso   1.000  N
  H628     1.0000 0.18410  0.14760  0.64880  Biso   1.000  H
  C647     1.0000 0.10080  0.23180  0.05840  Biso   1.000  C
  H629     1.0000 0.08000  0.21810  0.07200  Biso   1.000  H
  H630     1.0000 0.09480  0.23310  0.03080  Biso   1.000  H
  H631     1.0000 0.10310  0.25810  0.06880  Biso   1.000  H
  C648     1.0000 0.13970  0.20980  0.06440  Biso   1.000  C
  C649     1.0000 0.16320  0.19450  0.03420  Biso   1.000  C
  C650     1.0000 0.19360  0.17640  0.05440  Biso   1.000  C
  C651     1.0000 0.23040  0.15720  0.03790  Biso   1.000  C
  H632     1.0000 0.24010  0.17260  0.01620  Biso   1.000  H
  H633     1.0000 0.22420  0.13110  0.02890  Biso   1.000  H
  H634     1.0000 0.25020  0.15570  0.05810  Biso   1.000  H
  C652     1.0000 0.14520  0.11730  0.98520  Biso   1.000  C
  H635     1.0000 0.12600  0.10360  0.96950  Biso   1.000  H
  H636     1.0000 0.13660  0.11780  0.01220  Biso   1.000  H
  H637     1.0000 0.17010  0.10380  0.98350  Biso   1.000  H
  C653     1.0000 0.14960  0.15780  0.97070  Biso   1.000  C
  C654     1.0000 0.15830  0.19130  0.99180  Biso   1.000  C
  C655     1.0000 0.15930  0.22160  0.96280  Biso   1.000  C
  C656     1.0000 0.16730  0.26400  0.96690  Biso   1.000  C
  H638     1.0000 0.18190  0.27300  0.94440  Biso   1.000  H
  H639     1.0000 0.18230  0.26850  0.99050  Biso   1.000  H
  H640     1.0000 0.14270  0.27800  0.96850  Biso   1.000  H
  C657     1.0000 0.15920  0.08750  0.80200  Biso   1.000  C
  H641     1.0000 0.18290  0.07600  0.81220  Biso   1.000  H
  H642     1.0000 0.15620  0.08060  0.77470  Biso   1.000  H
  H643     1.0000 0.13690  0.07790  0.81660  Biso   1.000  H
  C658     1.0000 0.16130  0.13110  0.80580  Biso   1.000  C
  C659     1.0000 0.17370  0.15850  0.77730  Biso   1.000  C
  C660     1.0000 0.16980  0.19380  0.79590  Biso   1.000  C
  C661     1.0000 0.17650  0.23530  0.77820  Biso   1.000  C
  H644     1.0000 0.15520  0.25240  0.78590  Biso   1.000  H
  H645     1.0000 0.17730  0.23350  0.74990  Biso   1.000  H
  H646     1.0000 0.20100  0.24580  0.78770  Biso   1.000  H
  C662     1.0000 0.25730  0.12110  0.74910  Biso   1.000  C
  H647     1.0000 0.27890  0.11420  0.73210  Biso   1.000  H
  H648     1.0000 0.24870  0.09810  0.76320  Biso   1.000  H
  H649     1.0000 0.26570  0.14090  0.76750  Biso   1.000  H
  C663     1.0000 0.22390  0.13680  0.72480  Biso   1.000  C
  C664     1.0000 0.18740  0.15010  0.73690  Biso   1.000  C
  C665     1.0000 0.16740  0.15560  0.70240  Biso   1.000  C
  C666     1.0000 0.12900  0.17730  0.69620  Biso   1.000  C
  H650     1.0000 0.12200  0.17660  0.66880  Biso   1.000  H
  H651     1.0000 0.13190  0.20430  0.70450  Biso   1.000  H
  H652     1.0000 0.10860  0.16500  0.71150  Biso   1.000  H
  C667     1.0000 0.16300  0.28430  0.18550  Biso   1.000  C
  C668     1.0000 0.15720  0.32930  0.18910  Biso   1.000  C
  C669     1.0000 0.18740  0.35190  0.20510  Biso   1.000  C
  H653     1.0000 0.21070  0.34020  0.21350  Biso   1.000  H
  C670     1.0000 0.18190  0.39260  0.20820  Biso   1.000  C
  H654     1.0000 0.20220  0.40760  0.21890  Biso   1.000  H
  C671     1.0000 0.14750  0.41210  0.19620  Biso   1.000  C
  C672     1.0000 0.11840  0.38830  0.18050  Biso   1.000  C
  H655     1.0000 0.09500  0.40000  0.17210  Biso   1.000  H
  C673     1.0000 0.12240  0.34690  0.17660  Biso   1.000  C
  H656     1.0000 0.10210  0.33190  0.16590  Biso   1.000  H
  C674     1.0000 0.13800  0.45090  0.20200  Biso   1.000  C
  C675     1.0000 0.14810  0.47810  0.17340  Biso   1.000  C
  H657     1.0000 0.15630  0.46780  0.14930  Biso   1.000  H
  C676     1.0000 0.14740  0.51880  0.17640  Biso   1.000  C
  H658     1.0000 0.15480  0.53460  0.15520  Biso   1.000  H
  C677     1.0000 0.13540  0.53550  0.21160  Biso   1.000  C
  C678     1.0000 0.12480  0.51080  0.24170  Biso   1.000  C
  H659     1.0000 0.11650  0.52070  0.26590  Biso   1.000  H
  C679     1.0000 0.12680  0.47060  0.23500  Biso   1.000  C
  H660     1.0000 0.11950  0.45480  0.25620  Biso   1.000  H
  C680     1.0000 0.13940  0.57790  0.22160  Biso   1.000  C
  O77      1.0000 0.14080  0.26800  0.16590  Biso   1.000  O
  O78      1.0000 0.19430  0.26690  0.20620  Biso   1.000  O
  O79      1.0000 0.12770  0.59314  0.24990  Biso   1.000  O
  O80      1.0000 0.15610  0.59820  0.19900  Biso   1.000  O
  Co41     1.0000 0.76996  0.37447  0.35385  Biso   1.000  Co
  Co42     1.0000 0.78688  0.65521  0.35915  Biso   1.000  Co
  N161     1.0000 0.79863  0.59954  0.34623  Biso   1.000  N
  N162     1.0000 0.81980  0.59407  0.31152  Biso   1.000  N
  N163     1.0000 0.83422  0.43205  0.35188  Biso   1.000  N
  N164     1.0000 0.79501  0.42671  0.34603  Biso   1.000  N
  N165     1.0000 0.84972  0.33900  0.34830  Biso   1.000  N
  N166     1.0000 0.80933  0.33322  0.34338  Biso   1.000  N
  N167     1.0000 0.86614  0.18555  0.27435  Biso   1.000  N
  N168     1.0000 0.85390  0.17320  0.30930  Biso   1.000  N
  H661     1.0000 0.85240  0.14880  0.31590  Biso   1.000  H
  C681     1.0000 0.76820  0.55840  0.39920  Biso   1.000  C
  H662     1.0000 0.78190  0.57200  0.42000  Biso   1.000  H
  H663     1.0000 0.76690  0.53080  0.40520  Biso   1.000  H
  H664     1.0000 0.74190  0.56880  0.39690  Biso   1.000  H
  C682     1.0000 0.79020  0.56440  0.36030  Biso   1.000  C
  C683     1.0000 0.80550  0.53420  0.33680  Biso   1.000  C
  C684     1.0000 0.82360  0.55440  0.30640  Biso   1.000  C
  C685     1.0000 0.84280  0.53790  0.26960  Biso   1.000  C
  H665     1.0000 0.82740  0.51620  0.25990  Biso   1.000  H
  H666     1.0000 0.86890  0.52890  0.27580  Biso   1.000  H
  H667     1.0000 0.84430  0.55810  0.24980  Biso   1.000  H
  C686     1.0000 0.88270  0.48520  0.35480  Biso   1.000  C
  H668     1.0000 0.89640  0.46950  0.37400  Biso   1.000  H
  H669     1.0000 0.88220  0.51220  0.36340  Biso   1.000  H
  H670     1.0000 0.89620  0.48350  0.32990  Biso   1.000  H
  C687     1.0000 0.84220  0.47070  0.35040  Biso   1.000  C
  C688     1.0000 0.80870  0.49180  0.34170  Biso   1.000  C
  C689     1.0000 0.77840  0.46280  0.34070  Biso   1.000  C
  C690     1.0000 0.73600  0.46690  0.33270  Biso   1.000  C
  H671     1.0000 0.72700  0.44440  0.31810  Biso   1.000  H
  H672     1.0000 0.73150  0.49050  0.31770  Biso   1.000  H
  H673     1.0000 0.72200  0.46850  0.35730  Biso   1.000  H
  C691     1.0000 0.91250  0.30200  0.34080  Biso   1.000  C
  H674     1.0000 0.92400  0.31220  0.31710  Biso   1.000  H
  H675     1.0000 0.91940  0.27470  0.34380  Biso   1.000  H
  H676     1.0000 0.92210  0.31660  0.36310  Biso   1.000  H
  C692     1.0000 0.86890  0.30580  0.33870  Biso   1.000  C
  C693     1.0000 0.84150  0.27730  0.32630  Biso   1.000  C
  C694     1.0000 0.80620  0.29590  0.33020  Biso   1.000  C
  C695     1.0000 0.76470  0.27820  0.32350  Biso   1.000  C
  H677     1.0000 0.74760  0.28590  0.34480  Biso   1.000  H
  H678     1.0000 0.76650  0.24990  0.32270  Biso   1.000  H
  H679     1.0000 0.75420  0.28770  0.29900  Biso   1.000  H
  C696     1.0000 0.87890  0.24910  0.24270  Biso   1.000  C
  H680     1.0000 0.88580  0.23210  0.22110  Biso   1.000  H
  H681     1.0000 0.90190  0.26320  0.25130  Biso   1.000  H
  H682     1.0000 0.85910  0.26750  0.23430  Biso   1.000  H
  C697     1.0000 0.86320  0.22480  0.27610  Biso   1.000  C
  C698     1.0000 0.84990  0.23690  0.31260  Biso   1.000  C
  C699     1.0000 0.84440  0.20240  0.33260  Biso   1.000  C
  C700     1.0000 0.82270  0.19620  0.37100  Biso   1.000  C
  H683     1.0000 0.82340  0.16880  0.37800  Biso   1.000  H
  H684     1.0000 0.79570  0.20450  0.36810  Biso   1.000  H
  H685     1.0000 0.83500  0.21150  0.39140  Biso   1.000  H
  C701     1.0000 0.71570  0.68550  0.33700  Biso   1.000  C
  C702     1.0000 0.67070  0.68910  0.34280  Biso   1.000  C
  C703     1.0000 0.64810  0.70510  0.31260  Biso   1.000  C
  H686     1.0000 0.65980  0.71350  0.28930  Biso   1.000  H
  C704     1.0000 0.60740  0.70820  0.31810  Biso   1.000  C
  H687     1.0000 0.59240  0.71890  0.29780  Biso   1.000  H
  C705     1.0000 0.58790  0.69620  0.35250  Biso   1.000  C
  C706     1.0000 0.61170  0.68050  0.38160  Biso   1.000  C
  H688     1.0000 0.60000  0.67210  0.40500  Biso   1.000  H
  C707     1.0000 0.65310  0.67660  0.37760  Biso   1.000  C
  H689     1.0000 0.66810  0.66590  0.39790  Biso   1.000  H
  C708     1.0000 0.54910  0.70200  0.36200  Biso   1.000  C
  C709     1.0000 0.52190  0.67340  0.35190  Biso   1.000  C
  H690     1.0000 0.53220  0.64930  0.34370  Biso   1.000  H
  C710     1.0000 0.48120  0.67640  0.35260  Biso   1.000  C
  H691     1.0000 0.46540  0.65520  0.34520  Biso   1.000  H
  C711     1.0000 0.46450  0.71160  0.36460  Biso   1.000  C
  C712     1.0000 0.48920  0.74170  0.37520  Biso   1.000  C
  H692     1.0000 0.47930  0.76590  0.38350  Biso   1.000  H
  C713     1.0000 0.52940  0.73500  0.37320  Biso   1.000  C
  H693     1.0000 0.54520  0.75620  0.38050  Biso   1.000  H
  C714     1.0000 0.42210  0.72160  0.36060  Biso   1.000  C
  O81      1.0000 0.73200  0.66590  0.35920  Biso   1.000  O
  O82      1.0000 0.73310  0.70620  0.30570  Biso   1.000  O
  O83      1.0000 0.40686  0.74990  0.37230  Biso   1.000  O
  O84      1.0000 0.40180  0.69900  0.34390  Biso   1.000  O
  Co43     1.0000 0.26996  0.12553  0.64615  Biso   1.000  Co
  Co44     1.0000 0.28688  0.84479  0.64085  Biso   1.000  Co
  N169     1.0000 0.29863  0.90046  0.65377  Biso   1.000  N
  N170     1.0000 0.31980  0.90593  0.68848  Biso   1.000  N
  N171     1.0000 0.33422  0.06795  0.64812  Biso   1.000  N
  N172     1.0000 0.29501  0.07329  0.65397  Biso   1.000  N
  N173     1.0000 0.34972  0.16100  0.65170  Biso   1.000  N
  N174     1.0000 0.30933  0.16678  0.65662  Biso   1.000  N
  N175     1.0000 0.36614  0.31445  0.72565  Biso   1.000  N
  N176     1.0000 0.35390  0.32680  0.69070  Biso   1.000  N
  H694     1.0000 0.35240  0.35120  0.68410  Biso   1.000  H
  C715     1.0000 0.26820  0.94160  0.60080  Biso   1.000  C
  H695     1.0000 0.28190  0.92800  0.58000  Biso   1.000  H
  H696     1.0000 0.26690  0.96920  0.59480  Biso   1.000  H
  H697     1.0000 0.24190  0.93120  0.60310  Biso   1.000  H
  C716     1.0000 0.29020  0.93560  0.63970  Biso   1.000  C
  C717     1.0000 0.30550  0.96580  0.66320  Biso   1.000  C
  C718     1.0000 0.32360  0.94560  0.69360  Biso   1.000  C
  C719     1.0000 0.34280  0.96210  0.73040  Biso   1.000  C
  H698     1.0000 0.32740  0.98380  0.74010  Biso   1.000  H
  H699     1.0000 0.36890  0.97110  0.72420  Biso   1.000  H
  H700     1.0000 0.34430  0.94190  0.75020  Biso   1.000  H
  C720     1.0000 0.38270  0.01480  0.64520  Biso   1.000  C
  H701     1.0000 0.39640  0.03050  0.62600  Biso   1.000  H
  H702     1.0000 0.38220  0.98780  0.63660  Biso   1.000  H
  H703     1.0000 0.39620  0.01650  0.67010  Biso   1.000  H
  C721     1.0000 0.34220  0.02930  0.64960  Biso   1.000  C
  C722     1.0000 0.30870  0.00820  0.65830  Biso   1.000  C
  C723     1.0000 0.27840  0.03720  0.65930  Biso   1.000  C
  C724     1.0000 0.23600  0.03310  0.66730  Biso   1.000  C
  H704     1.0000 0.22700  0.05560  0.68190  Biso   1.000  H
  H705     1.0000 0.23150  0.00950  0.68230  Biso   1.000  H
  H706     1.0000 0.22200  0.03150  0.64270  Biso   1.000  H
  C725     1.0000 0.41250  0.19800  0.65920  Biso   1.000  C
  H707     1.0000 0.42400  0.18780  0.68290  Biso   1.000  H
  H708     1.0000 0.41940  0.22530  0.65620  Biso   1.000  H
  H709     1.0000 0.42210  0.18340  0.63690  Biso   1.000  H
  C726     1.0000 0.36890  0.19420  0.66130  Biso   1.000  C
  C727     1.0000 0.34150  0.22270  0.67370  Biso   1.000  C
  C728     1.0000 0.30620  0.20410  0.66980  Biso   1.000  C
  C729     1.0000 0.26470  0.22180  0.67650  Biso   1.000  C
  H710     1.0000 0.24760  0.21410  0.65520  Biso   1.000  H
  H711     1.0000 0.26650  0.25010  0.67730  Biso   1.000  H
  H712     1.0000 0.25420  0.21230  0.70100  Biso   1.000  H
  C730     1.0000 0.37890  0.25090  0.75730  Biso   1.000  C
  H713     1.0000 0.38580  0.26790  0.77890  Biso   1.000  H
  H714     1.0000 0.40190  0.23680  0.74870  Biso   1.000  H
  H715     1.0000 0.35910  0.23250  0.76570  Biso   1.000  H
  C731     1.0000 0.36320  0.27520  0.72390  Biso   1.000  C
  C732     1.0000 0.34990  0.26310  0.68740  Biso   1.000  C
  C733     1.0000 0.34440  0.29760  0.66740  Biso   1.000  C
  C734     1.0000 0.32270  0.30380  0.62900  Biso   1.000  C
  H716     1.0000 0.32340  0.33120  0.62200  Biso   1.000  H
  H717     1.0000 0.29570  0.29550  0.63190  Biso   1.000  H
  H718     1.0000 0.33500  0.28850  0.60860  Biso   1.000  H
  C735     1.0000 0.21570  0.81450  0.66300  Biso   1.000  C
  C736     1.0000 0.17070  0.81090  0.65720  Biso   1.000  C
  C737     1.0000 0.14810  0.79490  0.68740  Biso   1.000  C
  H719     1.0000 0.15980  0.78650  0.71070  Biso   1.000  H
  C738     1.0000 0.10740  0.79180  0.68190  Biso   1.000  C
  H720     1.0000 0.09240  0.78110  0.70220  Biso   1.000  H
  C739     1.0000 0.08790  0.80380  0.64750  Biso   1.000  C
  C740     1.0000 0.11170  0.81950  0.61840  Biso   1.000  C
  H721     1.0000 0.10000  0.82790  0.59500  Biso   1.000  H
  C741     1.0000 0.15310  0.82340  0.62240  Biso   1.000  C
  H722     1.0000 0.16810  0.83410  0.60210  Biso   1.000  H
  C742     1.0000 0.04910  0.79800  0.63800  Biso   1.000  C
  C743     1.0000 0.02190  0.82660  0.64810  Biso   1.000  C
  H723     1.0000 0.03220  0.85070  0.65630  Biso   1.000  H
  C744     1.0000 0.98120  0.82360  0.64740  Biso   1.000  C
  H724     1.0000 0.96540  0.84480  0.65480  Biso   1.000  H
  C745     1.0000 0.96450  0.78840  0.63540  Biso   1.000  C
  C746     1.0000 0.98920  0.75830  0.62480  Biso   1.000  C
  H725     1.0000 0.97930  0.73410  0.61650  Biso   1.000  H
  C747     1.0000 0.02940  0.76500  0.62680  Biso   1.000  C
  H726     1.0000 0.04520  0.74380  0.61950  Biso   1.000  H
  C748     1.0000 0.92210  0.77840  0.63940  Biso   1.000  C
  O85      1.0000 0.23200  0.83410  0.64080  Biso   1.000  O
  O86      1.0000 0.23310  0.79380  0.69430  Biso   1.000  O
  O87      1.0000 0.90686  0.75010  0.62770  Biso   1.000  O
  O88      1.0000 0.90180  0.80100  0.65610  Biso   1.000  O
  Co45     1.0000 0.23004  0.87447  0.14615  Biso   1.000  Co
  Co46     1.0000 0.21312  0.15521  0.14085  Biso   1.000  Co
  N177     1.0000 0.20137  0.09954  0.15377  Biso   1.000  N
  N178     1.0000 0.18020  0.09407  0.18848  Biso   1.000  N
  N179     1.0000 0.16578  0.93205  0.14812  Biso   1.000  N
  N180     1.0000 0.20499  0.92671  0.15397  Biso   1.000  N
  N181     1.0000 0.15028  0.83900  0.15170  Biso   1.000  N
  N182     1.0000 0.19067  0.83322  0.15662  Biso   1.000  N
  N183     1.0000 0.13386  0.68555  0.22565  Biso   1.000  N
  N184     1.0000 0.14610  0.67320  0.19070  Biso   1.000  N
  H727     1.0000 0.14760  0.64880  0.18410  Biso   1.000  H
  C749     1.0000 0.23180  0.05840  0.10080  Biso   1.000  C
  H728     1.0000 0.21810  0.07200  0.08000  Biso   1.000  H
  H729     1.0000 0.23310  0.03080  0.09480  Biso   1.000  H
  H730     1.0000 0.25810  0.06880  0.10310  Biso   1.000  H
  C750     1.0000 0.20980  0.06440  0.13970  Biso   1.000  C
  C751     1.0000 0.19450  0.03420  0.16320  Biso   1.000  C
  C752     1.0000 0.17640  0.05440  0.19360  Biso   1.000  C
  C753     1.0000 0.15720  0.03790  0.23040  Biso   1.000  C
  H731     1.0000 0.17260  0.01620  0.24010  Biso   1.000  H
  H732     1.0000 0.13110  0.02890  0.22420  Biso   1.000  H
  H733     1.0000 0.15570  0.05810  0.25020  Biso   1.000  H
  C754     1.0000 0.11730  0.98520  0.14520  Biso   1.000  C
  H734     1.0000 0.10360  0.96950  0.12600  Biso   1.000  H
  H735     1.0000 0.11780  0.01220  0.13660  Biso   1.000  H
  H736     1.0000 0.10380  0.98350  0.17010  Biso   1.000  H
  C755     1.0000 0.15780  0.97070  0.14960  Biso   1.000  C
  C756     1.0000 0.19130  0.99180  0.15830  Biso   1.000  C
  C757     1.0000 0.22160  0.96280  0.15930  Biso   1.000  C
  C758     1.0000 0.26400  0.96690  0.16730  Biso   1.000  C
  H737     1.0000 0.27300  0.94440  0.18190  Biso   1.000  H
  H738     1.0000 0.26850  0.99050  0.18230  Biso   1.000  H
  H739     1.0000 0.27800  0.96850  0.14270  Biso   1.000  H
  C759     1.0000 0.08750  0.80200  0.15920  Biso   1.000  C
  H740     1.0000 0.07600  0.81220  0.18290  Biso   1.000  H
  H741     1.0000 0.08060  0.77470  0.15620  Biso   1.000  H
  H742     1.0000 0.07790  0.81660  0.13690  Biso   1.000  H
  C760     1.0000 0.13110  0.80580  0.16130  Biso   1.000  C
  C761     1.0000 0.15850  0.77730  0.17370  Biso   1.000  C
  C762     1.0000 0.19380  0.79590  0.16980  Biso   1.000  C
  C763     1.0000 0.23530  0.77820  0.17650  Biso   1.000  C
  H743     1.0000 0.25240  0.78590  0.15520  Biso   1.000  H
  H744     1.0000 0.23350  0.74990  0.17730  Biso   1.000  H
  H745     1.0000 0.24580  0.78770  0.20100  Biso   1.000  H
  C764     1.0000 0.12110  0.74910  0.25730  Biso   1.000  C
  H746     1.0000 0.11420  0.73210  0.27890  Biso   1.000  H
  H747     1.0000 0.09810  0.76320  0.24870  Biso   1.000  H
  H748     1.0000 0.14090  0.76750  0.26570  Biso   1.000  H
  C765     1.0000 0.13680  0.72480  0.22390  Biso   1.000  C
  C766     1.0000 0.15010  0.73690  0.18740  Biso   1.000  C
  C767     1.0000 0.15560  0.70240  0.16740  Biso   1.000  C
  C768     1.0000 0.17730  0.69620  0.12900  Biso   1.000  C
  H749     1.0000 0.17660  0.66880  0.12200  Biso   1.000  H
  H750     1.0000 0.20430  0.70450  0.13190  Biso   1.000  H
  H751     1.0000 0.16500  0.71150  0.10860  Biso   1.000  H
  C769     1.0000 0.28430  0.18550  0.16300  Biso   1.000  C
  C770     1.0000 0.32930  0.18910  0.15720  Biso   1.000  C
  C771     1.0000 0.35190  0.20510  0.18740  Biso   1.000  C
  H752     1.0000 0.34020  0.21350  0.21070  Biso   1.000  H
  C772     1.0000 0.39260  0.20820  0.18190  Biso   1.000  C
  H753     1.0000 0.40760  0.21890  0.20220  Biso   1.000  H
  C773     1.0000 0.41210  0.19620  0.14750  Biso   1.000  C
  C774     1.0000 0.38830  0.18050  0.11840  Biso   1.000  C
  H754     1.0000 0.40000  0.17210  0.09500  Biso   1.000  H
  C775     1.0000 0.34690  0.17660  0.12240  Biso   1.000  C
  H755     1.0000 0.33190  0.16590  0.10210  Biso   1.000  H
  C776     1.0000 0.45090  0.20200  0.13800  Biso   1.000  C
  C777     1.0000 0.47810  0.17340  0.14810  Biso   1.000  C
  H756     1.0000 0.46780  0.14930  0.15630  Biso   1.000  H
  C778     1.0000 0.51880  0.17640  0.14740  Biso   1.000  C
  H757     1.0000 0.53460  0.15520  0.15480  Biso   1.000  H
  C779     1.0000 0.53550  0.21160  0.13540  Biso   1.000  C
  C780     1.0000 0.51080  0.24170  0.12480  Biso   1.000  C
  H758     1.0000 0.52070  0.26590  0.11650  Biso   1.000  H
  C781     1.0000 0.47060  0.23500  0.12680  Biso   1.000  C
  H759     1.0000 0.45480  0.25620  0.11950  Biso   1.000  H
  C782     1.0000 0.57790  0.22160  0.13940  Biso   1.000  C
  O89      1.0000 0.26800  0.16590  0.14080  Biso   1.000  O
  O90      1.0000 0.26690  0.20620  0.19430  Biso   1.000  O
  O91      1.0000 0.59314  0.24990  0.12770  Biso   1.000  O
  O92      1.0000 0.59820  0.19900  0.15610  Biso   1.000  O
  Co47     1.0000 0.73004  0.62553  0.85385  Biso   1.000  Co
  Co48     1.0000 0.71312  0.34479  0.85915  Biso   1.000  Co
  N185     1.0000 0.70137  0.40046  0.84623  Biso   1.000  N
  N186     1.0000 0.68020  0.40593  0.81152  Biso   1.000  N
  N187     1.0000 0.66578  0.56795  0.85188  Biso   1.000  N
  N188     1.0000 0.70499  0.57329  0.84603  Biso   1.000  N
  N189     1.0000 0.65028  0.66100  0.84830  Biso   1.000  N
  N190     1.0000 0.69067  0.66678  0.84338  Biso   1.000  N
  N191     1.0000 0.63386  0.81445  0.77435  Biso   1.000  N
  N192     1.0000 0.64610  0.82680  0.80930  Biso   1.000  N
  H760     1.0000 0.64760  0.85120  0.81590  Biso   1.000  H
  C783     1.0000 0.73180  0.44160  0.89920  Biso   1.000  C
  H761     1.0000 0.71810  0.42800  0.92000  Biso   1.000  H
  H762     1.0000 0.73310  0.46920  0.90520  Biso   1.000  H
  H763     1.0000 0.75810  0.43120  0.89690  Biso   1.000  H
  C784     1.0000 0.70980  0.43560  0.86030  Biso   1.000  C
  C785     1.0000 0.69450  0.46580  0.83680  Biso   1.000  C
  C786     1.0000 0.67640  0.44560  0.80640  Biso   1.000  C
  C787     1.0000 0.65720  0.46210  0.76960  Biso   1.000  C
  H764     1.0000 0.67260  0.48380  0.75990  Biso   1.000  H
  H765     1.0000 0.63110  0.47110  0.77580  Biso   1.000  H
  H766     1.0000 0.65570  0.44190  0.74980  Biso   1.000  H
  C788     1.0000 0.61730  0.51480  0.85480  Biso   1.000  C
  H767     1.0000 0.60360  0.53050  0.87400  Biso   1.000  H
  H768     1.0000 0.61780  0.48780  0.86340  Biso   1.000  H
  H769     1.0000 0.60380  0.51650  0.82990  Biso   1.000  H
  C789     1.0000 0.65780  0.52930  0.85040  Biso   1.000  C
  C790     1.0000 0.69130  0.50820  0.84170  Biso   1.000  C
  C791     1.0000 0.72160  0.53720  0.84070  Biso   1.000  C
  C792     1.0000 0.76400  0.53310  0.83270  Biso   1.000  C
  H770     1.0000 0.77300  0.55560  0.81810  Biso   1.000  H
  H771     1.0000 0.76850  0.50950  0.81770  Biso   1.000  H
  H772     1.0000 0.77800  0.53150  0.85730  Biso   1.000  H
  C793     1.0000 0.58750  0.69800  0.84080  Biso   1.000  C
  H773     1.0000 0.57600  0.68780  0.81710  Biso   1.000  H
  H774     1.0000 0.58060  0.72530  0.84380  Biso   1.000  H
  H775     1.0000 0.57790  0.68340  0.86310  Biso   1.000  H
  C794     1.0000 0.63110  0.69420  0.83870  Biso   1.000  C
  C795     1.0000 0.65850  0.72270  0.82630  Biso   1.000  C
  C796     1.0000 0.69380  0.70410  0.83020  Biso   1.000  C
  C797     1.0000 0.73530  0.72180  0.82350  Biso   1.000  C
  H776     1.0000 0.75240  0.71410  0.84480  Biso   1.000  H
  H777     1.0000 0.73350  0.75010  0.82270  Biso   1.000  H
  H778     1.0000 0.74580  0.71230  0.79900  Biso   1.000  H
  C798     1.0000 0.62110  0.75090  0.74270  Biso   1.000  C
  H779     1.0000 0.61420  0.76790  0.72110  Biso   1.000  H
  H780     1.0000 0.59810  0.73680  0.75130  Biso   1.000  H
  H781     1.0000 0.64090  0.73250  0.73430  Biso   1.000  H
  C799     1.0000 0.63680  0.77520  0.77610  Biso   1.000  C
  C800     1.0000 0.65010  0.76310  0.81260  Biso   1.000  C
  C801     1.0000 0.65560  0.79760  0.83260  Biso   1.000  C
  C802     1.0000 0.67730  0.80380  0.87100  Biso   1.000  C
  H782     1.0000 0.67660  0.83120  0.87800  Biso   1.000  H
  H783     1.0000 0.70430  0.79550  0.86810  Biso   1.000  H
  H784     1.0000 0.66500  0.78850  0.89140  Biso   1.000  H
  C803     1.0000 0.78430  0.31450  0.83700  Biso   1.000  C
  C804     1.0000 0.82930  0.31090  0.84280  Biso   1.000  C
  C805     1.0000 0.85190  0.29490  0.81260  Biso   1.000  C
  H785     1.0000 0.84020  0.28650  0.78930  Biso   1.000  H
  C806     1.0000 0.89260  0.29180  0.81810  Biso   1.000  C
  H786     1.0000 0.90760  0.28110  0.79780  Biso   1.000  H
  C807     1.0000 0.91210  0.30380  0.85250  Biso   1.000  C
  C808     1.0000 0.88830  0.31950  0.88160  Biso   1.000  C
  H787     1.0000 0.90000  0.32790  0.90500  Biso   1.000  H
  C809     1.0000 0.84690  0.32340  0.87760  Biso   1.000  C
  H788     1.0000 0.83190  0.33410  0.89790  Biso   1.000  H
  C810     1.0000 0.95090  0.29800  0.86200  Biso   1.000  C
  C811     1.0000 0.97810  0.32660  0.85190  Biso   1.000  C
  H789     1.0000 0.96780  0.35070  0.84370  Biso   1.000  H
  C812     1.0000 0.01880  0.32360  0.85260  Biso   1.000  C
  H790     1.0000 0.03460  0.34480  0.84520  Biso   1.000  H
  C813     1.0000 0.03550  0.28840  0.86460  Biso   1.000  C
  C814     1.0000 0.01080  0.25830  0.87520  Biso   1.000  C
  H791     1.0000 0.02070  0.23410  0.88350  Biso   1.000  H
  C815     1.0000 0.97060  0.26500  0.87320  Biso   1.000  C
  H792     1.0000 0.95480  0.24380  0.88050  Biso   1.000  H
  C816     1.0000 0.07790  0.27840  0.86060  Biso   1.000  C
  O93      1.0000 0.76800  0.33410  0.85920  Biso   1.000  O
  O94      1.0000 0.76690  0.29380  0.80570  Biso   1.000  O
  O95      1.0000 0.09314  0.25010  0.87230  Biso   1.000  O
  O96      1.0000 0.09820  0.30100  0.84390  Biso   1.000  O
  Co49     1.0000 0.89025  0.14025  0.12500  Biso   1.000  Co
  Co50     1.0000 0.60975  0.85975  0.62500  Biso   1.000  Co
  Co51     1.0000 0.10975  0.64025  0.37500  Biso   1.000  Co
  Co52     1.0000 0.39025  0.35975  0.87500  Biso   1.000  Co
  Co53     1.0000 0.12500  0.89025  0.14025  Biso   1.000  Co
  Co54     1.0000 0.62500  0.60975  0.85975  Biso   1.000  Co
  Co55     1.0000 0.37500  0.10975  0.64025  Biso   1.000  Co
  Co56     1.0000 0.87500  0.39025  0.35975  Biso   1.000  Co
  Co57     1.0000 0.14025  0.12500  0.89025  Biso   1.000  Co
  Co58     1.0000 0.85975  0.62500  0.60975  Biso   1.000  Co
  Co59     1.0000 0.64025  0.37500  0.10975  Biso   1.000  Co
  Co60     1.0000 0.35975  0.87500  0.39025  Biso   1.000  Co
  Co61     1.0000 0.96490  0.46490  0.03510  Biso   1.000  Co
  O97      1.0000 0.93250  0.43250  0.06750  Biso   1.000  O
  Co62     1.0000 0.53510  0.53510  0.53510  Biso   1.000  Co
  O98      1.0000 0.56750  0.56750  0.56750  Biso   1.000  O
  Co63     1.0000 0.03510  0.96490  0.46490  Biso   1.000  Co
  O99      1.0000 0.06750  0.93250  0.43250  Biso   1.000  O
  Co64     1.0000 0.46490  0.03510  0.96490  Biso   1.000  Co
  O100     1.0000 0.43250  0.06750  0.93250  Biso   1.000  O
  Co65     1.0000 0.21490  0.21490  0.21490  Biso   1.000  Co
  O101     1.0000 0.18250  0.18250  0.18250  Biso   1.000  O
  Co66     1.0000 0.28510  0.78510  0.71490  Biso   1.000  Co
  O102     1.0000 0.31750  0.81750  0.68250  Biso   1.000  O
  Co67     1.0000 0.71490  0.28510  0.78510  Biso   1.000  Co
  O103     1.0000 0.68250  0.31750  0.81750  Biso   1.000  O
  Co68     1.0000 0.78510  0.71490  0.28510  Biso   1.000  Co
  O104     1.0000 0.81750  0.68250  0.31750  Biso   1.000  O
