data_image0
_cell_length_a       26.07
_cell_length_b       26.07
_cell_length_c       26.07
_cell_angle_alpha    90
_cell_angle_beta     90
_cell_angle_gamma    90

_symmetry_space_group_name_H-M    "P 1"
_symmetry_int_tables_number       1

loop_
  _symmetry_equiv_pos_as_xyz
  'x, y, z'

loop_
  _atom_site_label
  _atom_site_occupancy
  _atom_site_fract_x
  _atom_site_fract_y
  _atom_site_fract_z
  _atom_site_thermal_displace_type
  _atom_site_B_iso_or_equiv
  _atom_site_type_symbol
  Zr1      1.0000 0.40791  0.01568  0.51868  Biso   1.000  Zr
  O1       1.0000 0.45586  0.06235  0.47131  Biso   1.000  O
  O2       1.0000 0.35524  0.03554  0.45453  Biso   1.000  O
  O3       1.0000 0.40569  0.03656  0.38204  Biso   1.000  O
  O4       1.0000 0.11948  0.99265  0.09960  Biso   1.000  O
  O5       1.0000 0.04883  0.01579  0.14648  Biso   1.000  O
  O6       1.0000 0.29844  0.01030  0.20590  Biso   1.000  O
  C1       1.0000 0.36273  0.03699  0.40587  Biso   1.000  C
  C2       1.0000 0.31512  0.03907  0.37339  Biso   1.000  C
  C3       1.0000 0.26798  0.04730  0.39612  Biso   1.000  C
  H1       1.0000 0.26590  0.05200  0.43140  Biso   1.000  H
  C4       1.0000 0.22344  0.04860  0.36632  Biso   1.000  C
  H2       1.0000 0.19210  0.05710  0.38110  Biso   1.000  H
  C5       1.0000 0.22659  0.03740  0.31509  Biso   1.000  C
  C6       1.0000 0.27421  0.02880  0.29249  Biso   1.000  C
  C7       1.0000 0.31899  0.02970  0.32100  Biso   1.000  C
  H3       1.0000 0.35070  0.02410  0.30560  Biso   1.000  H
  C8       1.0000 0.26683  0.01780  0.23655  Biso   1.000  C
  C9       1.0000 0.09655  0.00749  0.14038  Biso   1.000  C
  C10      1.0000 0.21013  0.01970  0.22858  Biso   1.000  C
  C11      1.0000 0.18662  0.03200  0.27485  Biso   1.000  C
  C12      1.0000 0.13451  0.03810  0.27780  Biso   1.000  C
  H4       1.0000 0.11900  0.04960  0.30780  Biso   1.000  H
  C13      1.0000 0.12892  0.01545  0.18729  Biso   1.000  C
  C14      1.0000 0.10499  0.02640  0.23394  Biso   1.000  C
  H5       1.0000 0.06940  0.02600  0.23610  Biso   1.000  H
  C15      1.0000 0.18200  0.01150  0.18427  Biso   1.000  C
  H6       1.0000 0.19810  0.00360  0.15340  Biso   1.000  H
  Zr2      1.0000 0.09209  0.98432  0.01868  Biso   1.000  Zr
  O7       1.0000 0.04414  0.93765  0.97131  Biso   1.000  O
  O8       1.0000 0.14476  0.96446  0.95453  Biso   1.000  O
  O9       1.0000 0.09431  0.96344  0.88204  Biso   1.000  O
  O10      1.0000 0.38052  0.00735  0.59960  Biso   1.000  O
  O11      1.0000 0.45117  0.98421  0.64648  Biso   1.000  O
  O12      1.0000 0.20156  0.98970  0.70590  Biso   1.000  O
  C16      1.0000 0.13727  0.96301  0.90587  Biso   1.000  C
  C17      1.0000 0.18488  0.96093  0.87339  Biso   1.000  C
  C18      1.0000 0.23202  0.95270  0.89612  Biso   1.000  C
  H7       1.0000 0.23410  0.94800  0.93140  Biso   1.000  H
  C19      1.0000 0.27656  0.95140  0.86632  Biso   1.000  C
  H8       1.0000 0.30790  0.94290  0.88110  Biso   1.000  H
  C20      1.0000 0.27341  0.96260  0.81509  Biso   1.000  C
  C21      1.0000 0.22579  0.97120  0.79249  Biso   1.000  C
  C22      1.0000 0.18101  0.97030  0.82100  Biso   1.000  C
  H9       1.0000 0.14930  0.97590  0.80560  Biso   1.000  H
  C23      1.0000 0.23317  0.98220  0.73655  Biso   1.000  C
  C24      1.0000 0.40345  0.99251  0.64038  Biso   1.000  C
  C25      1.0000 0.28987  0.98030  0.72858  Biso   1.000  C
  C26      1.0000 0.31338  0.96800  0.77485  Biso   1.000  C
  C27      1.0000 0.36549  0.96190  0.77780  Biso   1.000  C
  H10      1.0000 0.38100  0.95040  0.80780  Biso   1.000  H
  C28      1.0000 0.37108  0.98455  0.68729  Biso   1.000  C
  C29      1.0000 0.39501  0.97360  0.73394  Biso   1.000  C
  H11      1.0000 0.43060  0.97400  0.73610  Biso   1.000  H
  C30      1.0000 0.31800  0.98850  0.68427  Biso   1.000  C
  H12      1.0000 0.30190  0.99640  0.65340  Biso   1.000  H
  Zr3      1.0000 0.59209  0.51568  0.98132  Biso   1.000  Zr
  O13      1.0000 0.54414  0.56235  0.02869  Biso   1.000  O
  O14      1.0000 0.64476  0.53554  0.04547  Biso   1.000  O
  O15      1.0000 0.59431  0.53656  0.11796  Biso   1.000  O
  O16      1.0000 0.88052  0.49265  0.40040  Biso   1.000  O
  O17      1.0000 0.95117  0.51579  0.35352  Biso   1.000  O
  O18      1.0000 0.70156  0.51030  0.29410  Biso   1.000  O
  C31      1.0000 0.63727  0.53699  0.09413  Biso   1.000  C
  C32      1.0000 0.68488  0.53907  0.12661  Biso   1.000  C
  C33      1.0000 0.73202  0.54730  0.10388  Biso   1.000  C
  H13      1.0000 0.73410  0.55200  0.06860  Biso   1.000  H
  C34      1.0000 0.77656  0.54860  0.13368  Biso   1.000  C
  H14      1.0000 0.80790  0.55710  0.11890  Biso   1.000  H
  C35      1.0000 0.77341  0.53740  0.18491  Biso   1.000  C
  C36      1.0000 0.72579  0.52880  0.20751  Biso   1.000  C
  C37      1.0000 0.68101  0.52970  0.17900  Biso   1.000  C
  H15      1.0000 0.64930  0.52410  0.19440  Biso   1.000  H
  C38      1.0000 0.73317  0.51780  0.26345  Biso   1.000  C
  C39      1.0000 0.90345  0.50749  0.35962  Biso   1.000  C
  C40      1.0000 0.78987  0.51970  0.27142  Biso   1.000  C
  C41      1.0000 0.81338  0.53200  0.22515  Biso   1.000  C
  C42      1.0000 0.86549  0.53810  0.22220  Biso   1.000  C
  H16      1.0000 0.88100  0.54960  0.19220  Biso   1.000  H
  C43      1.0000 0.87108  0.51545  0.31271  Biso   1.000  C
  C44      1.0000 0.89501  0.52640  0.26606  Biso   1.000  C
  H17      1.0000 0.93060  0.52600  0.26390  Biso   1.000  H
  C45      1.0000 0.81800  0.51150  0.31573  Biso   1.000  C
  H18      1.0000 0.80190  0.50360  0.34660  Biso   1.000  H
  Zr4      1.0000 0.90791  0.48432  0.48132  Biso   1.000  Zr
  O19      1.0000 0.95586  0.43765  0.52869  Biso   1.000  O
  O20      1.0000 0.85524  0.46446  0.54547  Biso   1.000  O
  O21      1.0000 0.90569  0.46344  0.61796  Biso   1.000  O
  O22      1.0000 0.61948  0.50735  0.90040  Biso   1.000  O
  O23      1.0000 0.54883  0.48421  0.85352  Biso   1.000  O
  O24      1.0000 0.79844  0.48970  0.79410  Biso   1.000  O
  C46      1.0000 0.86273  0.46301  0.59413  Biso   1.000  C
  C47      1.0000 0.81512  0.46093  0.62661  Biso   1.000  C
  C48      1.0000 0.76798  0.45270  0.60388  Biso   1.000  C
  H19      1.0000 0.76590  0.44800  0.56860  Biso   1.000  H
  C49      1.0000 0.72344  0.45140  0.63368  Biso   1.000  C
  H20      1.0000 0.69210  0.44290  0.61890  Biso   1.000  H
  C50      1.0000 0.72659  0.46260  0.68491  Biso   1.000  C
  C51      1.0000 0.77421  0.47120  0.70751  Biso   1.000  C
  C52      1.0000 0.81899  0.47030  0.67900  Biso   1.000  C
  H21      1.0000 0.85070  0.47590  0.69440  Biso   1.000  H
  C53      1.0000 0.76683  0.48220  0.76345  Biso   1.000  C
  C54      1.0000 0.59655  0.49251  0.85962  Biso   1.000  C
  C55      1.0000 0.71013  0.48030  0.77142  Biso   1.000  C
  C56      1.0000 0.68662  0.46800  0.72515  Biso   1.000  C
  C57      1.0000 0.63451  0.46190  0.72220  Biso   1.000  C
  H22      1.0000 0.61900  0.45040  0.69220  Biso   1.000  H
  C58      1.0000 0.62892  0.48455  0.81271  Biso   1.000  C
  C59      1.0000 0.60499  0.47360  0.76606  Biso   1.000  C
  H23      1.0000 0.56940  0.47400  0.76390  Biso   1.000  H
  C60      1.0000 0.68200  0.48850  0.81573  Biso   1.000  C
  H24      1.0000 0.69810  0.49640  0.84660  Biso   1.000  H
  Zr5      1.0000 0.51868  0.40791  0.01568  Biso   1.000  Zr
  O25      1.0000 0.47131  0.45586  0.06235  Biso   1.000  O
  O26      1.0000 0.45453  0.35524  0.03554  Biso   1.000  O
  O27      1.0000 0.38204  0.40569  0.03656  Biso   1.000  O
  O28      1.0000 0.09960  0.11948  0.99265  Biso   1.000  O
  O29      1.0000 0.14648  0.04883  0.01579  Biso   1.000  O
  O30      1.0000 0.20590  0.29844  0.01030  Biso   1.000  O
  C61      1.0000 0.40587  0.36273  0.03699  Biso   1.000  C
  C62      1.0000 0.37339  0.31512  0.03907  Biso   1.000  C
  C63      1.0000 0.39612  0.26798  0.04730  Biso   1.000  C
  H25      1.0000 0.43140  0.26590  0.05200  Biso   1.000  H
  C64      1.0000 0.36632  0.22344  0.04860  Biso   1.000  C
  H26      1.0000 0.38110  0.19210  0.05710  Biso   1.000  H
  C65      1.0000 0.31509  0.22659  0.03740  Biso   1.000  C
  C66      1.0000 0.29249  0.27421  0.02880  Biso   1.000  C
  C67      1.0000 0.32100  0.31899  0.02970  Biso   1.000  C
  H27      1.0000 0.30560  0.35070  0.02410  Biso   1.000  H
  C68      1.0000 0.23655  0.26683  0.01780  Biso   1.000  C
  C69      1.0000 0.14038  0.09655  0.00749  Biso   1.000  C
  C70      1.0000 0.22858  0.21013  0.01970  Biso   1.000  C
  C71      1.0000 0.27485  0.18662  0.03200  Biso   1.000  C
  C72      1.0000 0.27780  0.13451  0.03810  Biso   1.000  C
  H28      1.0000 0.30780  0.11900  0.04960  Biso   1.000  H
  C73      1.0000 0.18729  0.12892  0.01545  Biso   1.000  C
  C74      1.0000 0.23394  0.10499  0.02640  Biso   1.000  C
  H29      1.0000 0.23610  0.06940  0.02600  Biso   1.000  H
  C75      1.0000 0.18427  0.18200  0.01150  Biso   1.000  C
  H30      1.0000 0.15340  0.19810  0.00360  Biso   1.000  H
  Zr6      1.0000 0.01868  0.09209  0.98432  Biso   1.000  Zr
  O31      1.0000 0.97131  0.04414  0.93765  Biso   1.000  O
  O32      1.0000 0.95453  0.14476  0.96446  Biso   1.000  O
  O33      1.0000 0.88204  0.09431  0.96344  Biso   1.000  O
  O34      1.0000 0.59960  0.38052  0.00735  Biso   1.000  O
  O35      1.0000 0.64648  0.45117  0.98421  Biso   1.000  O
  O36      1.0000 0.70590  0.20156  0.98970  Biso   1.000  O
  C76      1.0000 0.90587  0.13727  0.96301  Biso   1.000  C
  C77      1.0000 0.87339  0.18488  0.96093  Biso   1.000  C
  C78      1.0000 0.89612  0.23202  0.95270  Biso   1.000  C
  H31      1.0000 0.93140  0.23410  0.94800  Biso   1.000  H
  C79      1.0000 0.86632  0.27656  0.95140  Biso   1.000  C
  H32      1.0000 0.88110  0.30790  0.94290  Biso   1.000  H
  C80      1.0000 0.81509  0.27341  0.96260  Biso   1.000  C
  C81      1.0000 0.79249  0.22579  0.97120  Biso   1.000  C
  C82      1.0000 0.82100  0.18101  0.97030  Biso   1.000  C
  H33      1.0000 0.80560  0.14930  0.97590  Biso   1.000  H
  C83      1.0000 0.73655  0.23317  0.98220  Biso   1.000  C
  C84      1.0000 0.64038  0.40345  0.99251  Biso   1.000  C
  C85      1.0000 0.72858  0.28987  0.98030  Biso   1.000  C
  C86      1.0000 0.77485  0.31338  0.96800  Biso   1.000  C
  C87      1.0000 0.77780  0.36549  0.96190  Biso   1.000  C
  H34      1.0000 0.80780  0.38100  0.95040  Biso   1.000  H
  C88      1.0000 0.68729  0.37108  0.98455  Biso   1.000  C
  C89      1.0000 0.73394  0.39501  0.97360  Biso   1.000  C
  H35      1.0000 0.73610  0.43060  0.97400  Biso   1.000  H
  C90      1.0000 0.68427  0.31800  0.98850  Biso   1.000  C
  H36      1.0000 0.65340  0.30190  0.99640  Biso   1.000  H
  Zr7      1.0000 0.98132  0.59209  0.51568  Biso   1.000  Zr
  O37      1.0000 0.02869  0.54414  0.56235  Biso   1.000  O
  O38      1.0000 0.04547  0.64476  0.53554  Biso   1.000  O
  O39      1.0000 0.11796  0.59431  0.53656  Biso   1.000  O
  O40      1.0000 0.40040  0.88052  0.49265  Biso   1.000  O
  O41      1.0000 0.35352  0.95117  0.51579  Biso   1.000  O
  O42      1.0000 0.29410  0.70156  0.51030  Biso   1.000  O
  C91      1.0000 0.09413  0.63727  0.53699  Biso   1.000  C
  C92      1.0000 0.12661  0.68488  0.53907  Biso   1.000  C
  C93      1.0000 0.10388  0.73202  0.54730  Biso   1.000  C
  H37      1.0000 0.06860  0.73410  0.55200  Biso   1.000  H
  C94      1.0000 0.13368  0.77656  0.54860  Biso   1.000  C
  H38      1.0000 0.11890  0.80790  0.55710  Biso   1.000  H
  C95      1.0000 0.18491  0.77341  0.53740  Biso   1.000  C
  C96      1.0000 0.20751  0.72579  0.52880  Biso   1.000  C
  C97      1.0000 0.17900  0.68101  0.52970  Biso   1.000  C
  H39      1.0000 0.19440  0.64930  0.52410  Biso   1.000  H
  C98      1.0000 0.26345  0.73317  0.51780  Biso   1.000  C
  C99      1.0000 0.35962  0.90345  0.50749  Biso   1.000  C
  C100     1.0000 0.27142  0.78987  0.51970  Biso   1.000  C
  C101     1.0000 0.22515  0.81338  0.53200  Biso   1.000  C
  C102     1.0000 0.22220  0.86549  0.53810  Biso   1.000  C
  H40      1.0000 0.19220  0.88100  0.54960  Biso   1.000  H
  C103     1.0000 0.31271  0.87108  0.51545  Biso   1.000  C
  C104     1.0000 0.26606  0.89501  0.52640  Biso   1.000  C
  H41      1.0000 0.26390  0.93060  0.52600  Biso   1.000  H
  C105     1.0000 0.31573  0.81800  0.51150  Biso   1.000  C
  H42      1.0000 0.34660  0.80190  0.50360  Biso   1.000  H
  Zr8      1.0000 0.48132  0.90791  0.48432  Biso   1.000  Zr
  O43      1.0000 0.52869  0.95586  0.43765  Biso   1.000  O
  O44      1.0000 0.54547  0.85524  0.46446  Biso   1.000  O
  O45      1.0000 0.61796  0.90569  0.46344  Biso   1.000  O
  O46      1.0000 0.90040  0.61948  0.50735  Biso   1.000  O
  O47      1.0000 0.85352  0.54883  0.48421  Biso   1.000  O
  O48      1.0000 0.79410  0.79844  0.48970  Biso   1.000  O
  C106     1.0000 0.59413  0.86273  0.46301  Biso   1.000  C
  C107     1.0000 0.62661  0.81512  0.46093  Biso   1.000  C
  C108     1.0000 0.60388  0.76798  0.45270  Biso   1.000  C
  H43      1.0000 0.56860  0.76590  0.44800  Biso   1.000  H
  C109     1.0000 0.63368  0.72344  0.45140  Biso   1.000  C
  H44      1.0000 0.61890  0.69210  0.44290  Biso   1.000  H
  C110     1.0000 0.68491  0.72659  0.46260  Biso   1.000  C
  C111     1.0000 0.70751  0.77421  0.47120  Biso   1.000  C
  C112     1.0000 0.67900  0.81899  0.47030  Biso   1.000  C
  H45      1.0000 0.69440  0.85070  0.47590  Biso   1.000  H
  C113     1.0000 0.76345  0.76683  0.48220  Biso   1.000  C
  C114     1.0000 0.85962  0.59655  0.49251  Biso   1.000  C
  C115     1.0000 0.77142  0.71013  0.48030  Biso   1.000  C
  C116     1.0000 0.72515  0.68662  0.46800  Biso   1.000  C
  C117     1.0000 0.72220  0.63451  0.46190  Biso   1.000  C
  H46      1.0000 0.69220  0.61900  0.45040  Biso   1.000  H
  C118     1.0000 0.81271  0.62892  0.48455  Biso   1.000  C
  C119     1.0000 0.76606  0.60499  0.47360  Biso   1.000  C
  H47      1.0000 0.76390  0.56940  0.47400  Biso   1.000  H
  C120     1.0000 0.81573  0.68200  0.48850  Biso   1.000  C
  H48      1.0000 0.84660  0.69810  0.49640  Biso   1.000  H
  Zr9      1.0000 0.01568  0.51868  0.40791  Biso   1.000  Zr
  O49      1.0000 0.06235  0.47131  0.45586  Biso   1.000  O
  O50      1.0000 0.03554  0.45453  0.35524  Biso   1.000  O
  O51      1.0000 0.03656  0.38204  0.40569  Biso   1.000  O
  O52      1.0000 0.99265  0.09960  0.11948  Biso   1.000  O
  O53      1.0000 0.01579  0.14648  0.04883  Biso   1.000  O
  O54      1.0000 0.01030  0.20590  0.29844  Biso   1.000  O
  C121     1.0000 0.03699  0.40587  0.36273  Biso   1.000  C
  C122     1.0000 0.03907  0.37339  0.31512  Biso   1.000  C
  C123     1.0000 0.04730  0.39612  0.26798  Biso   1.000  C
  H49      1.0000 0.05200  0.43140  0.26590  Biso   1.000  H
  C124     1.0000 0.04860  0.36632  0.22344  Biso   1.000  C
  H50      1.0000 0.05710  0.38110  0.19210  Biso   1.000  H
  C125     1.0000 0.03740  0.31509  0.22659  Biso   1.000  C
  C126     1.0000 0.02880  0.29249  0.27421  Biso   1.000  C
  C127     1.0000 0.02970  0.32100  0.31899  Biso   1.000  C
  H51      1.0000 0.02410  0.30560  0.35070  Biso   1.000  H
  C128     1.0000 0.01780  0.23655  0.26683  Biso   1.000  C
  C129     1.0000 0.00749  0.14038  0.09655  Biso   1.000  C
  C130     1.0000 0.01970  0.22858  0.21013  Biso   1.000  C
  C131     1.0000 0.03200  0.27485  0.18662  Biso   1.000  C
  C132     1.0000 0.03810  0.27780  0.13451  Biso   1.000  C
  H52      1.0000 0.04960  0.30780  0.11900  Biso   1.000  H
  C133     1.0000 0.01545  0.18729  0.12892  Biso   1.000  C
  C134     1.0000 0.02640  0.23394  0.10499  Biso   1.000  C
  H53      1.0000 0.02600  0.23610  0.06940  Biso   1.000  H
  C135     1.0000 0.01150  0.18427  0.18200  Biso   1.000  C
  H54      1.0000 0.00360  0.15340  0.19810  Biso   1.000  H
  Zr10     1.0000 0.98432  0.01868  0.09209  Biso   1.000  Zr
  O55      1.0000 0.93765  0.97131  0.04414  Biso   1.000  O
  O56      1.0000 0.96446  0.95453  0.14476  Biso   1.000  O
  O57      1.0000 0.96344  0.88204  0.09431  Biso   1.000  O
  O58      1.0000 0.00735  0.59960  0.38052  Biso   1.000  O
  O59      1.0000 0.98421  0.64648  0.45117  Biso   1.000  O
  O60      1.0000 0.98970  0.70590  0.20156  Biso   1.000  O
  C136     1.0000 0.96301  0.90587  0.13727  Biso   1.000  C
  C137     1.0000 0.96093  0.87339  0.18488  Biso   1.000  C
  C138     1.0000 0.95270  0.89612  0.23202  Biso   1.000  C
  H55      1.0000 0.94800  0.93140  0.23410  Biso   1.000  H
  C139     1.0000 0.95140  0.86632  0.27656  Biso   1.000  C
  H56      1.0000 0.94290  0.88110  0.30790  Biso   1.000  H
  C140     1.0000 0.96260  0.81509  0.27341  Biso   1.000  C
  C141     1.0000 0.97120  0.79249  0.22579  Biso   1.000  C
  C142     1.0000 0.97030  0.82100  0.18101  Biso   1.000  C
  H57      1.0000 0.97590  0.80560  0.14930  Biso   1.000  H
  C143     1.0000 0.98220  0.73655  0.23317  Biso   1.000  C
  C144     1.0000 0.99251  0.64038  0.40345  Biso   1.000  C
  C145     1.0000 0.98030  0.72858  0.28987  Biso   1.000  C
  C146     1.0000 0.96800  0.77485  0.31338  Biso   1.000  C
  C147     1.0000 0.96190  0.77780  0.36549  Biso   1.000  C
  H58      1.0000 0.95040  0.80780  0.38100  Biso   1.000  H
  C148     1.0000 0.98455  0.68729  0.37108  Biso   1.000  C
  C149     1.0000 0.97360  0.73394  0.39501  Biso   1.000  C
  H59      1.0000 0.97400  0.73610  0.43060  Biso   1.000  H
  C150     1.0000 0.98850  0.68427  0.31800  Biso   1.000  C
  H60      1.0000 0.99640  0.65340  0.30190  Biso   1.000  H
  Zr11     1.0000 0.51568  0.98132  0.59209  Biso   1.000  Zr
  O61      1.0000 0.56235  0.02869  0.54414  Biso   1.000  O
  O62      1.0000 0.53554  0.04547  0.64476  Biso   1.000  O
  O63      1.0000 0.53656  0.11796  0.59431  Biso   1.000  O
  O64      1.0000 0.49265  0.40040  0.88052  Biso   1.000  O
  O65      1.0000 0.51579  0.35352  0.95117  Biso   1.000  O
  O66      1.0000 0.51030  0.29410  0.70156  Biso   1.000  O
  C151     1.0000 0.53699  0.09413  0.63727  Biso   1.000  C
  C152     1.0000 0.53907  0.12661  0.68488  Biso   1.000  C
  C153     1.0000 0.54730  0.10388  0.73202  Biso   1.000  C
  H61      1.0000 0.55200  0.06860  0.73410  Biso   1.000  H
  C154     1.0000 0.54860  0.13368  0.77656  Biso   1.000  C
  H62      1.0000 0.55710  0.11890  0.80790  Biso   1.000  H
  C155     1.0000 0.53740  0.18491  0.77341  Biso   1.000  C
  C156     1.0000 0.52880  0.20751  0.72579  Biso   1.000  C
  C157     1.0000 0.52970  0.17900  0.68101  Biso   1.000  C
  H63      1.0000 0.52410  0.19440  0.64930  Biso   1.000  H
  C158     1.0000 0.51780  0.26345  0.73317  Biso   1.000  C
  C159     1.0000 0.50749  0.35962  0.90345  Biso   1.000  C
  C160     1.0000 0.51970  0.27142  0.78987  Biso   1.000  C
  C161     1.0000 0.53200  0.22515  0.81338  Biso   1.000  C
  C162     1.0000 0.53810  0.22220  0.86549  Biso   1.000  C
  H64      1.0000 0.54960  0.19220  0.88100  Biso   1.000  H
  C163     1.0000 0.51545  0.31271  0.87108  Biso   1.000  C
  C164     1.0000 0.52640  0.26606  0.89501  Biso   1.000  C
  H65      1.0000 0.52600  0.26390  0.93060  Biso   1.000  H
  C165     1.0000 0.51150  0.31573  0.81800  Biso   1.000  C
  H66      1.0000 0.50360  0.34660  0.80190  Biso   1.000  H
  Zr12     1.0000 0.48432  0.48132  0.90791  Biso   1.000  Zr
  O67      1.0000 0.43765  0.52869  0.95586  Biso   1.000  O
  O68      1.0000 0.46446  0.54547  0.85524  Biso   1.000  O
  O69      1.0000 0.46344  0.61796  0.90569  Biso   1.000  O
  O70      1.0000 0.50735  0.90040  0.61948  Biso   1.000  O
  O71      1.0000 0.48421  0.85352  0.54883  Biso   1.000  O
  O72      1.0000 0.48970  0.79410  0.79844  Biso   1.000  O
  C166     1.0000 0.46301  0.59413  0.86273  Biso   1.000  C
  C167     1.0000 0.46093  0.62661  0.81512  Biso   1.000  C
  C168     1.0000 0.45270  0.60388  0.76798  Biso   1.000  C
  H67      1.0000 0.44800  0.56860  0.76590  Biso   1.000  H
  C169     1.0000 0.45140  0.63368  0.72344  Biso   1.000  C
  H68      1.0000 0.44290  0.61890  0.69210  Biso   1.000  H
  C170     1.0000 0.46260  0.68491  0.72659  Biso   1.000  C
  C171     1.0000 0.47120  0.70751  0.77421  Biso   1.000  C
  C172     1.0000 0.47030  0.67900  0.81899  Biso   1.000  C
  H69      1.0000 0.47590  0.69440  0.85070  Biso   1.000  H
  C173     1.0000 0.48220  0.76345  0.76683  Biso   1.000  C
  C174     1.0000 0.49251  0.85962  0.59655  Biso   1.000  C
  C175     1.0000 0.48030  0.77142  0.71013  Biso   1.000  C
  C176     1.0000 0.46800  0.72515  0.68662  Biso   1.000  C
  C177     1.0000 0.46190  0.72220  0.63451  Biso   1.000  C
  H70      1.0000 0.45040  0.69220  0.61900  Biso   1.000  H
  C178     1.0000 0.48455  0.81271  0.62892  Biso   1.000  C
  C179     1.0000 0.47360  0.76606  0.60499  Biso   1.000  C
  H71      1.0000 0.47400  0.76390  0.56940  Biso   1.000  H
  C180     1.0000 0.48850  0.81573  0.68200  Biso   1.000  C
  H72      1.0000 0.49640  0.84660  0.69810  Biso   1.000  H
  Zr13     1.0000 0.59209  0.98432  0.48132  Biso   1.000  Zr
  O73      1.0000 0.54414  0.93765  0.52869  Biso   1.000  O
  O74      1.0000 0.64476  0.96446  0.54547  Biso   1.000  O
  O75      1.0000 0.59431  0.96344  0.61796  Biso   1.000  O
  O76      1.0000 0.88052  0.00735  0.90040  Biso   1.000  O
  O77      1.0000 0.95117  0.98421  0.85352  Biso   1.000  O
  O78      1.0000 0.70156  0.98970  0.79410  Biso   1.000  O
  C181     1.0000 0.63727  0.96301  0.59413  Biso   1.000  C
  C182     1.0000 0.68488  0.96093  0.62661  Biso   1.000  C
  C183     1.0000 0.73202  0.95270  0.60388  Biso   1.000  C
  H73      1.0000 0.73410  0.94800  0.56860  Biso   1.000  H
  C184     1.0000 0.77656  0.95140  0.63368  Biso   1.000  C
  H74      1.0000 0.80790  0.94290  0.61890  Biso   1.000  H
  C185     1.0000 0.77341  0.96260  0.68491  Biso   1.000  C
  C186     1.0000 0.72579  0.97120  0.70751  Biso   1.000  C
  C187     1.0000 0.68101  0.97030  0.67900  Biso   1.000  C
  H75      1.0000 0.64930  0.97590  0.69440  Biso   1.000  H
  C188     1.0000 0.73317  0.98220  0.76345  Biso   1.000  C
  C189     1.0000 0.90345  0.99251  0.85962  Biso   1.000  C
  C190     1.0000 0.78987  0.98030  0.77142  Biso   1.000  C
  C191     1.0000 0.81338  0.96800  0.72515  Biso   1.000  C
  C192     1.0000 0.86549  0.96190  0.72220  Biso   1.000  C
  H76      1.0000 0.88100  0.95040  0.69220  Biso   1.000  H
  C193     1.0000 0.87108  0.98455  0.81271  Biso   1.000  C
  C194     1.0000 0.89501  0.97360  0.76606  Biso   1.000  C
  H77      1.0000 0.93060  0.97400  0.76390  Biso   1.000  H
  C195     1.0000 0.81800  0.98850  0.81573  Biso   1.000  C
  H78      1.0000 0.80190  0.99640  0.84660  Biso   1.000  H
  Zr14     1.0000 0.90791  0.01568  0.98132  Biso   1.000  Zr
  O79      1.0000 0.95586  0.06235  0.02869  Biso   1.000  O
  O80      1.0000 0.85524  0.03554  0.04547  Biso   1.000  O
  O81      1.0000 0.90569  0.03656  0.11796  Biso   1.000  O
  O82      1.0000 0.61948  0.99265  0.40040  Biso   1.000  O
  O83      1.0000 0.54883  0.01579  0.35352  Biso   1.000  O
  O84      1.0000 0.79844  0.01030  0.29410  Biso   1.000  O
  C196     1.0000 0.86273  0.03699  0.09413  Biso   1.000  C
  C197     1.0000 0.81512  0.03907  0.12661  Biso   1.000  C
  C198     1.0000 0.76798  0.04730  0.10388  Biso   1.000  C
  H79      1.0000 0.76590  0.05200  0.06860  Biso   1.000  H
  C199     1.0000 0.72344  0.04860  0.13368  Biso   1.000  C
  H80      1.0000 0.69210  0.05710  0.11890  Biso   1.000  H
  C200     1.0000 0.72659  0.03740  0.18491  Biso   1.000  C
  C201     1.0000 0.77421  0.02880  0.20751  Biso   1.000  C
  C202     1.0000 0.81899  0.02970  0.17900  Biso   1.000  C
  H81      1.0000 0.85070  0.02410  0.19440  Biso   1.000  H
  C203     1.0000 0.76683  0.01780  0.26345  Biso   1.000  C
  C204     1.0000 0.59655  0.00749  0.35962  Biso   1.000  C
  C205     1.0000 0.71013  0.01970  0.27142  Biso   1.000  C
  C206     1.0000 0.68662  0.03200  0.22515  Biso   1.000  C
  C207     1.0000 0.63451  0.03810  0.22220  Biso   1.000  C
  H82      1.0000 0.61900  0.04960  0.19220  Biso   1.000  H
  C208     1.0000 0.62892  0.01545  0.31271  Biso   1.000  C
  C209     1.0000 0.60499  0.02640  0.26606  Biso   1.000  C
  H83      1.0000 0.56940  0.02600  0.26390  Biso   1.000  H
  C210     1.0000 0.68200  0.01150  0.31573  Biso   1.000  C
  H84      1.0000 0.69810  0.00360  0.34660  Biso   1.000  H
  Zr15     1.0000 0.40791  0.48432  0.01868  Biso   1.000  Zr
  O85      1.0000 0.45586  0.43765  0.97131  Biso   1.000  O
  O86      1.0000 0.35524  0.46446  0.95453  Biso   1.000  O
  O87      1.0000 0.40569  0.46344  0.88204  Biso   1.000  O
  O88      1.0000 0.11948  0.50735  0.59960  Biso   1.000  O
  O89      1.0000 0.04883  0.48421  0.64648  Biso   1.000  O
  O90      1.0000 0.29844  0.48970  0.70590  Biso   1.000  O
  C211     1.0000 0.36273  0.46301  0.90587  Biso   1.000  C
  C212     1.0000 0.31512  0.46093  0.87339  Biso   1.000  C
  C213     1.0000 0.26798  0.45270  0.89612  Biso   1.000  C
  H85      1.0000 0.26590  0.44800  0.93140  Biso   1.000  H
  C214     1.0000 0.22344  0.45140  0.86632  Biso   1.000  C
  H86      1.0000 0.19210  0.44290  0.88110  Biso   1.000  H
  C215     1.0000 0.22659  0.46260  0.81509  Biso   1.000  C
  C216     1.0000 0.27421  0.47120  0.79249  Biso   1.000  C
  C217     1.0000 0.31899  0.47030  0.82100  Biso   1.000  C
  H87      1.0000 0.35070  0.47590  0.80560  Biso   1.000  H
  C218     1.0000 0.26683  0.48220  0.73655  Biso   1.000  C
  C219     1.0000 0.09655  0.49251  0.64038  Biso   1.000  C
  C220     1.0000 0.21013  0.48030  0.72858  Biso   1.000  C
  C221     1.0000 0.18662  0.46800  0.77485  Biso   1.000  C
  C222     1.0000 0.13451  0.46190  0.77780  Biso   1.000  C
  H88      1.0000 0.11900  0.45040  0.80780  Biso   1.000  H
  C223     1.0000 0.12892  0.48455  0.68729  Biso   1.000  C
  C224     1.0000 0.10499  0.47360  0.73394  Biso   1.000  C
  H89      1.0000 0.06940  0.47400  0.73610  Biso   1.000  H
  C225     1.0000 0.18200  0.48850  0.68427  Biso   1.000  C
  H90      1.0000 0.19810  0.49640  0.65340  Biso   1.000  H
  Zr16     1.0000 0.09209  0.51568  0.51868  Biso   1.000  Zr
  O91      1.0000 0.04414  0.56235  0.47131  Biso   1.000  O
  O92      1.0000 0.14476  0.53554  0.45453  Biso   1.000  O
  O93      1.0000 0.09431  0.53656  0.38204  Biso   1.000  O
  O94      1.0000 0.38052  0.49265  0.09960  Biso   1.000  O
  O95      1.0000 0.45117  0.51579  0.14648  Biso   1.000  O
  O96      1.0000 0.20156  0.51030  0.20590  Biso   1.000  O
  C226     1.0000 0.13727  0.53699  0.40587  Biso   1.000  C
  C227     1.0000 0.18488  0.53907  0.37339  Biso   1.000  C
  C228     1.0000 0.23202  0.54730  0.39612  Biso   1.000  C
  H91      1.0000 0.23410  0.55200  0.43140  Biso   1.000  H
  C229     1.0000 0.27656  0.54860  0.36632  Biso   1.000  C
  H92      1.0000 0.30790  0.55710  0.38110  Biso   1.000  H
  C230     1.0000 0.27341  0.53740  0.31509  Biso   1.000  C
  C231     1.0000 0.22579  0.52880  0.29249  Biso   1.000  C
  C232     1.0000 0.18101  0.52970  0.32100  Biso   1.000  C
  H93      1.0000 0.14930  0.52410  0.30560  Biso   1.000  H
  C233     1.0000 0.23317  0.51780  0.23655  Biso   1.000  C
  C234     1.0000 0.40345  0.50749  0.14038  Biso   1.000  C
  C235     1.0000 0.28987  0.51970  0.22858  Biso   1.000  C
  C236     1.0000 0.31338  0.53200  0.27485  Biso   1.000  C
  C237     1.0000 0.36549  0.53810  0.27780  Biso   1.000  C
  H94      1.0000 0.38100  0.54960  0.30780  Biso   1.000  H
  C238     1.0000 0.37108  0.51545  0.18729  Biso   1.000  C
  C239     1.0000 0.39501  0.52640  0.23394  Biso   1.000  C
  H95      1.0000 0.43060  0.52600  0.23610  Biso   1.000  H
  C240     1.0000 0.31800  0.51150  0.18427  Biso   1.000  C
  H96      1.0000 0.30190  0.50360  0.15340  Biso   1.000  H
  Zr17     1.0000 0.48132  0.59209  0.98432  Biso   1.000  Zr
  O97      1.0000 0.52869  0.54414  0.93765  Biso   1.000  O
  O98      1.0000 0.54547  0.64476  0.96446  Biso   1.000  O
  O99      1.0000 0.61796  0.59431  0.96344  Biso   1.000  O
  O100     1.0000 0.90040  0.88052  0.00735  Biso   1.000  O
  O101     1.0000 0.85352  0.95117  0.98421  Biso   1.000  O
  O102     1.0000 0.79410  0.70156  0.98970  Biso   1.000  O
  C241     1.0000 0.59413  0.63727  0.96301  Biso   1.000  C
  C242     1.0000 0.62661  0.68488  0.96093  Biso   1.000  C
  C243     1.0000 0.60388  0.73202  0.95270  Biso   1.000  C
  H97      1.0000 0.56860  0.73410  0.94800  Biso   1.000  H
  C244     1.0000 0.63368  0.77656  0.95140  Biso   1.000  C
  H98      1.0000 0.61890  0.80790  0.94290  Biso   1.000  H
  C245     1.0000 0.68491  0.77341  0.96260  Biso   1.000  C
  C246     1.0000 0.70751  0.72579  0.97120  Biso   1.000  C
  C247     1.0000 0.67900  0.68101  0.97030  Biso   1.000  C
  H99      1.0000 0.69440  0.64930  0.97590  Biso   1.000  H
  C248     1.0000 0.76345  0.73317  0.98220  Biso   1.000  C
  C249     1.0000 0.85962  0.90345  0.99251  Biso   1.000  C
  C250     1.0000 0.77142  0.78987  0.98030  Biso   1.000  C
  C251     1.0000 0.72515  0.81338  0.96800  Biso   1.000  C
  C252     1.0000 0.72220  0.86549  0.96190  Biso   1.000  C
  H100     1.0000 0.69220  0.88100  0.95040  Biso   1.000  H
  C253     1.0000 0.81271  0.87108  0.98455  Biso   1.000  C
  C254     1.0000 0.76606  0.89501  0.97360  Biso   1.000  C
  H101     1.0000 0.76390  0.93060  0.97400  Biso   1.000  H
  C255     1.0000 0.81573  0.81800  0.98850  Biso   1.000  C
  H102     1.0000 0.84660  0.80190  0.99640  Biso   1.000  H
  Zr18     1.0000 0.98132  0.90791  0.01568  Biso   1.000  Zr
  O103     1.0000 0.02869  0.95586  0.06235  Biso   1.000  O
  O104     1.0000 0.04547  0.85524  0.03554  Biso   1.000  O
  O105     1.0000 0.11796  0.90569  0.03656  Biso   1.000  O
  O106     1.0000 0.40040  0.61948  0.99265  Biso   1.000  O
  O107     1.0000 0.35352  0.54883  0.01579  Biso   1.000  O
  O108     1.0000 0.29410  0.79844  0.01030  Biso   1.000  O
  C256     1.0000 0.09413  0.86273  0.03699  Biso   1.000  C
  C257     1.0000 0.12661  0.81512  0.03907  Biso   1.000  C
  C258     1.0000 0.10388  0.76798  0.04730  Biso   1.000  C
  H103     1.0000 0.06860  0.76590  0.05200  Biso   1.000  H
  C259     1.0000 0.13368  0.72344  0.04860  Biso   1.000  C
  H104     1.0000 0.11890  0.69210  0.05710  Biso   1.000  H
  C260     1.0000 0.18491  0.72659  0.03740  Biso   1.000  C
  C261     1.0000 0.20751  0.77421  0.02880  Biso   1.000  C
  C262     1.0000 0.17900  0.81899  0.02970  Biso   1.000  C
  H105     1.0000 0.19440  0.85070  0.02410  Biso   1.000  H
  C263     1.0000 0.26345  0.76683  0.01780  Biso   1.000  C
  C264     1.0000 0.35962  0.59655  0.00749  Biso   1.000  C
  C265     1.0000 0.27142  0.71013  0.01970  Biso   1.000  C
  C266     1.0000 0.22515  0.68662  0.03200  Biso   1.000  C
  C267     1.0000 0.22220  0.63451  0.03810  Biso   1.000  C
  H106     1.0000 0.19220  0.61900  0.04960  Biso   1.000  H
  C268     1.0000 0.31271  0.62892  0.01545  Biso   1.000  C
  C269     1.0000 0.26606  0.60499  0.02640  Biso   1.000  C
  H107     1.0000 0.26390  0.56940  0.02600  Biso   1.000  H
  C270     1.0000 0.31573  0.68200  0.01150  Biso   1.000  C
  H108     1.0000 0.34660  0.69810  0.00360  Biso   1.000  H
  Zr19     1.0000 0.01868  0.40791  0.48432  Biso   1.000  Zr
  O109     1.0000 0.97131  0.45586  0.43765  Biso   1.000  O
  O110     1.0000 0.95453  0.35524  0.46446  Biso   1.000  O
  O111     1.0000 0.88204  0.40569  0.46344  Biso   1.000  O
  O112     1.0000 0.59960  0.11948  0.50735  Biso   1.000  O
  O113     1.0000 0.64648  0.04883  0.48421  Biso   1.000  O
  O114     1.0000 0.70590  0.29844  0.48970  Biso   1.000  O
  C271     1.0000 0.90587  0.36273  0.46301  Biso   1.000  C
  C272     1.0000 0.87339  0.31512  0.46093  Biso   1.000  C
  C273     1.0000 0.89612  0.26798  0.45270  Biso   1.000  C
  H109     1.0000 0.93140  0.26590  0.44800  Biso   1.000  H
  C274     1.0000 0.86632  0.22344  0.45140  Biso   1.000  C
  H110     1.0000 0.88110  0.19210  0.44290  Biso   1.000  H
  C275     1.0000 0.81509  0.22659  0.46260  Biso   1.000  C
  C276     1.0000 0.79249  0.27421  0.47120  Biso   1.000  C
  C277     1.0000 0.82100  0.31899  0.47030  Biso   1.000  C
  H111     1.0000 0.80560  0.35070  0.47590  Biso   1.000  H
  C278     1.0000 0.73655  0.26683  0.48220  Biso   1.000  C
  C279     1.0000 0.64038  0.09655  0.49251  Biso   1.000  C
  C280     1.0000 0.72858  0.21013  0.48030  Biso   1.000  C
  C281     1.0000 0.77485  0.18662  0.46800  Biso   1.000  C
  C282     1.0000 0.77780  0.13451  0.46190  Biso   1.000  C
  H112     1.0000 0.80780  0.11900  0.45040  Biso   1.000  H
  C283     1.0000 0.68729  0.12892  0.48455  Biso   1.000  C
  C284     1.0000 0.73394  0.10499  0.47360  Biso   1.000  C
  H113     1.0000 0.73610  0.06940  0.47400  Biso   1.000  H
  C285     1.0000 0.68427  0.18200  0.48850  Biso   1.000  C
  H114     1.0000 0.65340  0.19810  0.49640  Biso   1.000  H
  Zr20     1.0000 0.51868  0.09209  0.51568  Biso   1.000  Zr
  O115     1.0000 0.47131  0.04414  0.56235  Biso   1.000  O
  O116     1.0000 0.45453  0.14476  0.53554  Biso   1.000  O
  O117     1.0000 0.38204  0.09431  0.53656  Biso   1.000  O
  O118     1.0000 0.09960  0.38052  0.49265  Biso   1.000  O
  O119     1.0000 0.14648  0.45117  0.51579  Biso   1.000  O
  O120     1.0000 0.20590  0.20156  0.51030  Biso   1.000  O
  C286     1.0000 0.40587  0.13727  0.53699  Biso   1.000  C
  C287     1.0000 0.37339  0.18488  0.53907  Biso   1.000  C
  C288     1.0000 0.39612  0.23202  0.54730  Biso   1.000  C
  H115     1.0000 0.43140  0.23410  0.55200  Biso   1.000  H
  C289     1.0000 0.36632  0.27656  0.54860  Biso   1.000  C
  H116     1.0000 0.38110  0.30790  0.55710  Biso   1.000  H
  C290     1.0000 0.31509  0.27341  0.53740  Biso   1.000  C
  C291     1.0000 0.29249  0.22579  0.52880  Biso   1.000  C
  C292     1.0000 0.32100  0.18101  0.52970  Biso   1.000  C
  H117     1.0000 0.30560  0.14930  0.52410  Biso   1.000  H
  C293     1.0000 0.23655  0.23317  0.51780  Biso   1.000  C
  C294     1.0000 0.14038  0.40345  0.50749  Biso   1.000  C
  C295     1.0000 0.22858  0.28987  0.51970  Biso   1.000  C
  C296     1.0000 0.27485  0.31338  0.53200  Biso   1.000  C
  C297     1.0000 0.27780  0.36549  0.53810  Biso   1.000  C
  H118     1.0000 0.30780  0.38100  0.54960  Biso   1.000  H
  C298     1.0000 0.18729  0.37108  0.51545  Biso   1.000  C
  C299     1.0000 0.23394  0.39501  0.52640  Biso   1.000  C
  H119     1.0000 0.23610  0.43060  0.52600  Biso   1.000  H
  C300     1.0000 0.18427  0.31800  0.51150  Biso   1.000  C
  H120     1.0000 0.15340  0.30190  0.50360  Biso   1.000  H
  Zr21     1.0000 0.98432  0.48132  0.59209  Biso   1.000  Zr
  O121     1.0000 0.93765  0.52869  0.54414  Biso   1.000  O
  O122     1.0000 0.96446  0.54547  0.64476  Biso   1.000  O
  O123     1.0000 0.96344  0.61796  0.59431  Biso   1.000  O
  O124     1.0000 0.00735  0.90040  0.88052  Biso   1.000  O
  O125     1.0000 0.98421  0.85352  0.95117  Biso   1.000  O
  O126     1.0000 0.98970  0.79410  0.70156  Biso   1.000  O
  C301     1.0000 0.96301  0.59413  0.63727  Biso   1.000  C
  C302     1.0000 0.96093  0.62661  0.68488  Biso   1.000  C
  C303     1.0000 0.95270  0.60388  0.73202  Biso   1.000  C
  H121     1.0000 0.94800  0.56860  0.73410  Biso   1.000  H
  C304     1.0000 0.95140  0.63368  0.77656  Biso   1.000  C
  H122     1.0000 0.94290  0.61890  0.80790  Biso   1.000  H
  C305     1.0000 0.96260  0.68491  0.77341  Biso   1.000  C
  C306     1.0000 0.97120  0.70751  0.72579  Biso   1.000  C
  C307     1.0000 0.97030  0.67900  0.68101  Biso   1.000  C
  H123     1.0000 0.97590  0.69440  0.64930  Biso   1.000  H
  C308     1.0000 0.98220  0.76345  0.73317  Biso   1.000  C
  C309     1.0000 0.99251  0.85962  0.90345  Biso   1.000  C
  C310     1.0000 0.98030  0.77142  0.78987  Biso   1.000  C
  C311     1.0000 0.96800  0.72515  0.81338  Biso   1.000  C
  C312     1.0000 0.96190  0.72220  0.86549  Biso   1.000  C
  H124     1.0000 0.95040  0.69220  0.88100  Biso   1.000  H
  C313     1.0000 0.98455  0.81271  0.87108  Biso   1.000  C
  C314     1.0000 0.97360  0.76606  0.89501  Biso   1.000  C
  H125     1.0000 0.97400  0.76390  0.93060  Biso   1.000  H
  C315     1.0000 0.98850  0.81573  0.81800  Biso   1.000  C
  H126     1.0000 0.99640  0.84660  0.80190  Biso   1.000  H
  Zr22     1.0000 0.01568  0.98132  0.90791  Biso   1.000  Zr
  O127     1.0000 0.06235  0.02869  0.95586  Biso   1.000  O
  O128     1.0000 0.03554  0.04547  0.85524  Biso   1.000  O
  O129     1.0000 0.03656  0.11796  0.90569  Biso   1.000  O
  O130     1.0000 0.99265  0.40040  0.61948  Biso   1.000  O
  O131     1.0000 0.01579  0.35352  0.54883  Biso   1.000  O
  O132     1.0000 0.01030  0.29410  0.79844  Biso   1.000  O
  C316     1.0000 0.03699  0.09413  0.86273  Biso   1.000  C
  C317     1.0000 0.03907  0.12661  0.81512  Biso   1.000  C
  C318     1.0000 0.04730  0.10388  0.76798  Biso   1.000  C
  H127     1.0000 0.05200  0.06860  0.76590  Biso   1.000  H
  C319     1.0000 0.04860  0.13368  0.72344  Biso   1.000  C
  H128     1.0000 0.05710  0.11890  0.69210  Biso   1.000  H
  C320     1.0000 0.03740  0.18491  0.72659  Biso   1.000  C
  C321     1.0000 0.02880  0.20751  0.77421  Biso   1.000  C
  C322     1.0000 0.02970  0.17900  0.81899  Biso   1.000  C
  H129     1.0000 0.02410  0.19440  0.85070  Biso   1.000  H
  C323     1.0000 0.01780  0.26345  0.76683  Biso   1.000  C
  C324     1.0000 0.00749  0.35962  0.59655  Biso   1.000  C
  C325     1.0000 0.01970  0.27142  0.71013  Biso   1.000  C
  C326     1.0000 0.03200  0.22515  0.68662  Biso   1.000  C
  C327     1.0000 0.03810  0.22220  0.63451  Biso   1.000  C
  H130     1.0000 0.04960  0.19220  0.61900  Biso   1.000  H
  C328     1.0000 0.01545  0.31271  0.62892  Biso   1.000  C
  C329     1.0000 0.02640  0.26606  0.60499  Biso   1.000  C
  H131     1.0000 0.02600  0.26390  0.56940  Biso   1.000  H
  C330     1.0000 0.01150  0.31573  0.68200  Biso   1.000  C
  H132     1.0000 0.00360  0.34660  0.69810  Biso   1.000  H
  Zr23     1.0000 0.48432  0.01868  0.40791  Biso   1.000  Zr
  O133     1.0000 0.43765  0.97131  0.45586  Biso   1.000  O
  O134     1.0000 0.46446  0.95453  0.35524  Biso   1.000  O
  O135     1.0000 0.46344  0.88204  0.40569  Biso   1.000  O
  O136     1.0000 0.50735  0.59960  0.11948  Biso   1.000  O
  O137     1.0000 0.48421  0.64648  0.04883  Biso   1.000  O
  O138     1.0000 0.48970  0.70590  0.29844  Biso   1.000  O
  C331     1.0000 0.46301  0.90587  0.36273  Biso   1.000  C
  C332     1.0000 0.46093  0.87339  0.31512  Biso   1.000  C
  C333     1.0000 0.45270  0.89612  0.26798  Biso   1.000  C
  H133     1.0000 0.44800  0.93140  0.26590  Biso   1.000  H
  C334     1.0000 0.45140  0.86632  0.22344  Biso   1.000  C
  H134     1.0000 0.44290  0.88110  0.19210  Biso   1.000  H
  C335     1.0000 0.46260  0.81509  0.22659  Biso   1.000  C
  C336     1.0000 0.47120  0.79249  0.27421  Biso   1.000  C
  C337     1.0000 0.47030  0.82100  0.31899  Biso   1.000  C
  H135     1.0000 0.47590  0.80560  0.35070  Biso   1.000  H
  C338     1.0000 0.48220  0.73655  0.26683  Biso   1.000  C
  C339     1.0000 0.49251  0.64038  0.09655  Biso   1.000  C
  C340     1.0000 0.48030  0.72858  0.21013  Biso   1.000  C
  C341     1.0000 0.46800  0.77485  0.18662  Biso   1.000  C
  C342     1.0000 0.46190  0.77780  0.13451  Biso   1.000  C
  H136     1.0000 0.45040  0.80780  0.11900  Biso   1.000  H
  C343     1.0000 0.48455  0.68729  0.12892  Biso   1.000  C
  C344     1.0000 0.47360  0.73394  0.10499  Biso   1.000  C
  H137     1.0000 0.47400  0.73610  0.06940  Biso   1.000  H
  C345     1.0000 0.48850  0.68427  0.18200  Biso   1.000  C
  H138     1.0000 0.49640  0.65340  0.19810  Biso   1.000  H
  Zr24     1.0000 0.51568  0.51868  0.09209  Biso   1.000  Zr
  O139     1.0000 0.56235  0.47131  0.04414  Biso   1.000  O
  O140     1.0000 0.53554  0.45453  0.14476  Biso   1.000  O
  O141     1.0000 0.53656  0.38204  0.09431  Biso   1.000  O
  O142     1.0000 0.49265  0.09960  0.38052  Biso   1.000  O
  O143     1.0000 0.51579  0.14648  0.45117  Biso   1.000  O
  O144     1.0000 0.51030  0.20590  0.20156  Biso   1.000  O
  C346     1.0000 0.53699  0.40587  0.13727  Biso   1.000  C
  C347     1.0000 0.53907  0.37339  0.18488  Biso   1.000  C
  C348     1.0000 0.54730  0.39612  0.23202  Biso   1.000  C
  H139     1.0000 0.55200  0.43140  0.23410  Biso   1.000  H
  C349     1.0000 0.54860  0.36632  0.27656  Biso   1.000  C
  H140     1.0000 0.55710  0.38110  0.30790  Biso   1.000  H
  C350     1.0000 0.53740  0.31509  0.27341  Biso   1.000  C
  C351     1.0000 0.52880  0.29249  0.22579  Biso   1.000  C
  C352     1.0000 0.52970  0.32100  0.18101  Biso   1.000  C
  H141     1.0000 0.52410  0.30560  0.14930  Biso   1.000  H
  C353     1.0000 0.51780  0.23655  0.23317  Biso   1.000  C
  C354     1.0000 0.50749  0.14038  0.40345  Biso   1.000  C
  C355     1.0000 0.51970  0.22858  0.28987  Biso   1.000  C
  C356     1.0000 0.53200  0.27485  0.31338  Biso   1.000  C
  C357     1.0000 0.53810  0.27780  0.36549  Biso   1.000  C
  H142     1.0000 0.54960  0.30780  0.38100  Biso   1.000  H
  C358     1.0000 0.51545  0.18729  0.37108  Biso   1.000  C
  C359     1.0000 0.52640  0.23394  0.39501  Biso   1.000  C
  H143     1.0000 0.52600  0.23610  0.43060  Biso   1.000  H
  C360     1.0000 0.51150  0.18427  0.31800  Biso   1.000  C
  H144     1.0000 0.50360  0.15340  0.30190  Biso   1.000  H
  O145     1.0000 0.45283  0.95283  0.54717  Biso   1.000  O
  O146     1.0000 0.04717  0.04717  0.04717  Biso   1.000  O
  O147     1.0000 0.54717  0.45283  0.95283  Biso   1.000  O
  O148     1.0000 0.95283  0.54717  0.45283  Biso   1.000  O
  O149     1.0000 0.54717  0.04717  0.45283  Biso   1.000  O
  O150     1.0000 0.95283  0.95283  0.95283  Biso   1.000  O
  O151     1.0000 0.45283  0.54717  0.04717  Biso   1.000  O
  O152     1.0000 0.04717  0.45283  0.54717  Biso   1.000  O
