data_I
_chemical_name_common  '/Users/gianmarcoterrones/Research/MOFs/MOF_structures/water_stability_work_extra_structs/cleaned_from_CCDC/SOSFOX'
_cell_length_a 14.86230
_cell_length_b 22.17980
_cell_length_c 25.01460
_cell_angle_alpha 90.00000
_cell_angle_beta  90.00000
_cell_angle_gamma 109.02600
_space_group_name_H-M_alt      'P 1'


loop_
_space_group_symop_operation_xyz
  'x, y, z' 

loop_
_atom_site_label
_atom_site_fract_x
_atom_site_fract_y
_atom_site_fract_z
_atom_site_type_symbol
H       0.0072   0.1695   0.0758     H
H       0.0072   0.6695   0.4242     H
H       0.0111   0.3384   0.0741     H
H       0.0111   0.8384   0.4259     H
H       0.0127   0.1698   0.7479     H
H       0.0127   0.6698   0.7521     H
H        0.014   0.2846   0.6199     H
H        0.014   0.7846   0.8801     H
H       0.0141   0.2673   0.5578     H
H       0.0141   0.7673   0.9422     H
N      0.01433  0.25346  0.81698     N
N      0.01433  0.75346  0.68302     N
H       0.0188   0.0133   0.7573     H
H       0.0188   0.5133   0.7427     H
N       0.0191  0.30765  0.83169     N
N       0.0191  0.80765  0.66831     N
C       0.0195  0.02465  0.72059     C
C       0.0195  0.52465  0.77941     C
C      0.01955  0.05867  0.61359     C
C      0.01955  0.55867  0.88641     C
C      0.02035  0.07931   0.5559     C
C      0.02035  0.57931   0.9441     C
N       0.0287  0.00377   0.9832     N
N       0.0287  0.50377   0.5168     N
C       0.0297  0.30219  0.58384     C
C       0.0297  0.80219  0.91616     C
H       0.0313    0.163   0.5151     H
H       0.0313    0.663   0.9849     H
C       0.0367  0.15113  0.55241     C
C       0.0367  0.65113  0.94759     C
H       0.0371   0.1519   0.2121     H
H       0.0371   0.6519   0.2879     H
H       0.0388   0.3631   0.4949     H
H       0.0388   0.8631   0.0051     H
H       0.0393   0.0994   0.3577     H
H       0.0393   0.5994   0.1423     H
C       0.0562  0.46054  0.19987     C
C       0.0562  0.96054  0.30013     C
C      0.05676  0.44345    0.147     C
C      0.05676  0.94345    0.353     C
C      0.05944    0.194  0.36614     C
C      0.05944    0.694  0.13386     C
H       0.0652   0.4455   0.9885     H
H       0.0652   0.9455   0.5115     H
C       0.0714   0.4575  0.02636     C
C       0.0714   0.9575  0.47364     C
C      0.07357  0.20179  0.74852     C
C      0.07357  0.70179  0.75148     C
H       0.0746   0.0706   0.5375     H
H       0.0746   0.5706   0.9625     H
C      0.07708  0.13769   0.3746     C
C      0.07708  0.63769   0.1254     C
H       0.0782   0.0757   0.0769     H
H       0.0782   0.5757   0.4231     H
H       0.0826   0.0034   0.4703     H
H       0.0826   0.5034   0.0297     H
C      0.09179  0.25199  0.78295     C
C      0.09179  0.75199  0.71705     C
H        0.092   0.4095   0.4141     H
H        0.092   0.9095   0.0859     H
H       0.0933   0.1694   0.8918     H
H       0.0933   0.6694   0.6082     H
C      0.09481  0.04319  0.63591     C
C      0.09481  0.54319  0.86409     C
C      0.09749  0.02583  0.68907     C
C      0.09749  0.52583  0.81093     C
H       0.1004   0.1747   0.5659     H
H       0.1004   0.4126   0.7685     H
H       0.1004   0.6747   0.9341     H
H       0.1004   0.9126   0.7315     H
H       0.1032   0.2614   0.2061     H
H       0.1032   0.7614   0.2939     H
H       0.1034    0.287   0.3859     H
H       0.1034    0.787   0.1141     H
C       0.1042   0.1711  0.21491     C
C       0.1042   0.6711  0.28509     C
C      0.10502  0.37662  0.48741     C
C      0.10502  0.87662  0.01259     C
H       0.1059   0.2145   0.9352     H
H       0.1059   0.7145   0.5648     H
H       0.1086   0.4621   0.2222     H
H       0.1086   0.9621   0.2778     H
H       0.1094    0.433   0.1331     H
H       0.1094    0.933   0.3669     H
H        0.114   0.3249   0.9512     H
H        0.114   0.8249   0.5488     H
C      0.11427  0.24754   0.3913     C
C      0.11427  0.74754   0.1087     C
H       0.1146   0.2617   0.9425     H
H       0.1146   0.7617   0.5575     H
H       0.1162    0.139   0.8723     H
H       0.1162    0.639   0.6277     H
C      0.12221   0.0457  0.00827     C
C      0.12221   0.5457  0.49173     C
H        0.125   0.4471    0.042     H
H        0.125   0.9471    0.458     H
H       0.1286   0.2535   0.0194     H
H       0.1286   0.7535   0.4806     H
H       0.1295   0.4226   0.7813     H
H       0.1295   0.9226   0.7187     H
H       0.1299   0.4972   0.7058     H
H       0.1299   0.9972   0.7942     H
H       0.1304   0.4221   0.6173     H
H       0.1304   0.9221   0.8827     H
H        0.131   0.0884   0.2279     H
H        0.131   0.5884   0.2721     H
H       0.1315   0.1639   0.6897     H
H       0.1315   0.6639   0.8103     H
H       0.1318   0.4612   0.7193     H
H       0.1318   0.9612   0.7807     H
C      0.13204  0.07855  0.05532     C
C      0.13204  0.57855  0.44468     C
C       0.1365  0.40387  0.43925     C
C       0.1365  0.90387  0.06075     C
C       0.1375  0.34043  0.58068     C
C       0.1375  0.84043  0.91932     C
C      0.14348   0.2362   0.2108     C
C      0.14348   0.7362   0.2892     C
C      0.14485  0.19805  0.71459     C
C      0.14485  0.69805  0.78541     C
H       0.1487   0.3723   0.6587     H
H       0.1487   0.8723   0.8413     H
C      0.15091  0.13791  0.40817     C
C      0.15091  0.63791  0.09183     C
C       0.1531   0.4469   0.7527     C
C       0.1531   0.9469   0.7473     C
C      0.15564  0.19779  0.89853     C
C      0.15564  0.69779  0.60147     C
H       0.1563   0.3768   0.9412     H
H       0.1563   0.8768   0.5588     H
C       0.1601  0.13302  0.22312     C
C       0.1601  0.63302  0.27688     C
H       0.1637   0.0991   0.4137     H
H       0.1637   0.5991   0.0863     H
C        0.165  0.39192  0.62332     C
C        0.165  0.89192  0.87668     C
C      0.16828  0.25262  0.92863     C
C      0.16828  0.36797   0.5265     C
C      0.16828  0.75262  0.57137     C
C      0.16828  0.86797   0.9735     C
H       0.1683   0.3669   0.2056     H
H       0.1683   0.8669   0.2944     H
O      0.16979  0.04243  0.60308     O
O      0.16979  0.54243  0.89692     O
C       0.1723    0.171   0.8842     C
H       0.1723   0.3184   0.0302     H
C       0.1723    0.671   0.6158     C
H       0.1723   0.8184   0.4698     H
H       0.1728     0.31   0.5886     H
H       0.1728     0.81   0.9114     H
C       0.1764   0.0221   0.7159     C
C       0.1764   0.5221   0.7841     C
H       0.1792   0.0725   0.7868     H
H       0.1792   0.5725   0.7132     H
H       0.1803   0.4498   0.8367     H
H       0.1803   0.9498   0.6633     H
C        0.181   0.3517   0.9524     C
C        0.181   0.8517   0.5476     C
H       0.1812   0.3199   0.0485     H
H       0.1812   0.8199   0.4515     H
C      0.18202  0.29619   0.7857     C
C      0.18202  0.79619   0.7143     C
C       0.1828   0.0304   0.7774     C
C       0.1828   0.5304   0.7226     C
C       0.1829   0.4556   0.7978     C
C       0.1829   0.9556   0.7022     C
C      0.18593  0.24406  0.42483     C
C      0.18593  0.74406  0.07517     C
H       0.1879   0.3885   0.9756     H
H       0.1879   0.8885   0.5244     H
C       0.1905   0.2851   0.0276     C
C       0.1905   0.7851   0.4724     C
H       0.1931   0.0257   0.9462     H
H       0.1931   0.5257   0.5538     H
H       0.1936   0.3688   0.1729     H
H       0.1936   0.8688   0.3271     H
H       0.1938   0.3629   0.2684     H
H       0.1938   0.8629   0.2316     H
H       0.1969   0.3305   0.8105     H
H       0.1969   0.8305   0.6895     H
C       0.1992  0.04911  0.97863     C
C       0.1992  0.54911  0.52137     C
H       0.2014   0.3482   0.1489     H
H       0.2014   0.8482   0.3511     H
H       0.2028   0.3665   0.9163     H
H       0.2028   0.8665   0.5837     H
N      0.20484     0.19  0.43314     N
N      0.20484     0.69  0.06686     N
H       0.2062   0.4312   0.7452     H
H       0.2062   0.9312   0.7548     H
H       0.2156   0.4904   0.8239     H
H       0.2156   0.9904   0.6761     H
C       0.2233     0.37    0.183     C
C       0.2233     0.87    0.317     C
H       0.2234   0.2816   0.4427     H
H       0.2234   0.7816   0.0573     H
C      0.22386  0.11675  0.07092     C
C      0.22386  0.61675  0.42908     C
C       0.2254   0.3975   0.9424     C
C       0.2254   0.8975   0.5576     C
H       0.2256    0.147   0.8577     H
H       0.2256    0.647   0.6423     H
H       0.2278   0.0722   0.7664     H
H       0.2278   0.5722   0.7336     H
H       0.2287   0.2648   0.0483     H
H       0.2287   0.7648   0.4517     H
H       0.2294   0.0356    0.202     H
H       0.2294   0.5356    0.298     H
C       0.2304  0.42309  0.42661     C
C       0.2304  0.92309  0.07339     C
H       0.2318   0.1402   0.1033     H
H       0.2318   0.6402   0.3967     H
N       0.2321   0.2411   0.7157     N
N       0.2321   0.7411   0.7843     N
H       0.2335   0.0548   0.7001     H
H       0.2335   0.5548   0.7999     H
H       0.2336   0.4145   0.6215     H
H       0.2336   0.9145   0.8785     H
C       0.2342  0.18447  0.87828     C
C       0.2342  0.68447  0.62172     C
H       0.2358   0.0749   0.3016     H
H       0.2358   0.5749   0.1984     H
H       0.2404   0.4375   0.9626     H
H       0.2404   0.9375   0.5374     H
C        0.241   0.3408  0.02832     C
C        0.241   0.8408  0.47168     C
C       0.2426   0.3117   0.9752     C
C       0.2426   0.8117   0.5248     C
H        0.243   0.4524   0.7842     H
H        0.243   0.9524   0.7158     H
C      0.24303  0.26611   0.2135     C
C      0.24303  0.76611   0.2865     C
H       0.2433   0.0269     0.79     H
H       0.2433   0.5269     0.71     H
H       0.2479   0.3439    0.291     H
H       0.2479   0.8439    0.209     H
C       0.2483   0.2626  0.93911     C
C       0.2483   0.7626  0.56089     C
O      0.24898  0.15849  0.62344     O
O      0.24898  0.65849  0.87656     O
C      0.24998  0.28863  0.75094     C
C      0.24998  0.78863  0.74906     C
H       0.2502   0.4066   0.9059     H
H       0.2502   0.9066   0.5941     H
H       0.2507   0.4422   0.3928     H
H       0.2507   0.9422   0.1072     H
O       0.2547   0.1158  0.53098     O
O       0.2547   0.6158  0.96902     O
H       0.2563   0.3814   0.0475     H
H       0.2563   0.8814   0.4525     H
C       0.2566   0.0607   0.7344     C
C       0.2566   0.5607   0.7656     C
C      0.25842  0.15935  0.22441     C
C      0.25842  0.65935  0.27559     C
C       0.2588   0.3614   0.2708     C
C       0.2588   0.8614   0.2292     C
H        0.259   0.4149   0.1762     H
H        0.259   0.9149   0.3238     H
P      0.26045  0.10462  0.59018     P
P      0.26045  0.60462  0.90982     P
H       0.2625   0.3329      0.3     H
H       0.2625   0.8329      0.2     H
C      0.26414  0.38794  0.51156     C
C      0.26414  0.88794  0.98844     C
C       0.2713   0.3534  0.96975     C
C       0.2713   0.8534  0.53025     C
H       0.2742   0.0966   0.7094     H
H       0.2742   0.5966   0.7906     H
H        0.275   0.3144   0.0448     H
H        0.275   0.8144   0.4552     H
C       0.2857    0.336   0.2173     C
C       0.2857    0.836   0.2827     C
C      0.28709  0.08721  0.99629     C
C      0.28709  0.58721  0.50371     C
C      0.29671  0.22562  0.21797     C
C      0.29671  0.72562  0.28203     C
C        0.297  0.06076  0.19947     C
C        0.297  0.56076  0.30053     C
C      0.29743  0.41515  0.46261     C
C      0.29743  0.91515  0.03739     C
N      0.29891  0.12062  0.04155     N
N      0.29891  0.62062  0.45845     N
H       0.3004   0.4173   0.1727     H
H       0.3004   0.9173   0.3273     H
H        0.303   0.4043   0.2777     H
H        0.303   0.9043   0.2223     H
C       0.3038   0.0963  0.29493     C
C       0.3038   0.5963  0.20507     C
Zn    0.305028 0.192435 0.490167    Zn
Zn    0.305028 0.692435 0.009833    Zn
O      0.30522  0.27002   0.5252     O
O      0.30522  0.77002   0.9748     O
H       0.3082   0.3409   0.9834     H
H       0.3082   0.8409   0.5166     H
H       0.3122   0.0755   0.1626     H
H       0.3122   0.5755   0.3374     H
H       0.3123   0.3187   0.7523     H
H       0.3123   0.8187   0.7477     H
H       0.3136   0.0504   0.7446     H
H       0.3136   0.5504   0.7554     H
C       0.3186  0.11788  0.23655     C
C       0.3186  0.61788  0.26345     C
C       0.3254  0.22598  0.88813     C
C       0.3254  0.72598  0.61187     C
H       0.3274   0.1334   0.3184     H
H       0.3274   0.6334   0.1816     H
Zn    0.327916 0.233388 0.659462    Zn
Zn    0.327916 0.733388 0.840538    Zn
H       0.3298   0.4071   0.2719     H
H       0.3298   0.9071   0.2281     H
O       0.3308  0.38401   0.5498     O
O       0.3308  0.88401   0.9502     O
H       0.3355   0.0342   0.2099     H
H       0.3355   0.5342   0.2901     H
C       0.3366   0.2645   0.9192     C
C       0.3366   0.7645   0.5808     C
H       0.3388   0.0665   0.3022     H
H       0.3388   0.5665   0.1978     H
H       0.3412   0.3771   0.9704     H
H       0.3412   0.8771   0.5296     H
H       0.3416   0.0898   0.9754     H
H       0.3416   0.5898   0.5246     H
O      0.34454  0.08499  0.60559     O
O      0.34454  0.58499  0.89441     O
H       0.3498   0.3495   0.1918     H
H       0.3498   0.8495   0.3082     H
O      0.35551  0.31098  0.61825     O
O      0.35551  0.81098  0.88175     O
H       0.3564   0.3461   0.2172     H
H       0.3564   0.8461   0.2828     H
H       0.3565   0.1181   0.8621     H
H       0.3565   0.6181   0.6379     H
H       0.3582   0.1514   0.8052     H
H       0.3582   0.6514   0.6948     H
P      0.36724  0.32373  0.55879     P
P      0.36724  0.82373  0.94121     P
H       0.3869   0.1442   0.2318     H
H       0.3869   0.6442   0.2682     H
H       0.3882   0.3747   0.3844     H
H       0.3882   0.8747   0.1156     H
C        0.395   0.1509   0.8376     C
C        0.395   0.6509   0.6624     C
O      0.39624  0.25404  0.21969     O
O      0.39624  0.75404  0.28031     O
H       0.3992   0.4905   0.8541     H
H       0.3992   0.9905   0.6459     H
H       0.4014   0.1617   0.7885     H
H       0.4014   0.6617   0.7115     H
C      0.40215  0.43568   0.4486     C
C      0.40215  0.93568   0.0514     C
H       0.4061   0.4961    0.385     H
H       0.4061   0.9961    0.115     H
H       0.4105   0.3451   0.4392     H
H       0.4105   0.8451   0.0608     H
H       0.4127   0.1251   0.8419     H
H       0.4127   0.6251   0.6581     H
O      0.42084  0.20154  0.13496     O
O      0.42084  0.70154  0.36504     O
C       0.4222   0.2161   0.8648     C
C       0.4222   0.7161   0.6352     C
O      0.42403  0.31686  0.93144     O
O      0.42403  0.81686  0.56856     O
O      0.42444  0.19646  0.45948     O
O      0.42444  0.69646  0.04052     O
H       0.4247   0.2834   0.7937     H
H       0.4247   0.7834   0.7063     H
H       0.4249   0.0324   0.0587     H
H       0.4249   0.5324   0.4413     H
C       0.4257   0.3839  0.41744     C
C       0.4257   0.8839  0.08256     C
O      0.42572  0.25231  0.01349     O
O      0.42572  0.75231  0.48651     O
Zn    0.428436 0.185201 0.060507    Zn
Zn    0.428436 0.685201 0.439493    Zn
H       0.4341   0.2667   0.7927     H
H       0.4341   0.7667   0.7073     H
H       0.4378    0.441   0.4831     H
H       0.4378    0.941   0.0169     H
C       0.4383  0.49951  0.41962     C
C       0.4383  0.99951  0.08038     C
O      0.44176  0.22599  0.68853     O
O      0.44176  0.72599  0.81147     O
O       0.4496  0.31945  0.13659     O
O       0.4496  0.81945  0.36341     O
H       0.4529   0.1413    0.828     H
H       0.4529   0.6413    0.672     H
P      0.45979  0.26293  0.16644     P
P      0.45979  0.76293  0.33356     P
H       0.4628   0.4744    0.084     H
H       0.4628   0.9744    0.416     H
H        0.465   0.2342   0.3143     H
H        0.465   0.7342   0.1857     H
H       0.4661   0.2169   0.8952     H
H       0.4661   0.7169   0.6048     H
C       0.4664   0.4933  0.85589     C
C       0.4664   0.9933  0.64411     C
C       0.4698   0.2824    0.822     C
C       0.4698   0.7824    0.678     C
H       0.4699   0.2172   0.3059     H
H       0.4699   0.7172   0.1941     H
O      0.47066  0.34666   0.5422     O
O      0.47066  0.84666   0.9578     O
H       0.4709   0.4516   0.8654     H
H       0.4709   0.9516   0.6346     H
H       0.4751   0.2259   0.8855     H
H       0.4751   0.7259   0.6145     H
Zn    0.477635 0.115192 0.589764    Zn
Zn    0.477635 0.615192 0.910236    Zn
H       0.4809   0.3199    0.845     H
H       0.4809   0.8199    0.655     H
P      0.48502  0.30941  0.98256     P
P      0.48502  0.80941  0.51744     P
O      0.48702  0.46171  0.10516     O
O      0.48702  0.96171  0.39484     O
H       0.4929   0.4889    0.586     H
H       0.4929   0.9889    0.914     H
H       0.4936   0.3985   0.4086     H
H       0.4936   0.8985   0.0914     H
H       0.4951   0.3274   0.3132     H
H       0.4951   0.8274   0.1868     H
H       0.4964   0.0066    0.679     H
H       0.4964   0.5066    0.821     H
O      0.49768  0.12864  0.51348     O
O      0.49768  0.62864  0.98652     O
O      0.50232  0.37136  0.01348     O
O      0.50232  0.87136  0.48652     O
H       0.5036   0.4934    0.179     H
H       0.5036   0.9934    0.321     H
H       0.5064   0.1015   0.9086     H
H       0.5064   0.6015   0.5914     H
H       0.5071   0.0111    0.086     H
H       0.5071   0.5111    0.414     H
O      0.51298  0.03829  0.60516     O
O      0.51298  0.53829  0.89484     O
P      0.51498  0.19059  0.48256     P
P      0.51498  0.69059  0.01744     P
H       0.5155   0.1883   0.3415     H
H       0.5155   0.6883   0.1585     H
Zn    0.522365 0.384808 0.089764    Zn
Zn    0.522365 0.884808 0.410236    Zn
H       0.5249   0.2741   0.3855     H
H       0.5249   0.7741   0.1145     H
C       0.5263   0.2299   0.3246     C
C       0.5263   0.7299   0.1754     C
H       0.5291   0.0484   0.3654     H
H       0.5291   0.5484   0.1346     H
O      0.52934  0.15334   0.0422     O
O      0.52934  0.65334   0.4578     O
H       0.5301   0.2828   0.8059     H
H       0.5301   0.7828   0.6941     H
C       0.5336   0.0067  0.35589     C
C       0.5336   0.5067  0.14411     C
H       0.5339   0.2831   0.3952     H
H       0.5339   0.7831   0.1048     H
H        0.535   0.2658   0.8143     H
H        0.535   0.7658   0.6857     H
H       0.5372   0.0256    0.584     H
H       0.5372   0.5256    0.916     H
P      0.54021  0.23707  0.66644     P
P      0.54021  0.73707  0.83356     P
H       0.5471   0.3587    0.328     H
H       0.5471   0.8587    0.172     H
O       0.5504  0.18055  0.63659     O
O       0.5504  0.68055  0.86341     O
O      0.55824  0.27401  0.18853     O
O      0.55824  0.77401  0.31147     O
C       0.5617  0.00049  0.91962     C
C       0.5617  0.50049  0.58038     C
H       0.5622    0.059   0.9831     H
H       0.5622    0.559   0.5169     H
C       0.5623    0.335   0.3217     C
C       0.5623    0.835   0.1783     C
H       0.5659   0.2333   0.2927     H
H       0.5659   0.7333   0.2073     H
Zn    0.571564 0.314799 0.560507    Zn
Zn    0.571564 0.814799 0.939493    Zn
C       0.5718   0.2788   0.3557     C
C       0.5718   0.7788   0.1443     C
O      0.57428  0.24769  0.51349     O
O      0.57428  0.74769  0.98651     O
C       0.5743   0.1161  0.91744     C
C       0.5743   0.6161  0.58256     C
H       0.5751   0.4676   0.5587     H
H       0.5751   0.9676   0.9413     H
H       0.5753   0.2166   0.2937     H
H       0.5753   0.7166   0.2063     H
O      0.57556  0.30354  0.95948     O
O      0.57556  0.80354  0.54052     O
O      0.57597  0.18314  0.43144     O
O      0.57597  0.68314  0.06856     O
O      0.57916  0.29846  0.63496     O
O      0.57916  0.79846  0.86504     O
H       0.5873   0.3749   0.3419     H
H       0.5873   0.8749   0.1581     H
H       0.5895   0.1549   0.9392     H
H       0.5895   0.6549   0.5608     H
H       0.5939   0.0039    0.885     H
H       0.5939   0.5039    0.615     H
C      0.59785  0.06432   0.9486     C
C      0.59785  0.56432   0.5514     C
H       0.5986   0.3383   0.2885     H
H       0.5986   0.8383   0.2115     H
H       0.6008   0.0095   0.3541     H
H       0.6008   0.5095   0.1459     H
O      0.60376  0.24596  0.71969     O
O      0.60376  0.74596  0.78031     O
H       0.6118   0.1253   0.8844     H
H       0.6118   0.6253   0.6156     H
H       0.6131   0.3558   0.7318     H
H       0.6131   0.8558   0.7682     H
P      0.63276  0.17627  0.05879     P
P      0.63276  0.67627  0.44121     P
H       0.6418   0.3486   0.3052     H
H       0.6418   0.8486   0.1948     H
H       0.6436   0.1539   0.7172     H
H       0.6436   0.6539   0.7828     H
O      0.64449  0.18902  0.11825     O
O      0.64449  0.68902  0.38175     O
H       0.6448    0.156   0.7855     H
H       0.6448    0.656   0.7145     H
H       0.6502   0.1505   0.6918     H
H       0.6502   0.6505   0.8082     H
O      0.65546  0.41501  0.10559     O
O      0.65546  0.91501  0.39441     O
C       0.6574   0.2803   0.3818     C
C       0.6574   0.7803   0.1182     C
H       0.6584   0.4102   0.4754     H
H       0.6584   0.9102   0.0246     H
H       0.6588   0.1229   0.4704     H
H       0.6588   0.6229   0.0296     H
H       0.6612   0.4335   0.8022     H
H       0.6612   0.9335   0.6978     H
C      0.66195  0.21919  0.41823     C
C      0.66195  0.71919  0.08177     C
H       0.6645   0.4658   0.7099     H
H       0.6645   0.9658   0.7901     H
O       0.6692  0.11599   0.0498     O
O       0.6692  0.61599   0.4502     O
H       0.6702   0.0929   0.7719     H
H       0.6702   0.5929   0.7281     H
Zn    0.672084 0.266612 0.159462    Zn
Zn    0.672084 0.766612 0.340538    Zn
H       0.6726   0.3666   0.8184     H
H       0.6726   0.8666   0.6816     H
C       0.6814  0.38212  0.73655     C
C       0.6814  0.88212  0.76345     C
H       0.6864   0.4496   0.2446     H
H       0.6864   0.9496   0.2554     H
H       0.6877   0.1813   0.2523     H
H       0.6877   0.6813   0.2477     H
H       0.6878   0.4245   0.6626     H
H       0.6878   0.9245   0.8374     H
H       0.6918   0.1591   0.4834     H
H       0.6918   0.6591   0.0166     H
C       0.6931   0.1396   0.7704     C
C       0.6931   0.6396   0.7296     C
O      0.69478  0.22998   0.0252     O
O      0.69478  0.72998   0.4748     O
Zn    0.694972 0.307565 0.990167    Zn
Zn    0.694972 0.807565 0.509833    Zn
C       0.6962   0.4037  0.79493     C
C       0.6962   0.9037  0.70507     C
H        0.697   0.0957   0.7777     H
H        0.697   0.5957   0.7223     H
H       0.6996   0.0827   0.6727     H
H       0.6996   0.5827   0.8273     H
N      0.70109  0.37938  0.54155     N
N      0.70109  0.87938  0.95845     N
C      0.70257  0.08485  0.96261     C
C      0.70257  0.58485  0.53739     C
C        0.703  0.43924  0.69947     C
C        0.703  0.93924  0.80053     C
C      0.70329  0.27438  0.71797     C
C      0.70329  0.77438  0.78203     C
C       0.7122   0.1616   0.7112     C
C       0.7122   0.6616   0.7888     C
C      0.71291  0.41279  0.49629     C
C      0.71291  0.91279  0.00371     C
H        0.725   0.1856   0.5448     H
H        0.725   0.6856   0.9552     H
H       0.7258   0.4034   0.2094     H
H       0.7258   0.9034   0.2906     H
H        0.727    0.146    0.637     H
H        0.727    0.646    0.863     H
C       0.7287   0.1466  0.46975     C
C       0.7287   0.6466  0.03025     C
H       0.7353   0.3578   0.3387     H
H       0.7353   0.8578   0.1613     H
C      0.73586  0.11206  0.01156     C
C      0.73586  0.61206  0.48844     C
H       0.7375   0.1671      0.8     H
H       0.7375   0.6671      0.7     H
C        0.739   0.1277   0.6708     C
C        0.739   0.6277   0.8292     C
C       0.7395   0.3271   0.3643     C
C       0.7395   0.8271   0.1357     C
P      0.73955  0.39538  0.09018     P
P      0.73955  0.89538  0.40982     P
C       0.7405  0.20587  0.43848     C
C       0.7405  0.70587  0.06152     C
H        0.741   0.0851   0.6762     H
H        0.741   0.5851   0.8238     H
C      0.74158  0.34065  0.72441     C
C      0.74158  0.84065  0.77559     C
C       0.7434   0.4393   0.2344     C
C       0.7434   0.9393   0.2656     C
H       0.7437   0.1186   0.5475     H
H       0.7437   0.6186   0.9525     H
O       0.7453   0.3842  0.03098     O
O       0.7453   0.8842  0.46902     O
H       0.7493   0.0578   0.8928     H
H       0.7493   0.5578   0.6072     H
H       0.7498   0.0934   0.4059     H
H       0.7498   0.5934   0.0941     H
C      0.75002  0.21137  0.25094     C
C      0.75002  0.71137  0.24906     C
O      0.75102  0.34151  0.12344     O
O      0.75102  0.84151  0.37656     O
H       0.7521   0.1561    0.791     H
H       0.7521   0.6561    0.709     H
H       0.7567   0.4731     0.29     H
H       0.7567   0.9731     0.21     H
C      0.75697  0.23389   0.7135     C
C      0.75697  0.73389   0.7865     C
H        0.757   0.0476   0.2842     H
H        0.757   0.5476   0.2158     H
C       0.7574   0.1883   0.4752     C
C       0.7574   0.6883   0.0248     C
C        0.759   0.1592  0.52832     C
C        0.759   0.6592  0.97168     C
H       0.7596   0.0625   0.4626     H
H       0.7596   0.5625   0.0374     H
H       0.7642   0.4251   0.8016     H
H       0.7642   0.9251   0.6984     H
H       0.7664   0.0855   0.1215     H
H       0.7664   0.5855   0.3785     H
H       0.7665   0.4452   0.2001     H
H       0.7665   0.9452   0.2999     H
N       0.7679   0.2589   0.2157     N
N       0.7679   0.7589   0.2843     N
H       0.7682   0.3598   0.6033     H
H       0.7682   0.8598   0.8967     H
C       0.7696  0.07691  0.92661     C
C       0.7696  0.57691  0.57339     C
H       0.7706   0.4644    0.702     H
H       0.7706   0.9644    0.798     H
H       0.7713   0.2352   0.5483     H
H       0.7713   0.7352   0.9517     H
H       0.7722   0.4278   0.2664     H
H       0.7722   0.9278   0.2336     H
H       0.7744    0.353   0.3577     H
H       0.7744    0.853   0.1423     H
C       0.7746   0.1025   0.4424     C
C       0.7746   0.6025   0.0576     C
C      0.77614  0.38325  0.57092     C
C      0.77614  0.88325  0.92908     C
H       0.7766   0.2184   0.9427     H
H       0.7766   0.7184   0.5573     H
H       0.7844   0.0096   0.3239     H
H       0.7844   0.5096   0.1761     H
H       0.7938   0.0688   0.2452     H
H       0.7938   0.5688   0.2548     H
N      0.79516     0.31  0.93314     N
N      0.79516     0.81  0.56686     N
H       0.7972   0.1335   0.4163     H
H       0.7972   0.6335   0.0837     H
H       0.7986   0.1518   0.6489     H
H       0.7986   0.6518   0.8511     H
C       0.8008  0.45089  0.47863     C
C       0.8008  0.95089  0.02137     C
H       0.8031   0.1695   0.3105     H
H       0.8031   0.6695   0.1895     H
H       0.8064   0.1312   0.6729     H
H       0.8064   0.6312   0.8271     H
H       0.8069   0.4743   0.4462     H
H       0.8069   0.9743   0.0538     H
C       0.8095   0.2149   0.5276     C
C       0.8095   0.7149   0.9724     C
H       0.8121   0.1115   0.4756     H
H       0.8121   0.6115   0.0244     H
C      0.81407  0.25594  0.92483     C
C      0.81407  0.75594  0.57517     C
C       0.8144   0.4969    0.208     C
C       0.8144   0.9969    0.292     C
C       0.8171   0.0444   0.2978     C
C       0.8171   0.5444   0.2022     C
C       0.8172   0.4696   0.2774     C
C       0.8172   0.9696   0.2226     C
C      0.81798  0.20381   0.2857     C
C      0.81798  0.70381   0.2143     C
H       0.8188   0.1801   0.5485     H
H       0.8188   0.6801   0.9515     H
C        0.819   0.1483   0.4524     C
C        0.819   0.6483   0.0476     C
H       0.8197   0.0502   0.3367     H
H       0.8197   0.5502   0.1633     H
H       0.8208   0.4275   0.2868     H
H       0.8208   0.9275   0.2132     H
H       0.8272     0.19   0.0886     H
H       0.8272     0.69   0.4114     H
H       0.8277   0.1816   0.5302     H
C       0.8277    0.329   0.3842     C
H       0.8277   0.6816   0.9698     H
C       0.8277    0.829   0.1158     C
O      0.83021  0.45757  0.10308     O
O      0.83021  0.95757  0.39692     O
C      0.83172  0.13203   0.0265     C
C      0.83172  0.24738  0.42863     C
C      0.83172  0.63203   0.4735     C
C      0.83172  0.74738  0.07137     C
C       0.8338   0.2842   0.4216     C
C       0.8338   0.7842   0.0784     C
C        0.835  0.10808  0.12332     C
C        0.835  0.60808  0.37668     C
H       0.8363   0.4009   0.9137     H
H       0.8363   0.9009   0.5863     H
C       0.8399  0.36698  0.72312     C
C       0.8399  0.86698  0.77688     C
H       0.8437   0.1232   0.4412     H
H       0.8437   0.6232   0.0588     H
C       0.8469   0.0531   0.2527     C
C       0.8469   0.5531   0.2473     C
C      0.84909  0.36209  0.90817     C
C      0.84909  0.86209  0.59183     C
H       0.8513   0.1277   0.1587     H
H       0.8513   0.6277   0.3413     H
C      0.85515  0.30195  0.21459     C
C      0.85515  0.80195  0.28541     C
C      0.85652   0.2638   0.7108     C
C      0.85652   0.7638   0.7892     C
C       0.8625  0.15957  0.08068     C
C       0.8625  0.65957  0.41932     C
C       0.8635  0.09613  0.93925     C
C       0.8635  0.59613  0.56075     C
C      0.86796  0.42145  0.55532     C
C      0.86796  0.92145  0.94468     C
H       0.8682   0.0388   0.2193     H
H       0.8682   0.5388   0.2807     H
H       0.8685   0.3361   0.1897     H
H       0.8685   0.8361   0.3103     H
H        0.869   0.4116   0.7279     H
H        0.869   0.9116   0.7721     H
H       0.8696   0.0779   0.1173     H
H       0.8696   0.5779   0.3827     H
H       0.8701   0.0028   0.2058     H
H       0.8701   0.5028   0.2942     H
H       0.8705   0.0774   0.2813     H
H       0.8705   0.5774   0.2187     H
H       0.8714   0.2465   0.5194     H
H       0.8714   0.7465   0.9806     H
H        0.875   0.0529    0.542     H
H        0.875   0.5529    0.958     H
C      0.87779   0.4543  0.50827     C
C      0.87779   0.9543  0.99173     C
H       0.8838    0.361   0.3723     H
H       0.8838    0.861   0.1277     H
H       0.8854   0.2383   0.4425     H
H       0.8854   0.7383   0.0575     H
C      0.88573  0.25246   0.8913     C
C      0.88573  0.75246   0.6087     C
H        0.886   0.1751   0.4512     H
H        0.886   0.6751   0.0488     H
H       0.8906    0.067   0.6331     H
H       0.8906    0.567   0.8669     H
H       0.8914   0.0379   0.7222     H
H       0.8914   0.5379   0.7778     H
H       0.8941   0.2855   0.4352     H
H       0.8941   0.7855   0.0648     H
C      0.89498  0.12338  0.98741     C
C      0.89498  0.62338  0.51259     C
C       0.8958   0.3289  0.71491     C
C       0.8958   0.8289  0.78509     C
H       0.8966    0.213   0.8859     H
H       0.8966    0.713   0.6141     H
H       0.8968   0.2386   0.7061     H
H       0.8968   0.7386   0.7939     H
H       0.8996   0.0874   0.2685     H
H       0.8996   0.3253   0.0659     H
H       0.8996   0.5874   0.2315     H
H       0.8996   0.8253   0.4341     H
C      0.90251  0.47417  0.18907     C
C      0.90251  0.97417  0.31093     C
C      0.90519  0.45681  0.13591     C
C      0.90519  0.95681  0.36409     C
H       0.9067   0.3306   0.3918     H
H       0.9067   0.8306   0.1082     H
H        0.908   0.0905   0.9141     H
H        0.908   0.5905   0.5859     H
C      0.90821  0.24801  0.28295     C
C      0.90821  0.74801  0.21705     C
H       0.9174   0.4966   0.9703     H
H       0.9174   0.9966   0.5297     H
H       0.9218   0.4243   0.5769     H
H       0.9218   0.9243   0.9231     H
C      0.92292  0.36231   0.8746     C
C      0.92292  0.86231   0.6254     C
H       0.9254   0.4294   0.0375     H
H       0.9254   0.9294   0.4625     H
C      0.92643  0.29821  0.24852     C
C      0.92643  0.79821  0.25148     C
C       0.9286   0.0425  0.52636     C
C       0.9286   0.5425  0.97364     C
H       0.9348   0.0545   0.4885     H
H       0.9348   0.5545   0.0115     H
C      0.94056    0.306  0.86614     C
C      0.94056    0.806  0.63386     C
C      0.94324  0.05655    0.647     C
C      0.94324  0.55655    0.853     C
C       0.9438  0.03946  0.69987     C
C       0.9438  0.53946  0.80013     C
H       0.9607   0.4006   0.8577     H
H       0.9607   0.9006   0.6423     H
H       0.9612   0.1369   0.9949     H
H       0.9612   0.6369   0.5051     H
H       0.9629   0.3481   0.7121     H
H       0.9629   0.8481   0.7879     H
C       0.9633  0.34887  0.05241     C
C       0.9633  0.84887  0.44759     C
H       0.9687    0.337   0.0151     H
H       0.9687    0.837   0.4849     H
C       0.9703  0.19781  0.08384     C
C       0.9703  0.69781  0.41616     C
N       0.9713  0.49623   0.4832     N
N       0.9713  0.99623   0.0168     N
C      0.97965  0.42069   0.0559     C
C      0.97965  0.92069   0.4441     C
C      0.98045  0.44133  0.11359     C
C      0.98045  0.94133  0.38641     C
C       0.9805  0.47535  0.22059     C
C       0.9805  0.97535  0.27941     C
N       0.9809  0.19235  0.33169     N
N       0.9809  0.69235  0.16831     N
H       0.9812   0.4867   0.2573     H
H       0.9812   0.9867   0.2427     H
N      0.98567  0.24654  0.31698     N
N      0.98567  0.74654  0.18302     N
H       0.9859   0.2327   0.0578     H
H       0.9859   0.7327   0.4422     H
H        0.986   0.2154   0.1199     H
H        0.986   0.7154   0.3801     H
H       0.9873   0.3302   0.2479     H
H       0.9873   0.8302   0.2521     H
H       0.9889   0.1616   0.5741     H
H       0.9889   0.6616   0.9259     H
H       0.9928   0.3305   0.5758     H
H       0.9928   0.8305   0.9242     H
