data_I
_chemical_name_common  '/Users/gianmarcoterrones/Research/MOFs/MOF_structures/water_stability_work_extra_structs/cleaned_from_CCDC/SOSFEN'
_cell_length_a 17.97990
_cell_length_b 17.97990
_cell_length_c 30.99900
_cell_angle_alpha 90.00000
_cell_angle_beta  90.00000
_cell_angle_gamma 90.00000
_space_group_name_H-M_alt      'P 1'


loop_
_space_group_symop_operation_xyz
  'x, y, z' 

loop_
_atom_site_label
_atom_site_fract_x
_atom_site_fract_y
_atom_site_fract_z
_atom_site_type_symbol
C       0.0006   0.6459  0.36431     C
C       0.0006   0.8541  0.13569     C
C       0.0017   0.1694  0.94115     C
C       0.0017   0.3306  0.55885     C
H       0.0037   0.1546   0.7965     H
H       0.0037   0.3454   0.7035     H
H       0.0049   0.1634   0.3752     H
H       0.0049   0.3366   0.1248     H
C       0.0064     0.69    0.902     C
C       0.0064     0.81    0.598     C
H       0.0106   0.6855   0.9407     H
H       0.0106   0.8145   0.5593     H
H       0.0111   0.2414   0.3997     H
H       0.0111   0.2586   0.1003     H
H       0.0114   0.2179   0.7774     H
H       0.0114   0.2821   0.7226     H
H       0.0117   0.6107   0.3057     H
H       0.0117   0.8893   0.1943     H
C       0.0137   0.5907  0.60531     C
C       0.0137   0.9093  0.89469     C
H       0.0161   0.6459   0.6621     H
H       0.0161   0.8541   0.8379     H
N       0.0176   0.0715  0.51102     N
N       0.0176   0.4285  0.98898     N
H       0.0186   0.1654   0.4261     H
H       0.0186   0.3346   0.0739     H
H       0.0215   0.6649   0.0645     H
H       0.0215   0.8351   0.4355     H
C       0.0243   0.5265  0.03514     C
C       0.0243   0.9735  0.46486     C
C       0.0265   0.5243  0.53514     C
C       0.0265   0.9757  0.96486     C
C        0.028    0.135    0.823     C
C        0.028    0.365    0.677     C
H       0.0282   0.1836   0.9663     H
H       0.0282   0.3164   0.5337     H
H       0.0295   0.0303   0.6859     H
H       0.0295   0.4697   0.8141     H
H       0.0303   0.0295   0.8141     H
H       0.0303   0.4705   0.6859     H
C       0.0366   0.1679  0.90165     C
C       0.0366   0.3321  0.59835     C
H        0.038   0.0827   0.6592     H
H        0.038   0.4173   0.8408     H
H       0.0382   0.0958   0.1005     H
H       0.0382   0.4042   0.3995     H
N      0.04332  0.04339  0.02614     N
N      0.04332  0.45661  0.47386     N
N      0.04339  0.04332  0.47386     N
N      0.04339  0.45668  0.02614     N
H       0.0458   0.7338    0.552     H
H       0.0458   0.7662    0.948     H
C       0.0465     0.62  0.64202     C
C       0.0465     0.88  0.85798     C
C       0.0467   0.6333  0.08426     C
C       0.0467   0.8667  0.41574     C
C       0.0489   0.2069   0.7995     C
C       0.0489   0.2931   0.7005     C
H       0.0512   0.2481   0.8201     H
H       0.0512   0.2519   0.6799     H
H       0.0534   0.1059   0.6624     H
H       0.0534   0.3941   0.8376     H
C       0.0541   0.5582  0.07582     C
C       0.0541   0.9418  0.42418     C
C       0.0563   0.7127   0.9476     C
C       0.0563   0.7873   0.5524     C
C       0.0582   0.5541  0.57582     C
C       0.0582   0.9459  0.92418     C
H       0.0616   0.0981   0.7136     H
H       0.0616   0.4019   0.7864     H
C        0.065   0.0716   0.6861     C
C        0.065   0.4284   0.8139     C
H       0.0675   0.1078   0.7056     H
H       0.0675   0.3922   0.7944     H
H       0.0712    0.713   0.1278     H
H       0.0712    0.787   0.3722     H
N       0.0715   0.0176  0.98898     N
N       0.0715   0.4824  0.51102     N
C       0.0716    0.065   0.8139     C
C       0.0716    0.435   0.6861     C
C       0.0719   0.6501  0.44368     C
C       0.0719   0.8499  0.05632     C
C       0.0741   0.6251  0.36871     C
C       0.0741   0.8749  0.13129     C
H       0.0745   0.6971   0.9759     H
H       0.0745   0.8029   0.5241     H
C       0.0767   0.6615  0.12188     C
C       0.0767   0.8385  0.37812     C
H       0.0816   0.2479   0.6809     H
H       0.0816   0.2521   0.8191     H
H       0.0827    0.038   0.8408     H
H       0.0827    0.462   0.6592     H
H       0.0834    0.723    0.547     H
H       0.0834    0.777    0.953     H
H       0.0873   0.1823   0.8998     H
H       0.0873   0.3177   0.6002     H
C       0.0907   0.5137  0.10531     C
C       0.0907   0.9863  0.39469     C
C       0.0908   0.6895   0.9096     C
C       0.0908   0.8105   0.5904     C
H       0.0953   0.7149   0.8853     H
H       0.0953   0.7851   0.6147     H
H       0.0958   0.0382   0.3995     H
H       0.0958   0.4618   0.1005     H
H       0.0961   0.6533   0.4709     H
H       0.0961   0.8467   0.0291     H
H       0.0976   0.2007   0.7857     H
H       0.0976   0.2993   0.7143     H
H       0.0981   0.0616   0.7864     H
H       0.0981   0.4384   0.7136     H
O      0.10087  0.61165  0.83207     O
O      0.10087  0.88835  0.66793     O
C       0.1026   0.2021    0.816     C
C       0.1026   0.2979    0.684     C
H       0.1059   0.0534   0.8376     H
H       0.1059   0.4466   0.6624     H
C       0.1077   0.7281   0.9524     C
C       0.1077   0.7719   0.5476     C
H       0.1078   0.0675   0.7944     H
H       0.1078   0.4325   0.7056     H
H       0.1107   0.5117   0.8057     H
H       0.1107   0.9883   0.6943     H
O      0.11165  0.60087  0.33207     O
O      0.11165  0.89913  0.16793     O
C       0.1126   0.6262  0.40817     C
C       0.1126   0.8738  0.09183     C
N      0.11313  0.61903  0.15022     N
N      0.11313  0.88097  0.34978     N
H       0.1141   0.7199   0.8862     H
H       0.1141   0.7801   0.6138     H
N      0.11903  0.61313  0.65022     N
N      0.11903  0.88687  0.84978     N
C         0.12   0.5465  0.14202     C
C         0.12   0.9535  0.35798     C
C       0.1251   0.5741  0.86871     C
O       0.1251  0.63796  0.25618     O
O       0.1251  0.86204  0.24382     O
C       0.1251   0.9259  0.63129     C
O      0.12577  0.73716  0.80305     O
O      0.12577  0.76284  0.69695     O
C       0.1262   0.6126  0.90817     C
C       0.1262   0.8874  0.59183     C
H       0.1264   0.1975   0.7876     H
H       0.1264   0.3025   0.7124     H
C       0.1333   0.5467  0.58426     C
C       0.1333   0.9533  0.91574     C
C        0.135    0.028    0.677     C
C        0.135    0.472    0.823     C
O      0.13796   0.6251  0.75618     O
O      0.13796   0.8749  0.74382     O
H       0.1396   0.1936   0.8387     H
H       0.1396   0.3064   0.6613     H
C       0.1459   0.5006  0.86431     C
H       0.1459   0.5161   0.1621     H
H       0.1459   0.9839   0.3379     H
C       0.1459   0.9994  0.63569     C
O      0.14878   0.7313  0.31552     O
O      0.14878   0.7687  0.18448     O
C       0.1501   0.5719  0.94368     C
C       0.1501   0.9281  0.55632     C
H       0.1533   0.5961   0.9709     H
H       0.1533   0.9039   0.5291     H
P      0.15366  0.65835  0.79979     P
P      0.15366  0.84165  0.70021     P
H       0.1546   0.0037   0.7035     H
H       0.1546   0.4963   0.7965     H
P      0.15835  0.65366  0.29979     P
P      0.15835  0.84634  0.20021     P
C       0.1615   0.5767  0.62188     C
H       0.1615   0.7345   0.9555     H
H       0.1615   0.7655   0.5445     H
C       0.1615   0.9233  0.87812     C
H       0.1634   0.0049   0.1248     H
H       0.1634   0.4951   0.3752     H
Zn     0.16464  0.66717 0.201496    Zn
Zn     0.16464  0.83283 0.298504    Zn
H       0.1649   0.5215   0.5645     H
H       0.1649   0.9785   0.9355     H
H       0.1654   0.0186   0.0739     H
H       0.1654   0.4814   0.4261     H
Zn     0.16717  0.66464 0.701496    Zn
Zn     0.16717  0.83536 0.798504    Zn
C       0.1679   0.0366  0.59835     C
C       0.1679   0.4634  0.90165     C
C       0.1694   0.0017  0.55885     C
C       0.1694   0.4983  0.94115     C
H        0.176   0.7075   0.5764     H
H        0.176   0.7925   0.9236     H
H       0.1823   0.0873   0.6002     H
H       0.1823   0.4127   0.8998     H
H       0.1836   0.0282   0.5337     H
H       0.1836   0.4718   0.9663     H
H       0.1855   0.5106   0.4407     H
H       0.1855   0.9894   0.0593     H
C       0.1871   0.7392   0.9219     C
C       0.1871   0.7608   0.5781     C
C       0.1895   0.5908   0.4096     C
C       0.1895   0.9092   0.0904     C
C         0.19   0.5064    0.402     C
C         0.19   0.9936    0.098     C
H       0.1936   0.1396   0.6613     H
H       0.1936   0.3604   0.8387     H
H       0.1971   0.5745   0.4759     H
H       0.1971   0.9255   0.0241     H
H       0.1975   0.1264   0.7124     H
H       0.1975   0.3736   0.7876     H
H       0.2007   0.0976   0.7143     H
H       0.2007   0.4024   0.7857     H
C       0.2021   0.1026    0.684     C
C       0.2021   0.3974    0.816     C
C       0.2069   0.0489   0.7005     C
C       0.2069   0.4511   0.7995     C
H       0.2075    0.676   0.0764     H
H       0.2075    0.824   0.4236     H
H       0.2089   0.7226   0.9492     H
H       0.2089   0.7774   0.5508     H
C       0.2127   0.5563   0.4476     C
C       0.2127   0.9437   0.0524     C
H        0.213   0.5712   0.6278     H
H        0.213   0.9288   0.8722     H
H       0.2149   0.5953   0.3853     H
H       0.2149   0.9047   0.1147     H
H       0.2179   0.0114   0.7226     H
H       0.2179   0.4886   0.7774     H
H       0.2199   0.6141   0.3862     H
H       0.2199   0.8859   0.1138     H
H       0.2223   0.7302   0.8984     H
H       0.2223   0.7698   0.6016     H
H       0.2226   0.7089   0.4492     H
H       0.2226   0.7911   0.0508     H
H        0.223   0.5834    0.047     H
H        0.223   0.9166    0.453     H
C       0.2281   0.6077   0.4524     C
C       0.2281   0.8923   0.0476     C
H       0.2302   0.7223   0.3984     H
H       0.2302   0.7777   0.1016     H
O       0.2313  0.64878  0.81552     O
O       0.2313  0.85122  0.68448     O
H       0.2338   0.5458    0.052     H
H       0.2338   0.9542    0.448     H
H       0.2345   0.6615   0.4555     H
H       0.2345   0.8385   0.0445     H
O      0.23716  0.62577  0.30305     O
O      0.23716  0.87423  0.19695     O
C       0.2392   0.6871   0.4219     C
C       0.2392   0.8129   0.0781     C
H       0.2414   0.0111   0.1003     H
H       0.2414   0.4889   0.3997     H
H       0.2479   0.0816   0.8191     H
H       0.2479   0.4184   0.6809     H
H       0.2481   0.0512   0.6799     H
H       0.2481   0.4488   0.8201     H
H       0.2519   0.0512   0.8201     H
H       0.2519   0.4488   0.6799     H
H       0.2521   0.0816   0.6809     H
H       0.2521   0.4184   0.8191     H
H       0.2586   0.0111   0.3997     H
H       0.2586   0.4889   0.1003     H
C       0.2608   0.6871   0.0781     C
C       0.2608   0.8129   0.4219     C
O      0.26284  0.62577  0.19695     O
O      0.26284  0.87423  0.30305     O
H       0.2655   0.6615   0.0445     H
H       0.2655   0.8385   0.4555     H
H       0.2662   0.5458    0.448     H
H       0.2662   0.9542    0.052     H
O       0.2687  0.64878  0.68448     O
O       0.2687  0.85122  0.81552     O
H       0.2698   0.7223   0.1016     H
H       0.2698   0.7777   0.3984     H
C       0.2719   0.6077   0.0476     C
C       0.2719   0.8923   0.4524     C
H        0.277   0.5834    0.453     H
H        0.277   0.9166    0.047     H
H       0.2774   0.7089   0.0508     H
H       0.2774   0.7911   0.4492     H
H       0.2777   0.7302   0.6016     H
H       0.2777   0.7698   0.8984     H
H       0.2801   0.6141   0.1138     H
H       0.2801   0.8859   0.3862     H
H       0.2821   0.0114   0.7774     H
H       0.2821   0.4886   0.7226     H
H       0.2851   0.5953   0.1147     H
H       0.2851   0.9047   0.3853     H
H        0.287   0.5712   0.8722     H
H        0.287   0.9288   0.6278     H
C       0.2873   0.5563   0.0524     C
C       0.2873   0.9437   0.4476     C
H       0.2911   0.7226   0.5508     H
H       0.2911   0.7774   0.9492     H
H       0.2925    0.676   0.4236     H
H       0.2925    0.824   0.0764     H
C       0.2931   0.0489   0.7995     C
C       0.2931   0.4511   0.7005     C
C       0.2979   0.1026    0.816     C
C       0.2979   0.3974    0.684     C
H       0.2993   0.0976   0.7857     H
H       0.2993   0.4024   0.7143     H
H       0.3023   0.5888   0.0237     H
H       0.3023   0.9112   0.4763     H
H       0.3025   0.1264   0.7876     H
H       0.3025   0.3736   0.7124     H
C        0.304   0.6154   0.0867     C
C        0.304   0.8846   0.4133     C
H       0.3064   0.1396   0.8387     H
H       0.3064   0.3604   0.6613     H
C         0.31   0.5064    0.098     C
C         0.31   0.9936    0.402     C
C       0.3129   0.7392   0.5781     C
C       0.3129   0.7608   0.9219     C
H       0.3145   0.5106   0.0593     H
H       0.3145   0.9894   0.4407     H
H       0.3164   0.0282   0.9663     H
H       0.3164   0.4718   0.5337     H
H       0.3177   0.0873   0.8998     H
H       0.3177   0.4127   0.6002     H
H        0.324   0.7075   0.9236     H
H        0.324   0.7925   0.5764     H
C       0.3306   0.0017  0.94115     C
C       0.3306   0.4983  0.55885     C
C       0.3321   0.0366  0.90165     C
C       0.3321   0.4634  0.59835     C
Zn     0.33283  0.66464 0.798504    Zn
Zn     0.33283  0.83536 0.701496    Zn
H       0.3346   0.0186   0.4261     H
H       0.3346   0.4814   0.0739     H
H       0.3351   0.5215   0.9355     H
H       0.3351   0.9785   0.5645     H
Zn     0.33536  0.66717 0.298504    Zn
Zn     0.33536  0.83283 0.201496    Zn
H       0.3366   0.0049   0.3752     H
H       0.3366   0.4951   0.1248     H
C       0.3385   0.5767  0.87812     C
H       0.3385   0.7345   0.5445     H
H       0.3385   0.7655   0.9555     H
C       0.3385   0.9233  0.62188     C
P      0.34165  0.65366  0.20021     P
P      0.34165  0.84634  0.29979     P
H       0.3454   0.0037   0.7965     H
H       0.3454   0.4963   0.7035     H
P      0.34634  0.65835  0.70021     P
P      0.34634  0.84165  0.79979     P
H       0.3467   0.5961   0.5291     H
H       0.3467   0.9039   0.9709     H
C       0.3499   0.5719  0.55632     C
C       0.3499   0.9281  0.94368     C
O      0.35122   0.7313  0.18448     O
O      0.35122   0.7687  0.31552     O
C       0.3541   0.5006  0.63569     C
H       0.3541   0.5161   0.3379     H
H       0.3541   0.9839   0.1621     H
C       0.3541   0.9994  0.86431     C
C       0.3551    0.041   0.8198     C
C       0.3551    0.459   0.6802     C
H       0.3604   0.1936   0.6613     H
H       0.3604   0.3064   0.8387     H
O      0.36204   0.6251  0.74382     O
O      0.36204   0.8749  0.75618     O
H       0.3621   0.1075   0.6629     H
H       0.3621   0.3925   0.8371     H
C       0.3667   0.5467  0.91574     C
C       0.3667   0.9533  0.58426     C
H       0.3736   0.1975   0.7124     H
H       0.3736   0.3025   0.7876     H
C       0.3738   0.6126  0.59183     C
C       0.3738   0.8874  0.90817     C
O      0.37423  0.73716  0.69695     O
O      0.37423  0.76284  0.80305     O
C       0.3749   0.5741  0.63129     C
O       0.3749  0.63796  0.24382     O
O       0.3749  0.86204  0.25618     O
C       0.3749   0.9259  0.86871     C
C         0.38   0.5465  0.35798     C
C         0.38   0.9535  0.14202     C
N      0.38097  0.61313  0.84978     N
N      0.38097  0.88687  0.65022     N
C       0.3846    0.696   0.5867     C
C       0.3846    0.804   0.9133     C
H       0.3859   0.7199   0.6138     H
H       0.3859   0.7801   0.8862     H
N      0.38687  0.61903  0.34978     N
N      0.38687  0.88097  0.15022     N
C       0.3874   0.6262  0.09183     C
C       0.3874   0.8738  0.40817     C
O      0.38835  0.60087  0.16793     O
O      0.38835  0.89913  0.33207     O
H       0.3893   0.5117   0.6943     H
H       0.3893   0.9883   0.8057     H
H       0.3922   0.0675   0.7056     H
H       0.3922   0.4325   0.7944     H
C       0.3923   0.7281   0.5476     C
C       0.3923   0.7719   0.9524     C
H       0.3925   0.1379   0.8371     H
H       0.3925   0.3621   0.6629     H
H       0.3941   0.0534   0.6624     H
H       0.3941   0.4466   0.8376     H
C       0.3974   0.2021    0.684     C
C       0.3974   0.2979    0.816     C
O      0.39913  0.61165  0.66793     O
O      0.39913  0.88835  0.83207     O
H       0.4019   0.0616   0.7136     H
H       0.4019   0.4384   0.7864     H
H       0.4024   0.2007   0.7143     H
H       0.4024   0.2993   0.7857     H
H       0.4039   0.6533   0.0291     H
H       0.4039   0.8467   0.4709     H
H       0.4042   0.0382   0.1005     H
H       0.4042   0.4618   0.3995     H
H       0.4047   0.7149   0.6147     H
H       0.4047   0.7851   0.8853     H
C        0.405   0.0823   0.6761     C
C        0.405   0.4177   0.8239     C
C       0.4093   0.5137  0.39469     C
C       0.4093   0.9863  0.10531     C
H       0.4112   0.6977   0.5237     H
H       0.4112   0.8023   0.9763     H
H       0.4127   0.1823   0.6002     H
H       0.4127   0.3177   0.8998     H
H       0.4166    0.723    0.953     H
H       0.4166    0.777    0.547     H
H       0.4173    0.038   0.6592     H
H       0.4173    0.462   0.8408     H
C       0.4177    0.095   0.8239     C
C       0.4177    0.405   0.6761     C
H       0.4184   0.2479   0.8191     H
H       0.4184   0.2521   0.6809     H
C       0.4233   0.6615  0.37812     C
C       0.4233   0.8385  0.12188     C
C       0.4259   0.6251  0.13129     C
C       0.4259   0.8749  0.36871     C
C       0.4281   0.6501  0.05632     C
C       0.4281   0.8499  0.44368     C
N       0.4285   0.0176  0.51102     N
N       0.4285   0.4824  0.98898     N
H       0.4288    0.713   0.3722     H
H       0.4288    0.787   0.1278     H
H       0.4325   0.1078   0.7944     H
H       0.4325   0.3922   0.7056     H
H       0.4384   0.0981   0.7864     H
H       0.4384   0.4019   0.7136     H
C       0.4418   0.5541  0.92418     C
C       0.4418   0.9459  0.57582     C
C       0.4437   0.7127   0.5524     C
C       0.4437   0.7873   0.9476     C
C       0.4459   0.5582  0.42418     C
C       0.4459   0.9418  0.07582     C
H       0.4466   0.1059   0.8376     H
H       0.4466   0.3941   0.6624     H
H       0.4488   0.2481   0.6799     H
H       0.4488   0.2519   0.8201     H
C       0.4511   0.2069   0.7005     C
C       0.4511   0.2931   0.7995     C
C       0.4533   0.6333  0.41574     C
C       0.4533   0.8667  0.08426     C
C       0.4535     0.62  0.85798     C
C       0.4535     0.88  0.64202     C
H       0.4542   0.7338    0.948     H
H       0.4542   0.7662    0.552     H
N      0.45661  0.04332  0.02614     N
N      0.45661  0.45668  0.47386     N
N      0.45668  0.04339  0.47386     N
N      0.45668  0.45661  0.02614     N
C        0.459   0.1449   0.6802     C
C        0.459   0.3551   0.8198     C
H       0.4618   0.0958   0.3995     H
H       0.4618   0.4042   0.1005     H
H        0.462   0.0827   0.8408     H
H        0.462   0.4173   0.6592     H
C       0.4634   0.1679  0.59835     C
C       0.4634   0.3321  0.90165     C
H       0.4718   0.1836   0.5337     H
H       0.4718   0.3164   0.9663     H
C       0.4735   0.5243  0.96486     C
C       0.4735   0.9757  0.53514     C
C       0.4757   0.5265  0.46486     C
C       0.4757   0.9735  0.03514     C
H       0.4785   0.6649   0.4355     H
H       0.4785   0.8351   0.0645     H
H       0.4814   0.1654   0.0739     H
H       0.4814   0.3346   0.4261     H
N       0.4824   0.0715  0.98898     N
N       0.4824   0.4285  0.51102     N
H       0.4839   0.6459   0.8379     H
H       0.4839   0.8541   0.6621     H
C       0.4863   0.5907  0.89469     C
C       0.4863   0.9093  0.60531     C
H       0.4883   0.6107   0.1943     H
H       0.4883   0.8893   0.3057     H
H       0.4886   0.2179   0.7226     H
H       0.4886   0.2821   0.7774     H
H       0.4889   0.2414   0.1003     H
H       0.4889   0.2586   0.3997     H
H       0.4894   0.6855   0.5593     H
H       0.4894   0.8145   0.9407     H
C       0.4936     0.69    0.598     C
C       0.4936     0.81    0.902     C
H       0.4951   0.1634   0.1248     H
H       0.4951   0.3366   0.3752     H
H       0.4963   0.1546   0.7035     H
H       0.4963   0.3454   0.7965     H
C       0.4983   0.1694  0.55885     C
C       0.4983   0.3306  0.94115     C
C       0.4994   0.6459  0.13569     C
C       0.4994   0.8541  0.36431     C
C       0.5006   0.1459  0.63569     C
C       0.5006   0.3541  0.86431     C
C       0.5017   0.6694  0.05885     C
C       0.5017   0.8306  0.44115     C
H       0.5037   0.6546   0.2035     H
H       0.5037   0.8454   0.2965     H
H       0.5049   0.6634   0.6248     H
H       0.5049   0.8366   0.8752     H
C       0.5064     0.19    0.098     C
C       0.5064     0.31    0.402     C
H       0.5106   0.1855   0.0593     H
H       0.5106   0.3145   0.4407     H
H       0.5111   0.7414   0.6003     H
H       0.5111   0.7586   0.8997     H
H       0.5114   0.7179   0.2226     H
H       0.5114   0.7821   0.2774     H
H       0.5117   0.1107   0.6943     H
H       0.5117   0.3893   0.8057     H
C       0.5137   0.0907  0.39469     C
C       0.5137   0.4093  0.10531     C
H       0.5161   0.1459   0.3379     H
H       0.5161   0.3541   0.1621     H
N       0.5176   0.5715  0.48898     N
N       0.5176   0.9285  0.01102     N
H       0.5186   0.6654   0.5739     H
H       0.5186   0.8346   0.9261     H
H       0.5215   0.1649   0.9355     H
H       0.5215   0.3351   0.5645     H
C       0.5243   0.0265  0.96486     C
C       0.5243   0.4735  0.53514     C
C       0.5265   0.0243  0.46486     C
C       0.5265   0.4757  0.03514     C
C        0.528    0.635    0.177     C
C        0.528    0.865    0.323     C
H       0.5282   0.6836   0.0337     H
H       0.5282   0.8164   0.4663     H
H       0.5295   0.5303   0.3141     H
H       0.5295   0.9697   0.1859     H
H       0.5303   0.5295   0.1859     H
H       0.5303   0.9705   0.3141     H
C       0.5366   0.6679  0.09835     C
C       0.5366   0.8321  0.40165     C
H        0.538   0.5827   0.3408     H
H        0.538   0.9173   0.1592     H
H       0.5382   0.5958   0.8995     H
H       0.5382   0.9042   0.6005     H
N      0.54332  0.54339  0.97386     N
N      0.54332  0.95661  0.52614     N
N      0.54339  0.54332  0.52614     N
N      0.54339  0.95668  0.97386     N
H       0.5458   0.2338    0.448     H
H       0.5458   0.2662    0.052     H
C       0.5465     0.12  0.35798     C
C       0.5465     0.38  0.14202     C
C       0.5467   0.1333  0.91574     C
C       0.5467   0.3667  0.58426     C
C       0.5489   0.7069   0.2005     C
C       0.5489   0.7931   0.2995     C
H       0.5512   0.7481   0.1799     H
H       0.5512   0.7519   0.3201     H
H       0.5534   0.6059   0.3376     H
H       0.5534   0.8941   0.1624     H
C       0.5541   0.0582  0.92418     C
C       0.5541   0.4418  0.57582     C
C       0.5563   0.2127   0.0524     C
C       0.5563   0.2873   0.4476     C
C       0.5582   0.0541  0.42418     C
C       0.5582   0.4459  0.07582     C
H       0.5616   0.5981   0.2864     H
H       0.5616   0.9019   0.2136     H
C        0.565   0.5716   0.3139     C
C        0.565   0.9284   0.1861     C
H       0.5675   0.6078   0.2944     H
H       0.5675   0.8922   0.2056     H
H       0.5712    0.213   0.8722     H
H       0.5712    0.287   0.6278     H
N       0.5715   0.5176  0.01102     N
N       0.5715   0.9824  0.48898     N
C       0.5716    0.565   0.1861     C
C       0.5716    0.935   0.3139     C
C       0.5719   0.1501  0.55632     C
C       0.5719   0.3499  0.94368     C
C       0.5741   0.1251  0.63129     C
C       0.5741   0.3749  0.86871     C
H       0.5745   0.1971   0.0241     H
H       0.5745   0.3029   0.4759     H
C       0.5767   0.1615  0.87812     C
C       0.5767   0.3385  0.62188     C
H       0.5816   0.7479   0.3191     H
H       0.5816   0.7521   0.1809     H
H       0.5827    0.538   0.1592     H
H       0.5827    0.962   0.3408     H
H       0.5834    0.223    0.453     H
H       0.5834    0.277    0.047     H
H       0.5873   0.6823   0.1002     H
H       0.5873   0.8177   0.3998     H
C       0.5907   0.0137  0.89469     C
C       0.5907   0.4863  0.60531     C
C       0.5908   0.1895   0.0904     C
C       0.5908   0.3105   0.4096     C
H       0.5953   0.2149   0.1147     H
H       0.5953   0.2851   0.3853     H
H       0.5958   0.5382   0.6005     H
H       0.5958   0.9618   0.8995     H
H       0.5961   0.1533   0.5291     H
H       0.5961   0.3467   0.9709     H
H       0.5976   0.7007   0.2143     H
H       0.5976   0.7993   0.2857     H
H       0.5981   0.5616   0.2136     H
H       0.5981   0.9384   0.2864     H
O      0.60087  0.11165  0.16793     O
O      0.60087  0.38835  0.33207     O
C       0.6026   0.7021    0.184     C
C       0.6026   0.7979    0.316     C
H       0.6059   0.5534   0.1624     H
H       0.6059   0.9466   0.3376     H
C       0.6077   0.2281   0.0476     C
C       0.6077   0.2719   0.4524     C
H       0.6078   0.5675   0.2056     H
H       0.6078   0.9325   0.2944     H
H       0.6107   0.0117   0.1943     H
H       0.6107   0.4883   0.3057     H
O      0.61165  0.10087  0.66793     O
O      0.61165  0.39913  0.83207     O
C       0.6126   0.1262  0.59183     C
C       0.6126   0.3738  0.90817     C
N      0.61313  0.11903  0.84978     N
N      0.61313  0.38097  0.65022     N
H       0.6141   0.2199   0.1138     H
H       0.6141   0.2801   0.3862     H
N      0.61903  0.11313  0.34978     N
N      0.61903  0.38687  0.15022     N
C         0.62   0.0465  0.85798     C
C         0.62   0.4535  0.64202     C
C       0.6251   0.0741  0.13129     C
O       0.6251  0.13796  0.74382     O
O       0.6251  0.36204  0.75618     O
C       0.6251   0.4259  0.36871     C
O      0.62577  0.23716  0.19695     O
O      0.62577  0.26284  0.30305     O
C       0.6262   0.1126  0.09183     C
C       0.6262   0.3874  0.40817     C
H       0.6264   0.6975   0.2124     H
H       0.6264   0.8025   0.2876     H
C       0.6333   0.0467  0.41574     C
C       0.6333   0.4533  0.08426     C
C        0.635    0.528    0.323     C
C        0.635    0.972    0.177     C
O      0.63796   0.1251  0.24382     O
O      0.63796   0.3749  0.25618     O
H       0.6396   0.6936   0.1613     H
H       0.6396   0.8064   0.3387     H
C       0.6459   0.0006  0.13569     C
H       0.6459   0.0161   0.8379     H
H       0.6459   0.4839   0.6621     H
C       0.6459   0.4994  0.36431     C
O      0.64878   0.2313  0.68448     O
O      0.64878   0.2687  0.81552     O
C       0.6501   0.0719  0.05632     C
C       0.6501   0.4281  0.44368     C
H       0.6533   0.0961   0.0291     H
H       0.6533   0.4039   0.4709     H
P      0.65366  0.15835  0.20021     P
P      0.65366  0.34165  0.29979     P
H       0.6546   0.5037   0.2965     H
H       0.6546   0.9963   0.2035     H
P      0.65835  0.15366  0.70021     P
P      0.65835  0.34634  0.79979     P
C       0.6615   0.0767  0.37812     C
H       0.6615   0.2345   0.0445     H
H       0.6615   0.2655   0.4555     H
C       0.6615   0.4233  0.12188     C
H       0.6634   0.5049   0.8752     H
H       0.6634   0.9951   0.6248     H
Zn     0.66464  0.16717 0.798504    Zn
Zn     0.66464  0.33283 0.701496    Zn
H       0.6649   0.0215   0.4355     H
H       0.6649   0.4785   0.0645     H
H       0.6654   0.5186   0.9261     H
H       0.6654   0.9814   0.5739     H
Zn     0.66717  0.16464 0.298504    Zn
Zn     0.66717  0.33536 0.201496    Zn
C       0.6679   0.5366  0.40165     C
C       0.6679   0.9634  0.09835     C
C       0.6694   0.5017  0.44115     C
C       0.6694   0.9983  0.05885     C
H        0.676   0.2075   0.4236     H
H        0.676   0.2925   0.0764     H
H       0.6823   0.5873   0.3998     H
H       0.6823   0.9127   0.1002     H
H       0.6836   0.5282   0.4663     H
H       0.6836   0.9718   0.0337     H
H       0.6855   0.0106   0.5593     H
H       0.6855   0.4894   0.9407     H
C       0.6871   0.2392   0.0781     C
C       0.6871   0.2608   0.4219     C
C       0.6895   0.0908   0.5904     C
C       0.6895   0.4092   0.9096     C
C         0.69   0.0064    0.598     C
C         0.69   0.4936    0.902     C
H       0.6936   0.6396   0.3387     H
H       0.6936   0.8604   0.1613     H
H       0.6971   0.0745   0.5241     H
H       0.6971   0.4255   0.9759     H
H       0.6975   0.6264   0.2876     H
H       0.6975   0.8736   0.2124     H
H       0.7007   0.5976   0.2857     H
H       0.7007   0.9024   0.2143     H
C       0.7021   0.6026    0.316     C
C       0.7021   0.8974    0.184     C
C       0.7069   0.5489   0.2995     C
C       0.7069   0.9511   0.2005     C
H       0.7075    0.176   0.9236     H
H       0.7075    0.324   0.5764     H
H       0.7089   0.2226   0.0508     H
H       0.7089   0.2774   0.4492     H
C       0.7127   0.0563   0.5524     C
C       0.7127   0.4437   0.9476     C
H        0.713   0.0712   0.3722     H
H        0.713   0.4288   0.1278     H
H       0.7149   0.0953   0.6147     H
H       0.7149   0.4047   0.8853     H
H       0.7179   0.5114   0.2774     H
H       0.7179   0.9886   0.2226     H
H       0.7199   0.1141   0.6138     H
H       0.7199   0.3859   0.8862     H
H       0.7223   0.2302   0.1016     H
H       0.7223   0.2698   0.3984     H
H       0.7226   0.2089   0.5508     H
H       0.7226   0.2911   0.9492     H
H        0.723   0.0834    0.953     H
H        0.723   0.4166    0.547     H
C       0.7281   0.1077   0.5476     C
C       0.7281   0.3923   0.9524     C
H       0.7302   0.2223   0.6016     H
H       0.7302   0.2777   0.8984     H
O       0.7313  0.14878  0.18448     O
O       0.7313  0.35122  0.31552     O
H       0.7338   0.0458    0.948     H
H       0.7338   0.4542    0.552     H
H       0.7345   0.1615   0.5445     H
H       0.7345   0.3385   0.9555     H
O      0.73716  0.12577  0.69695     O
O      0.73716  0.37423  0.80305     O
C       0.7392   0.1871   0.5781     C
C       0.7392   0.3129   0.9219     C
H       0.7414   0.5111   0.8997     H
H       0.7414   0.9889   0.6003     H
H       0.7479   0.5816   0.1809     H
H       0.7479   0.9184   0.3191     H
H       0.7481   0.5512   0.3201     H
H       0.7481   0.9488   0.1799     H
H       0.7519   0.5512   0.1799     H
H       0.7519   0.9488   0.3201     H
H       0.7521   0.5816   0.3191     H
H       0.7521   0.9184   0.1809     H
H       0.7586   0.5111   0.6003     H
H       0.7586   0.9889   0.8997     H
C       0.7608   0.1871   0.9219     C
C       0.7608   0.3129   0.5781     C
O      0.76284  0.12577  0.80305     O
O      0.76284  0.37423  0.69695     O
H       0.7655   0.1615   0.9555     H
H       0.7655   0.3385   0.5445     H
H       0.7662   0.0458    0.552     H
H       0.7662   0.4542    0.948     H
O       0.7687  0.14878  0.31552     O
O       0.7687  0.35122  0.18448     O
H       0.7698   0.2223   0.8984     H
H       0.7698   0.2777   0.6016     H
C       0.7719   0.1077   0.9524     C
C       0.7719   0.3923   0.5476     C
H        0.777   0.0834    0.547     H
H        0.777   0.4166    0.953     H
H       0.7774   0.2089   0.9492     H
H       0.7774   0.2911   0.5508     H
H       0.7777   0.2302   0.3984     H
H       0.7777   0.2698   0.1016     H
H       0.7801   0.1141   0.8862     H
H       0.7801   0.3859   0.6138     H
H       0.7821   0.5114   0.2226     H
H       0.7821   0.9886   0.2774     H
H       0.7851   0.0953   0.8853     H
H       0.7851   0.4047   0.6147     H
H        0.787   0.0712   0.1278     H
H        0.787   0.4288   0.3722     H
C       0.7873   0.0563   0.9476     C
C       0.7873   0.4437   0.5524     C
H       0.7911   0.2226   0.4492     H
H       0.7911   0.2774   0.0508     H
H       0.7925    0.176   0.5764     H
H       0.7925    0.324   0.9236     H
C       0.7931   0.5489   0.2005     C
C       0.7931   0.9511   0.2995     C
C       0.7979   0.6026    0.184     C
C       0.7979   0.8974    0.316     C
H       0.7993   0.5976   0.2143     H
H       0.7993   0.9024   0.2857     H
H       0.8023   0.0888   0.9763     H
H       0.8023   0.4112   0.5237     H
H       0.8025   0.6264   0.2124     H
H       0.8025   0.8736   0.2876     H
C        0.804   0.1154   0.9133     C
C        0.804   0.3846   0.5867     C
H       0.8064   0.6396   0.1613     H
H       0.8064   0.8604   0.3387     H
C         0.81   0.0064    0.902     C
C         0.81   0.4936    0.598     C
C       0.8129   0.2392   0.4219     C
C       0.8129   0.2608   0.0781     C
H       0.8145   0.0106   0.9407     H
H       0.8145   0.4894   0.5593     H
H       0.8164   0.5282   0.0337     H
H       0.8164   0.9718   0.4663     H
H       0.8177   0.5873   0.1002     H
H       0.8177   0.9127   0.3998     H
H        0.824   0.2075   0.0764     H
H        0.824   0.2925   0.4236     H
C       0.8306   0.5017  0.05885     C
C       0.8306   0.9983  0.44115     C
C       0.8321   0.5366  0.09835     C
C       0.8321   0.9634  0.40165     C
Zn     0.83283  0.16464 0.201496    Zn
Zn     0.83283  0.33536 0.298504    Zn
H       0.8346   0.5186   0.5739     H
H       0.8346   0.9814   0.9261     H
H       0.8351   0.0215   0.0645     H
H       0.8351   0.4785   0.4355     H
Zn     0.83536  0.16717 0.701496    Zn
Zn     0.83536  0.33283 0.798504    Zn
H       0.8366   0.5049   0.6248     H
H       0.8366   0.9951   0.8752     H
C       0.8385   0.0767  0.12188     C
H       0.8385   0.2345   0.4555     H
H       0.8385   0.2655   0.0445     H
C       0.8385   0.4233  0.37812     C
P      0.84165  0.15366  0.79979     P
P      0.84165  0.34634  0.70021     P
H       0.8454   0.5037   0.2035     H
H       0.8454   0.9963   0.2965     H
P      0.84634  0.15835  0.29979     P
P      0.84634  0.34165  0.20021     P
H       0.8467   0.0961   0.4709     H
H       0.8467   0.4039   0.0291     H
C       0.8499   0.0719  0.44368     C
C       0.8499   0.4281  0.05632     C
O      0.85122   0.2313  0.81552     O
O      0.85122   0.2687  0.68448     O
C       0.8541   0.0006  0.36431     C
H       0.8541   0.0161   0.6621     H
H       0.8541   0.4839   0.8379     H
C       0.8541   0.4994  0.13569     C
C       0.8551    0.541   0.1802     C
C       0.8551    0.959   0.3198     C
H       0.8604   0.6936   0.3387     H
H       0.8604   0.8064   0.1613     H
O      0.86204   0.1251  0.25618     O
O      0.86204   0.3749  0.24382     O
H       0.8621   0.6075   0.3371     H
H       0.8621   0.8925   0.1629     H
C       0.8667   0.0467  0.08426     C
C       0.8667   0.4533  0.41574     C
H       0.8736   0.6975   0.2876     H
H       0.8736   0.8025   0.2124     H
C       0.8738   0.1126  0.40817     C
C       0.8738   0.3874  0.09183     C
O      0.87423  0.23716  0.30305     O
O      0.87423  0.26284  0.19695     O
C       0.8749   0.0741  0.36871     C
O       0.8749  0.13796  0.75618     O
O       0.8749  0.36204  0.74382     O
C       0.8749   0.4259  0.13129     C
C         0.88   0.0465  0.64202     C
C         0.88   0.4535  0.85798     C
N      0.88097  0.11313  0.15022     N
N      0.88097  0.38687  0.34978     N
C       0.8846    0.196   0.4133     C
C       0.8846    0.304   0.0867     C
H       0.8859   0.2199   0.3862     H
H       0.8859   0.2801   0.1138     H
N      0.88687  0.11903  0.65022     N
N      0.88687  0.38097  0.84978     N
C       0.8874   0.1262  0.90817     C
C       0.8874   0.3738  0.59183     C
O      0.88835  0.10087  0.83207     O
O      0.88835  0.39913  0.66793     O
H       0.8893   0.0117   0.3057     H
H       0.8893   0.4883   0.1943     H
H       0.8922   0.5675   0.2944     H
H       0.8922   0.9325   0.2056     H
C       0.8923   0.2281   0.4524     C
C       0.8923   0.2719   0.0476     C
H       0.8925   0.6379   0.1629     H
H       0.8925   0.8621   0.3371     H
H       0.8941   0.5534   0.3376     H
H       0.8941   0.9466   0.1624     H
C       0.8974   0.7021    0.316     C
C       0.8974   0.7979    0.184     C
O      0.89913  0.11165  0.33207     O
O      0.89913  0.38835  0.16793     O
H       0.9019   0.5616   0.2864     H
H       0.9019   0.9384   0.2136     H
H       0.9024   0.7007   0.2857     H
H       0.9024   0.7993   0.2143     H
H       0.9039   0.1533   0.9709     H
H       0.9039   0.3467   0.5291     H
H       0.9042   0.5382   0.8995     H
H       0.9042   0.9618   0.6005     H
H       0.9047   0.2149   0.3853     H
H       0.9047   0.2851   0.1147     H
C        0.905   0.5823   0.3239     C
C        0.905   0.9177   0.1761     C
C       0.9093   0.0137  0.60531     C
C       0.9093   0.4863  0.89469     C
H       0.9112   0.1977   0.4763     H
H       0.9112   0.3023   0.0237     H
H       0.9127   0.6823   0.3998     H
H       0.9127   0.8177   0.1002     H
H       0.9166    0.223    0.047     H
H       0.9166    0.277    0.453     H
H       0.9173    0.538   0.3408     H
H       0.9173    0.962   0.1592     H
C       0.9177    0.595   0.1761     C
C       0.9177    0.905   0.3239     C
H       0.9184   0.7479   0.1809     H
H       0.9184   0.7521   0.3191     H
C       0.9233   0.1615  0.62188     C
C       0.9233   0.3385  0.87812     C
C       0.9259   0.1251  0.86871     C
C       0.9259   0.3749  0.63129     C
C       0.9281   0.1501  0.94368     C
C       0.9281   0.3499  0.55632     C
N       0.9285   0.5176  0.48898     N
N       0.9285   0.9824  0.01102     N
H       0.9288    0.213   0.6278     H
H       0.9288    0.287   0.8722     H
H       0.9325   0.6078   0.2056     H
H       0.9325   0.8922   0.2944     H
H       0.9384   0.5981   0.2136     H
H       0.9384   0.9019   0.2864     H
C       0.9418   0.0541  0.07582     C
C       0.9418   0.4459  0.42418     C
C       0.9437   0.2127   0.4476     C
C       0.9437   0.2873   0.0524     C
C       0.9459   0.0582  0.57582     C
C       0.9459   0.4418  0.92418     C
H       0.9466   0.6059   0.1624     H
H       0.9466   0.8941   0.3376     H
H       0.9488   0.7481   0.3201     H
H       0.9488   0.7519   0.1799     H
C       0.9511   0.7069   0.2995     C
C       0.9511   0.7931   0.2005     C
C       0.9533   0.1333  0.58426     C
C       0.9533   0.3667  0.91574     C
C       0.9535     0.12  0.14202     C
C       0.9535     0.38  0.35798     C
H       0.9542   0.2338    0.052     H
H       0.9542   0.2662    0.448     H
N      0.95661  0.54332  0.97386     N
N      0.95661  0.95668  0.52614     N
N      0.95668  0.54339  0.52614     N
N      0.95668  0.95661  0.97386     N
C        0.959   0.6449   0.3198     C
C        0.959   0.8551   0.1802     C
H       0.9618   0.5958   0.6005     H
H       0.9618   0.9042   0.8995     H
H        0.962   0.5827   0.1592     H
H        0.962   0.9173   0.3408     H
C       0.9634   0.6679  0.40165     C
C       0.9634   0.8321  0.09835     C
H       0.9718   0.6836   0.4663     H
H       0.9718   0.8164   0.0337     H
C       0.9735   0.0243  0.03514     C
C       0.9735   0.4757  0.46486     C
C       0.9757   0.0265  0.53514     C
C       0.9757   0.4735  0.96486     C
H       0.9785   0.1649   0.5645     H
H       0.9785   0.3351   0.9355     H
H       0.9814   0.6654   0.9261     H
H       0.9814   0.8346   0.5739     H
N       0.9824   0.5715  0.01102     N
N       0.9824   0.9285  0.48898     N
H       0.9839   0.1459   0.1621     H
H       0.9839   0.3541   0.3379     H
C       0.9863   0.0907  0.10531     C
C       0.9863   0.4093  0.39469     C
H       0.9883   0.1107   0.8057     H
H       0.9883   0.3893   0.6943     H
H       0.9886   0.7179   0.2774     H
H       0.9886   0.7821   0.2226     H
H       0.9889   0.7414   0.8997     H
H       0.9889   0.7586   0.6003     H
H       0.9894   0.1855   0.4407     H
H       0.9894   0.3145   0.0593     H
C       0.9936     0.19    0.402     C
C       0.9936     0.31    0.098     C
H       0.9951   0.6634   0.8752     H
H       0.9951   0.8366   0.6248     H
H       0.9963   0.6546   0.2965     H
H       0.9963   0.8454   0.2035     H
C       0.9983   0.6694  0.44115     C
C       0.9983   0.8306  0.05885     C
C       0.9994   0.1459  0.86431     C
C       0.9994   0.3541  0.63569     C
