data_I
_chemical_name_common  '/Users/gianmarcoterrones/Research/MOFs/MOF_structures/water_stability_work_extra_structs/cleaned_from_CCDC/TAFTOM'
_cell_length_a 22.22000
_cell_length_b 22.22000
_cell_length_c 22.48700
_cell_angle_alpha 90.00000
_cell_angle_beta  90.00000
_cell_angle_gamma 120.00000
_space_group_name_H-M_alt      'P 1'


loop_
_space_group_symop_operation_xyz
  'x, y, z' 

loop_
_atom_site_label
_atom_site_fract_x
_atom_site_fract_y
_atom_site_fract_z
_atom_site_type_symbol
H       0.0021   0.3017 0.91053333     H
H       0.0021   0.7004   0.9228     H
C       0.0065    0.013 0.08333333     C
C       0.0065   0.9935     0.75     C
N       0.0084   0.2073 0.99003333     N
N       0.0084   0.8011   0.8433     N
C        0.013   0.0065 0.91666667     C
C       0.0136   0.3869    0.106     C
C       0.0136   0.6267 0.72733333     C
C       0.0139    0.125 0.05973333     C
C       0.0139   0.8889   0.7736     C
H       0.0167   0.3755   0.0649     H
H       0.0167   0.6412 0.76843333     H
H       0.0177   0.0354 0.58333333     H
H       0.0177   0.9823     0.25     H
C       0.0214   0.1824   0.2997     C
C       0.0214    0.839 0.53363333     C
C       0.0234   0.0743   0.2725     C
C       0.0234   0.9491 0.56083333     C
H        0.026   0.4353   0.1079     H
H        0.026   0.5907 0.72543333     H
H       0.0271   0.2767   0.1103     H
H       0.0271   0.7504 0.72303333     H
H       0.0272   0.0957 0.87956667     H
H       0.0272   0.9315 0.95376667     H
C       0.0344   0.2973   0.1496     C
C       0.0344   0.7371 0.68373333     C
H       0.0354   0.0177 0.41666667     H
C       0.0368   0.3129   0.3989     C
C       0.0368   0.7239 0.43443333     C
C       0.0404   0.2677   0.3562     C
C       0.0404   0.7727 0.47713333     C
C       0.0509   0.0743 0.89416667     C
C       0.0509   0.9766 0.93916667     C
C       0.0625   0.4027   0.2044     C
C       0.0625   0.6598 0.62893333     C
N       0.0635   0.3756   0.1436     N
N       0.0635   0.6879 0.68973333     N
H       0.0678    0.289   0.1703     H
H       0.0678   0.7788 0.66303333     H
H       0.0685   0.0957   0.2871     H
H       0.0685   0.9728 0.54623333     H
C       0.0743   0.0234   0.7275     C
C       0.0743   0.0509 0.10583333     C
C       0.0783   0.1567 0.08333333     C
C       0.0783   0.9216     0.75     C
N       0.0826   0.2322   0.2834     N
N       0.0826   0.8504 0.54993333     N
Cu     0.08437  0.22575 0.94030333    Cu
Cu     0.08437  0.85862  0.89303    Cu
H       0.0858    0.453   0.2032     H
H       0.0858   0.6328 0.63013333     H
H       0.0877   0.3895   0.2318     H
H       0.0877   0.6982 0.60153333     H
C       0.0955   0.3785   0.4022     C
C       0.0955    0.717 0.43113333     C
H       0.0957   0.0272 0.12043333     H
H       0.0957   0.0685   0.7129     H
H       0.0959   0.4091   0.4306     H
H       0.0959   0.6868 0.40273333     H
C       0.0962    0.288   0.3194     C
C       0.0962   0.8082 0.51393333     C
H       0.1025    0.205 0.08333333     H
H       0.1025   0.8975     0.75     H
C       0.1111    0.125 0.10693333     C
C       0.1111   0.9861   0.7264     C
C        0.125   0.0139 0.94026667     C
C        0.125   0.1111 0.89306667     C
H        0.141   0.5136   0.9357     H
H        0.141   0.6274 0.89763333     H
Cu     0.14138  0.22575 0.22636333    Cu
Cu     0.14138  0.91563  0.60697    Cu
H       0.1458   0.5725   0.9774     H
H       0.1458   0.5733 0.85593333     H
N       0.1496   0.2322 0.88326667     N
N       0.1496   0.9174 0.95006667     N
I      0.15248  0.39077  0.99576     I
I      0.15248  0.76171 0.83757333     I
C       0.1543   0.4019    0.366     C
C       0.1543   0.7524 0.46733333     C
C       0.1555   0.3554   0.3241     C
C       0.1555   0.8001 0.50923333     C
C       0.1567   0.0783 0.91666667     C
Cu     0.16049  0.42842  0.10888    Cu
Cu     0.16049  0.73207 0.72445333    Cu
C        0.161   0.1824 0.86696667     C
C        0.161   0.9786 0.96636667     C
C       0.1676   0.5629   0.9442     C
C       0.1676   0.6047 0.88913333     C
H       0.1743   0.3685 0.86666667     H
H       0.1743   0.8058 0.96666667     H
C       0.1824   0.0214   0.7003     C
C       0.1824    0.161 0.13303333     C
I      0.18954  0.56337  0.12163     I
I      0.18954  0.62617 0.71170333     I
H       0.1915   0.4469   0.3695     H
H       0.1915   0.7446 0.46383333     H
C       0.1918    0.288 0.84726667     C
C       0.1918   0.9038 0.98606667     C
H       0.1942   0.3685      0.3     H
H       0.1942   0.8257 0.53333333     H
N       0.1989   0.2073 0.17663333     N
N       0.1989   0.9916   0.6567     N
C       0.1999   0.3554 0.84256667     C
C       0.1999   0.8445 0.99076667     C
H        0.205   0.1025 0.91666667     H
N       0.2073   0.0084 0.00996667     N
N       0.2073   0.1989 0.82336667     N
H       0.2212    0.289 0.99636667     H
H       0.2212   0.9322 0.83696667     H
Cu     0.22575  0.08437 0.05969667    Cu
Cu     0.22575  0.14138 0.77363667    Cu
C       0.2273   0.2677 0.81046667     C
C       0.2273   0.9596 0.02286667     C
N       0.2322   0.0826   0.7166     N
N       0.2322   0.1496 0.11673333     N
Cu     0.23819   0.5229  0.03072    Cu
Cu     0.23819  0.71529 0.80261333    Cu
I      0.23829  0.39077 0.17090667     I
I      0.23829  0.84752 0.66242667     I
N       0.2385   0.5819   0.9601     N
N       0.2385   0.6566 0.87323333     N
H       0.2432   0.5222   0.8953     H
H       0.2432    0.721 0.93803333     H
C       0.2476   0.4019 0.80066667     C
C       0.2476   0.8457 0.03266667     C
H       0.2496   0.2767 0.05636667     H
H       0.2496   0.9729 0.77696667     H
H       0.2554   0.4469 0.79716667     H
H       0.2554   0.8085 0.03616667     H
H        0.256   0.5926 0.82043333     H
H        0.256   0.6634   0.0129     H
H       0.2621   0.5789 0.24826667     H
H       0.2621   0.6832 0.58506667     H
C       0.2629   0.2973 0.01706667     C
C       0.2629   0.9656 0.81626667     C
C       0.2677   0.0404   0.6438     C
C       0.2677   0.2273 0.18953333     C
Cu     0.26793  0.42842 0.05778667    Cu
Cu     0.26793  0.83951 0.77554667    Cu
C       0.2707   0.5702   0.9081     C
C       0.2707   0.7005 0.92523333     C
C       0.2761   0.3129 0.76776667     C
C       0.2761   0.9632 0.06556667     C
C       0.2762   0.6195 0.85633333     C
C       0.2762   0.6567    0.977     C
H       0.2767   0.0271   0.8897     H
H       0.2767   0.2496 0.94363333     H
H        0.279   0.5222 0.27136667     H
H        0.279   0.7568 0.56196667     H
C        0.283   0.3785 0.76446667     C
C        0.283   0.9045 0.06886667     C
Cu     0.28471   0.5229 0.13594667    Cu
Cu     0.28471  0.76181 0.69738667    Cu
C        0.288   0.0962   0.6806     C
C        0.288   0.1918 0.15273333     C
H        0.289   0.0678   0.8297     H
H        0.289   0.2212 0.00363333     H
C       0.2973   0.0344   0.8504     C
C       0.2973   0.2629 0.98293333     C
C       0.2995   0.5702 0.25856667     C
C       0.2995   0.7293 0.57476667     C
H       0.2996   0.3017 0.25613333     H
H       0.2996   0.9979   0.5772     H
H       0.3017   0.0021 0.08946667     H
H       0.3017   0.2996 0.74386667     H
H       0.3018   0.3895 0.93486667     H
H       0.3018   0.9123 0.89846667     H
N       0.3121   0.3756 0.02306667     N
N       0.3121   0.9365 0.81026667     N
C       0.3129   0.0368   0.6011     C
C       0.3129   0.2761 0.23223333     C
H       0.3132   0.4091 0.73606667     H
H       0.3132   0.9041 0.09726667     H
H       0.3168   0.5789   0.9184     H
H       0.3168   0.7379 0.91493333     H
H       0.3246   0.6528 0.84843333     H
H       0.3246   0.6718   0.9849     H
H       0.3282   0.6528 0.31823333     H
H       0.3282   0.6754   0.5151     H
H       0.3366   0.5926 0.34623333     H
H       0.3366    0.744   0.4871     H
C       0.3402   0.4027 0.96226667     C
C       0.3402   0.9375 0.87106667     C
C       0.3433   0.6195 0.31033333     C
C       0.3433   0.7238    0.523     C
N       0.3434   0.5819 0.20656667     N
N       0.3434   0.7615 0.62676667     N
H       0.3472   0.6718 0.18176667     H
H       0.3472   0.6754 0.65156667     H
C       0.3554   0.1555   0.6759     C
C       0.3554   0.1999 0.15743333     C
H       0.3588   0.3755 0.10176667     H
H       0.3588   0.9833 0.73156667     H
H       0.3672    0.453 0.96346667     H
H       0.3672   0.9142 0.86986667     H
H       0.3685   0.1743 0.13333333     H
H       0.3685   0.1942      0.7     H
H       0.3726   0.5136 0.23096667     H
H       0.3726    0.859 0.60236667     H
C       0.3733   0.3869 0.06066667     C
C       0.3733   0.9864 0.77266667     C
I      0.37383  0.56337 0.04503667     I
I      0.37383  0.81046 0.78829667     I
H       0.3755   0.0167   0.9351     H
H       0.3755   0.3588 0.89823333     H
N       0.3756   0.0635   0.8564     N
N       0.3756   0.3121 0.97693333     N
C       0.3785   0.0955   0.5978     C
C       0.3785    0.283 0.23553333     C
C       0.3805   0.6567 0.18966667     C
C       0.3805   0.7238 0.64366667     C
C       0.3869   0.0136    0.894     C
C       0.3869   0.3733 0.93933333     C
H       0.3895   0.0877   0.7682     H
H       0.3895   0.3018 0.06513333     H
I      0.39077  0.15248  0.00424     I
I      0.39077  0.23829 0.82909333     I
C       0.3953   0.5629 0.22246667     C
C       0.3953   0.8324 0.61086667     C
C       0.4019   0.1543    0.634     C
C       0.4019   0.2476 0.19933333     C
C       0.4027   0.0625   0.7956     C
C       0.4027   0.3402 0.03773333     C
H       0.4074   0.6634 0.15376667     H
H       0.4074    0.744 0.67956667     H
H       0.4091   0.0959   0.5694     H
H       0.4091   0.3132 0.26393333     H
H       0.4093   0.4353 0.05876667     H
H       0.4093    0.974 0.77456667     H
N       0.4181   0.6566 0.29343333     N
N       0.4181   0.7615   0.5399     N
H       0.4211   0.6832   0.5816     H
H       0.4211   0.7379 0.25173333     H
H       0.4267   0.5725 0.18926667     H
H       0.4267   0.8542 0.64406667     H
H       0.4275   0.5733 0.31073333     H
H       0.4275   0.8542   0.5226     H
Cu     0.42842  0.16049  0.89112    Cu
Cu     0.42842  0.26793 0.94221333    Cu
C       0.4298   0.7005 0.24143333     C
C       0.4298   0.7293   0.5919     C
H       0.4353    0.026   0.8921     H
H       0.4353   0.4093 0.94123333     H
I      0.43663  0.62617 0.45496333     I
I      0.43663  0.81046  0.37837     I
C       0.4371   0.6047 0.27753333     C
C       0.4371   0.8324   0.5558     C
H       0.4469   0.1915   0.6305     H
H       0.4469   0.2554 0.20283333     H
H        0.453   0.0858   0.7968     H
H        0.453   0.3672 0.03653333     H
Cu      0.4771  0.71529 0.36405333    Cu
Cu      0.4771  0.76181  0.46928    Cu
H       0.4778    0.721 0.22863333     H
H       0.4778   0.7568   0.6047     H
H       0.4864   0.6274 0.26903333     H
H       0.4864    0.859   0.5643     H
H       0.5136    0.141   0.0643     H
H       0.5136   0.3726 0.76903333     H
H       0.5222   0.2432   0.1047     H
H       0.5222    0.279 0.72863333     H
Cu      0.5229  0.23819  0.96928    Cu
Cu      0.5229  0.28471 0.86405333    Cu
H        0.547   0.6328 0.53653333     H
H        0.547   0.9142   0.2968     H
H       0.5531   0.7446 0.70283333     H
H       0.5531   0.8085   0.1305     H
C       0.5629   0.1676   0.0558     C
C       0.5629   0.3953 0.77753333     C
I      0.56337  0.18954  0.87837     I
I      0.56337  0.37383 0.95496333     I
H       0.5647   0.5907 0.44123333     H
H       0.5647    0.974   0.3921     H
C       0.5702   0.2707   0.0919     C
C       0.5702   0.2995 0.74143333     C
Cu     0.57158  0.73207 0.44221333    Cu
Cu     0.57158  0.83951  0.39112    Cu
H       0.5725   0.1458   0.0226     H
H       0.5725   0.4267 0.81073333     H
H       0.5733   0.1458 0.14406667     H
H       0.5733   0.4275 0.68926667     H
H       0.5789   0.2621 0.75173333     H
H       0.5789   0.3168   0.0816     H
N       0.5819   0.2385   0.0399     N
N       0.5819   0.3434 0.79343333     N
H       0.5907    0.026 0.27456667     H
H       0.5907   0.5647 0.55876667     H
H       0.5909   0.6868 0.76393333     H
H       0.5909   0.9041   0.0694     H
H       0.5926    0.256 0.17956667     H
H       0.5926   0.3366 0.65376667     H
C       0.5973   0.6598 0.53773333     C
C       0.5973   0.9375   0.2956     C
C       0.5981   0.7524 0.69933333     C
C       0.5981   0.8457    0.134     C
C       0.6047   0.1676 0.11086667     C
C       0.6047   0.4371 0.72246667     C
I      0.60923  0.76171 0.32909333     I
I      0.60923  0.84752  0.50424     I
H       0.6105   0.6982 0.56513333     H
H       0.6105   0.9123   0.2682     H
C       0.6131   0.6267 0.43933333     C
C       0.6131   0.9864    0.394     C
C       0.6195   0.2762 0.14366667     C
C       0.6195   0.3433 0.68966667     C
C       0.6215    0.717 0.73553333     C
C       0.6215   0.9045   0.0978     C
N       0.6244   0.6879 0.47693333     N
N       0.6244   0.9365   0.3564     N
H       0.6245   0.6412 0.39823333     H
H       0.6245   0.9833   0.4351     H
I      0.62617  0.18954 0.28829667     I
I      0.62617  0.43663 0.54503667     I
C       0.6267   0.0136 0.27266667     C
C       0.6267   0.6131 0.56066667     C
H       0.6274    0.141 0.10236667     H
H       0.6274   0.4864 0.73096667     H
H       0.6315   0.8058      0.2     H
H       0.6315   0.8257 0.63333333     H
H       0.6328   0.0858 0.36986667     H
H       0.6328    0.547 0.46346667     H
H       0.6412   0.0167 0.23156667     H
H       0.6412   0.6245 0.60176667     H
C       0.6446   0.8001 0.65743333     C
C       0.6446   0.8445   0.1759     C
H       0.6528   0.3246 0.15156667     H
H       0.6528   0.3282 0.68176667     H
N       0.6566   0.2385 0.12676667     N
N       0.6566   0.4181 0.70656667     N
C       0.6567   0.2762    0.023     C
C       0.6567   0.3805 0.81033333     C
C       0.6598   0.0625 0.37106667     C
C       0.6598   0.5973 0.46226667     C
H       0.6634    0.256   0.9871     H
H       0.6634   0.4074 0.84623333     H
H       0.6718   0.3246   0.0151     H
H       0.6718   0.3472 0.81823333     H
H       0.6754   0.3282   0.4849     H
H       0.6754   0.3472 0.34843333     H
H       0.6832   0.2621 0.41493333     H
H       0.6832   0.4211   0.4184     H
H       0.6868   0.0959 0.59726667     H
H       0.6868   0.5909 0.23606667     H
C       0.6871   0.7239 0.73223333     C
C       0.6871   0.9632   0.1011     C
N       0.6879   0.0635 0.31026667     N
N       0.6879   0.6244 0.52306667     N
H       0.6982   0.0877 0.39846667     H
H       0.6982   0.6105 0.43486667     H
H       0.6983   0.7004 0.24386667     H
H       0.6983   0.9979 0.58946667     H
H       0.7004   0.0021   0.0772     H
H       0.7004   0.6983 0.75613333     H
C       0.7005   0.2707 0.07476667     C
C       0.7005   0.4298 0.75856667     C
C       0.7027   0.7371 0.48293333     C
C       0.7027   0.9656   0.3504     C
H        0.711   0.7788 0.50363333     H
H        0.711   0.9322   0.3297     H
C        0.712   0.8082 0.65273333     C
C        0.712   0.9038   0.1806     C
Cu     0.71529  0.23819 0.19738667    Cu
Cu     0.71529   0.4771 0.63594667    Cu
C        0.717   0.0955 0.56886667     C
C        0.717   0.6215 0.26446667     C
H        0.721   0.2432 0.06196667     H
H        0.721   0.4778 0.77136667     H
H       0.7233   0.7504 0.44363333     H
H       0.7233   0.9729   0.3897     H
C       0.7238   0.3433    0.477     C
C       0.7238   0.3805 0.35633333     C
C       0.7239   0.0368 0.56556667     C
C       0.7239   0.6871 0.26776667     C
C       0.7293   0.2995 0.42523333     C
C       0.7293   0.4298   0.4081     C
Cu     0.73207  0.16049 0.27554667    Cu
Cu     0.73207  0.57158 0.55778667    Cu
C       0.7323   0.7727 0.68953333     C
C       0.7323   0.9596   0.1438     C
C       0.7371   0.0344 0.31626667     C
C       0.7371   0.7027 0.51706667     C
H       0.7379   0.3168 0.08506667     H
H       0.7379   0.4211 0.74826667     H
H        0.744   0.3366   0.5129     H
H        0.744   0.4074 0.32043333     H
H       0.7446   0.1915 0.53616667     H
H       0.7446   0.5531 0.29716667     H
H       0.7504   0.0271 0.27696667     H
H       0.7504   0.7233 0.55636667     H
C       0.7524   0.1543 0.53266667     C
C       0.7524   0.5981 0.30066667     C
H       0.7568    0.279 0.43803333     H
H       0.7568   0.4778   0.3953     H
N       0.7615   0.3434 0.37323333     N
N       0.7615   0.4181   0.4601     N
I      0.76171  0.15248 0.16242667     I
I      0.76171  0.60923 0.67090667     I
Cu     0.76181  0.28471 0.30261333    Cu
Cu     0.76181   0.4771  0.53072    Cu
N       0.7678   0.8504 0.61673333     N
N       0.7678   0.9174   0.2166     N
C       0.7727   0.0404 0.52286667     C
C       0.7727   0.7323 0.31046667     C
Cu     0.77425  0.85862 0.27363667    Cu
Cu     0.77425  0.91563 0.55969667    Cu
H       0.7788   0.0678 0.33696667     H
H       0.7788    0.711 0.49636667     H
N       0.7927   0.8011 0.32336667     N
N       0.7927   0.9916 0.50996667     N
H        0.795   0.8975 0.41666667     H
C       0.8001   0.1555 0.49076667     C
C       0.8001   0.6446 0.34256667     C
N       0.8011   0.0084   0.1567     N
N       0.8011   0.7927 0.67663333     N
H       0.8058   0.1743 0.03333333     H
H       0.8058   0.6315      0.8     H
C       0.8082   0.0962 0.48606667     C
C       0.8082    0.712 0.34726667     C
H       0.8085   0.2554 0.96383333     H
H       0.8085   0.5531   0.8695     H
I      0.81046  0.37383 0.21170333     I
I      0.81046  0.43663  0.62163     I
C       0.8176    0.839 0.63303333     C
C       0.8176   0.9786   0.2003     C
H       0.8257   0.1942 0.46666667     H
H       0.8257   0.6315 0.36666667     H
C       0.8324   0.3953 0.38913333     C
C       0.8324   0.4371   0.4442     C
C        0.839   0.0214 0.46636667     C
C        0.839   0.8176 0.36696667     C
Cu     0.83951  0.26793 0.22445333    Cu
Cu     0.83951  0.57158  0.60888    Cu
C       0.8433   0.9216 0.41666667     C
C       0.8445   0.1999 0.00923333     C
C       0.8445   0.6446   0.8241     C
C       0.8457   0.2476 0.96733333     C
C       0.8457   0.5981    0.866     C
I      0.84752  0.23829 0.33757333     I
I      0.84752  0.60923  0.49576     I
N       0.8504   0.0826 0.45006667     N
N       0.8504   0.7678 0.38326667     N
H       0.8542   0.4267 0.35593333     H
H       0.8542   0.4275   0.4774     H
Cu     0.85862  0.08437  0.10697    Cu
Cu     0.85862  0.77425 0.72636333    Cu
H        0.859   0.3726 0.39763333     H
H        0.859   0.4864   0.4357     H
C        0.875   0.8889 0.39306667     C
C        0.875   0.9861 0.44026667     C
C       0.8889   0.0139   0.2264     C
C       0.8889    0.875 0.60693333     C
H       0.8975   0.1025     0.25     H
H       0.8975    0.795 0.58333333     H
C       0.9038   0.1918 0.01393333     C
C       0.9038    0.712   0.8194     C
H       0.9041   0.3132 0.90273333     H
H       0.9041   0.5909   0.9306     H
H       0.9043   0.9315   0.2129     H
H       0.9043   0.9728 0.62043333     H
C       0.9045    0.283 0.93113333     C
C       0.9045   0.6215   0.9022     C
H       0.9123   0.3018 0.10153333     H
H       0.9123   0.6105   0.7318     H
H       0.9142   0.3672 0.13013333     H
H       0.9142    0.547   0.7032     H
Cu     0.91563  0.14138  0.39303    Cu
Cu     0.91563  0.77425 0.44030333    Cu
N       0.9174   0.1496 0.04993333     N
N       0.9174   0.7678   0.7834     N
C       0.9216   0.0783     0.25     C
C       0.9216   0.8433 0.58333333     C
C       0.9257   0.9491 0.60583333     C
C       0.9257   0.9766   0.2275     C
H       0.9315   0.0272 0.04623333     H
H       0.9315   0.9043   0.7871     H
H       0.9322   0.2212 0.16303333     H
H       0.9322    0.711   0.6703     H
N       0.9365   0.3121 0.18973333     N
N       0.9365   0.6244   0.6436     N
C       0.9375   0.3402 0.12893333     C
C       0.9375   0.5973   0.7044     C
C       0.9491   0.0234 0.43916667     C
C       0.9491   0.9257 0.39416667     C
C       0.9596   0.2273 0.97713333     C
C       0.9596   0.7323   0.8562     C
C       0.9632   0.2761 0.93443333     C
C       0.9632   0.6871   0.8989     C
H       0.9646   0.9823 0.91666667     H
C       0.9656   0.2629 0.18373333     C
C       0.9656   0.7027   0.6496     C
H       0.9728   0.0685 0.45376667     H
H       0.9728   0.9043 0.37956667     H
H       0.9729   0.2496 0.22303333     H
H       0.9729   0.7233   0.6103     H
H        0.974   0.4093 0.22543333     H
H        0.974   0.5647   0.6079     H
C       0.9766   0.0509 0.06083333     C
C       0.9766   0.9257   0.7725     C
C       0.9786    0.161 0.03363333     C
C       0.9786   0.8176   0.7997     C
H       0.9823   0.0177     0.75     H
H       0.9823   0.9646 0.08333333     H
H       0.9833   0.3588 0.26843333     H
H       0.9833   0.6245   0.5649     H
C       0.9861   0.1111   0.2736     C
C       0.9861    0.875 0.55973333     C
C       0.9864   0.3733 0.22733333     C
C       0.9864   0.6131    0.606     C
C        0.987   0.9935 0.41666667     C
N       0.9916   0.1989   0.3433     N
N       0.9916   0.7927 0.49003333     N
C       0.9935   0.0065     0.25     C
C       0.9935    0.987 0.58333333     C
H       0.9979   0.2996   0.4228     H
H       0.9979   0.6983 0.41053333     H
