data_I
_chemical_name_common  '/Users/gianmarcoterrones/Research/MOFs/MOF_structures/water_stability_work_extra_structs/cleaned_from_CCDC/TIFCAM'
_cell_length_a 17.20500
_cell_length_b 27.25700
_cell_length_c 32.73500
_cell_angle_alpha 90.00000
_cell_angle_beta  90.00000
_cell_angle_gamma 106.02100
_space_group_name_H-M_alt      'P 1'


loop_
_space_group_symop_operation_xyz
  'x, y, z' 

loop_
_atom_site_label
_atom_site_fract_x
_atom_site_fract_y
_atom_site_fract_z
_atom_site_type_symbol
F       0.0036   0.1905   0.8249     F
F       0.0036   0.6905   0.6751     F
F       0.0038   0.4819      0.6     F
F       0.0038   0.9819      0.9     F
O       0.0069   0.1136   0.6854     O
O       0.0069   0.6136   0.8146     O
O       0.0082   0.2626   0.7571     O
O       0.0082   0.7626   0.7429     O
F       0.0101   0.2881   0.9341     F
F       0.0101   0.7881   0.5659     F
Ag     0.01429  0.19495  0.67057    Ag
Ag     0.01429  0.69495  0.82943    Ag
C       0.0157    0.435    0.311     C
C       0.0157    0.935    0.189     C
F       0.0184   0.4453   0.6933     F
F       0.0184   0.9453   0.8067     F
O       0.0228   0.2166   0.5107     O
O       0.0228   0.7166   0.9893     O
C       0.0235   0.0465   0.0705     C
C       0.0235   0.5465   0.4295     C
F        0.026   0.0213   0.6978     F
F        0.026   0.5213   0.8022     F
C       0.0272   0.4223   0.0738     C
C       0.0272   0.9223   0.4262     C
O       0.0287   0.0704   0.5939     O
O       0.0287   0.5704   0.9061     O
F        0.034   0.4454   0.5529     F
F        0.034   0.9454   0.9471     F
N       0.0394   0.0838   0.7911     N
N       0.0394   0.5838   0.7089     N
Ag     0.03943  0.19808  0.57877    Ag
Ag     0.03943  0.69808  0.92123    Ag
O       0.0407    0.342   0.5129     O
O       0.0407    0.842   0.9871     O
Ag     0.04274  0.22342  0.19334    Ag
Ag     0.04274  0.72342  0.30666    Ag
Ag      0.0449  0.21507   0.0521    Ag
Ag      0.0449  0.71507   0.4479    Ag
O       0.0451   0.3821   0.0658     O
O       0.0451   0.8821   0.4342     O
C       0.0465   0.2319   0.7635     C
C       0.0465   0.7319   0.7365     C
C       0.0466   0.4757   0.1909     C
C       0.0466   0.9757   0.3091     C
F       0.0478   0.0159   0.0456     F
F       0.0478   0.5159   0.4544     F
C       0.0511   0.4234   0.1759     C
C       0.0511   0.9234   0.3241     C
Ag     0.05142  0.12456  0.97836    Ag
Ag     0.05142  0.62456  0.52164    Ag
N       0.0515   0.3916   0.8317     N
N       0.0515   0.8916   0.6683     N
Ag     0.05441  0.35279  0.77591    Ag
Ag     0.05441  0.85279  0.72409    Ag
C       0.0548   0.2598   0.1348     C
C       0.0548   0.7598   0.3652     C
C       0.0552   0.4148   0.8606     C
C       0.0552   0.9148   0.6394     C
F       0.0582   0.4765   0.0197     F
F       0.0582   0.9765   0.4803     F
C         0.06   0.2303   0.4423     C
C         0.06   0.7303   0.0577     C
C        0.061   0.4521    0.895     C
C        0.061   0.9521    0.605     C
C       0.0657   0.2243   0.8093     C
C       0.0657   0.7243   0.6907     C
Ag     0.07253  0.30348  0.61845    Ag
Ag     0.07253  0.80348  0.88155    Ag
F       0.0735   0.2663   0.8303     F
F       0.0735   0.7663   0.6697     F
O       0.0736   0.2073   0.7389     O
O       0.0736   0.7073   0.7611     O
F        0.079    0.012    0.334     F
F        0.079    0.512    0.166     F
C       0.0802   0.4698   0.0536     C
C       0.0802   0.9698   0.4464     C
C       0.0808   0.2308   0.4873     C
C       0.0808   0.7308   0.0127     C
F       0.0859   0.4867   0.2256     F
F       0.0859   0.9867   0.2744     F
O       0.0863   0.1691    0.232     O
O       0.0863   0.6691    0.268     O
F       0.0865    0.011   0.4294     F
F       0.0865    0.511   0.0706     F
F        0.087   0.2723   0.4249     F
F        0.087   0.7723   0.0751     F
O       0.0882    0.383   0.6434     O
O       0.0882    0.883   0.8566     O
C       0.0901   0.3879   0.6812     C
C       0.0901   0.8879   0.8188     C
C       0.0912   0.4399   0.6973     C
C       0.0912   0.9399   0.8027     C
O       0.0913   0.3551   0.7073     O
O       0.0913   0.8551   0.7927     O
C       0.0918   0.4605   0.3339     C
C       0.0918   0.9605   0.1661     C
C       0.0937   0.2669   0.1039     C
C       0.0937   0.7669   0.3961     C
C       0.0939   0.0921   0.0792     C
C       0.0939   0.5921   0.4208     C
F       0.0985   0.2018   0.4221     F
F       0.0985   0.7018   0.0779     F
C       0.1001   0.4262   0.3663     C
C       0.1001   0.9262   0.1337     C
O       0.1023    0.129    0.057     O
O       0.1023    0.629    0.443     O
F       0.1084   0.4492   0.7336     F
F       0.1084   0.9492   0.7664     F
O       0.1116   0.4233   0.1569     O
O       0.1116   0.9233   0.3431     O
C       0.1122   0.3575   0.5264     C
C       0.1122   0.8575   0.9736     C
N       0.1141   0.0879   0.9419     N
N       0.1141   0.5879   0.5581     N
F       0.1165   0.1206   0.5089     F
F       0.1165   0.6206   0.9911     F
C       0.1172    0.447   0.9233     C
C       0.1172    0.947   0.5767     C
Ag     0.11796  0.12638  0.74176    Ag
Ag     0.11796  0.62638  0.75824    Ag
Ag     0.11998  0.13788   0.6229    Ag
Ag     0.11998  0.63788   0.8771    Ag
F       0.1272   0.2094   0.8146     F
F       0.1272   0.7094   0.6854     F
O       0.1327   0.2133   0.9924     O
O       0.1327   0.7133   0.5076     O
F       0.1334   0.4777   0.6767     F
F       0.1334   0.9777   0.8233     F
F        0.135   0.3514    0.252     F
F        0.135   0.8514    0.248     F
O       0.1355   0.0867   0.1074     O
O       0.1355   0.5867   0.3926     O
F       0.1363   0.1083   0.2812     F
F       0.1363   0.6083   0.2188     F
F       0.1372   0.4272   0.4819     F
F       0.1372   0.9272   0.0181     F
O       0.1407   0.3455   0.5573     O
O       0.1407   0.8455   0.9427     O
F       0.1423   0.2107   0.9128     F
F       0.1423   0.7107   0.5872     F
Ag     0.14305  0.35574  0.12954    Ag
Ag     0.14305  0.85574  0.37046    Ag
C        0.149   0.2231   0.6202     C
C        0.149   0.7231   0.8798     C
C       0.1492   0.1596   0.2213     C
C       0.1492   0.6596   0.2787     C
F       0.1508   0.4692   0.0489     F
F       0.1508   0.9692   0.4511     F
O       0.1535   0.2475    0.495     O
O       0.1535   0.7475    0.005     O
C       0.1563   0.0733   0.9212     C
C       0.1563   0.5733   0.5788     C
C       0.1606   0.2434   0.3207     C
C       0.1606   0.7434   0.1793     C
F       0.1658   0.0769   0.2274     F
F       0.1658   0.5769   0.2726     F
C       0.1684   0.3963   0.4983     C
C       0.1684   0.8963   0.0017     C
C       0.1738   0.1201    0.248     C
C       0.1738   0.6201    0.252     C
Ag     0.18219  0.29465  0.69836    Ag
Ag     0.18219  0.79465  0.80164    Ag
C       0.1822   0.2607   0.6401     C
C       0.1822   0.7607   0.8599     C
Ag      0.1839  0.30164  0.06018    Ag
Ag      0.1839  0.80164  0.43982    Ag
O       0.1869   0.1155   0.6801     O
O       0.1869   0.6155   0.8199     O
C       0.1882   0.2434   0.9768     C
C       0.1882   0.7434   0.5232     C
F       0.1886   0.0718   0.5135     F
F       0.1886   0.5718   0.9865     F
C       0.1921   0.1181    0.506     C
C       0.1921   0.6181    0.994     C
F       0.1927   0.3724   0.4684     F
F       0.1927   0.8724   0.0316     F
F       0.1946   0.2821    0.915     F
F       0.1946   0.7821    0.585     F
O       0.1947   0.1777   0.1942     O
O       0.1947   0.6777   0.3058     O
C       0.1961   0.2415   0.9317     C
C       0.1961   0.7415   0.5683     C
Ag     0.20025  0.24496  0.14207    Ag
Ag     0.20025  0.74496  0.35793    Ag
O       0.2041   0.3144   0.1885     O
O       0.2041   0.8144   0.3115     O
Ag      0.2046  0.26357  0.56072    Ag
Ag      0.2046  0.76357  0.93928    Ag
O       0.2076    0.225   0.7026     O
O       0.2076    0.725   0.7974     O
O       0.2116   0.3221   0.7608     O
O       0.2116   0.8221   0.7392     O
C       0.2122   0.3662   0.2464     C
C       0.2122   0.8662   0.2536     C
F       0.2123   0.1272   0.4684     F
F       0.2123   0.6272   0.0316     F
C       0.2151   0.0593   0.8918     C
C       0.2151   0.5593   0.6082     C
Ag     0.22076  0.19152  0.06211    Ag
Ag     0.22076  0.69152  0.43789    Ag
F       0.2222   0.4109   0.2256     F
F       0.2222   0.9109   0.2744     F
F       0.2337   0.4212   0.5153     F
F       0.2337   0.9212   0.9847     F
C       0.2353   0.0181   0.9118     C
C       0.2353   0.5181   0.5882     C
F       0.2391   0.1457     0.81     F
F       0.2391   0.6457     0.69     F
F       0.2399   0.3828   0.8247     F
F       0.2399   0.8828   0.6753     F
C       0.2411    0.329   0.2211     C
C       0.2411    0.829   0.2789     C
O       0.2413   0.1432   0.5719     O
O       0.2413   0.6432   0.9281     O
F       0.2434   0.0277   0.6906     F
F       0.2434   0.0667   0.7408     F
F       0.2434   0.5277   0.8094     F
F       0.2434   0.5667   0.7592     F
O       0.2435   0.2761   0.9952     O
O       0.2435   0.7761   0.5048     O
C       0.2459   0.1567   0.5354     C
C       0.2459   0.2575    0.324     C
C       0.2459   0.6567   0.9646     C
C       0.2459   0.7575    0.176     C
F       0.2498   0.3791   0.2789     F
F       0.2498   0.8791   0.2211     F
F       0.2506   0.1356   0.2556     F
F       0.2506   0.6356   0.2444     F
F       0.2542   0.0307   0.0524     F
F       0.2542   0.5307   0.4476     F
Ag      0.2549  0.13806  0.13295    Ag
Ag      0.2549  0.63806  0.36705    Ag
F       0.2568   0.2339   0.9206     F
F       0.2568   0.7339   0.5794     F
C       0.2605   0.1131   0.6801     C
C       0.2605   0.6131   0.8199     C
O       0.2619   0.4093   0.1029     O
O       0.2619   0.9093   0.3971     O
O       0.2648   0.1463   0.0061     O
O       0.2648   0.6463   0.4939     O
C       0.2732   0.2614   0.3678     C
C       0.2732   0.7614   0.1322     C
Ag     0.27446  0.33268  0.62806    Ag
Ag     0.27446  0.83268  0.87194    Ag
C       0.2752   0.0721    0.706     C
C       0.2752   0.5721    0.794     C
C         0.28   0.3378    0.773     C
C         0.28   0.8378    0.727     C
O        0.283   0.0672   0.1585     O
O        0.283   0.5672   0.3415     O
O       0.2856    0.211   0.7465     O
O       0.2856    0.711   0.7535     O
C       0.2863   0.0671   0.3704     C
C       0.2863   0.5671   0.1296     C
F        0.287   0.0009    0.227     F
F        0.287   0.5009    0.273     F
O       0.2879   0.1967   0.5211     O
O       0.2879   0.6967   0.9789     O
Ag     0.28806  0.21096  0.62626    Ag
Ag     0.28806  0.71096  0.87374    Ag
C       0.2908   0.0288   0.3404     C
C       0.2908   0.5288   0.1596     C
N        0.291   0.2622   0.4016     N
N        0.291   0.7622   0.0984     N
F       0.2919    0.455   0.7366     F
F       0.2919    0.955   0.7634     F
F        0.292    0.328   0.8421     F
F        0.292    0.828   0.6579     F
C       0.2948   0.3614   0.8147     C
C       0.2948   0.8614   0.6853     C
O       0.2973   0.3119   0.2342     O
O       0.2973   0.8119   0.2658     O
O       0.2978   0.4059   0.6648     O
O       0.2978   0.9059   0.8352     O
O       0.2981   0.3646   0.0523     O
O       0.2981   0.8646   0.4477     O
Ag     0.30336  0.25591  0.46462    Ag
Ag     0.30336  0.75591  0.03538    Ag
C       0.3043   0.4029   0.0741     C
C       0.3043   0.9029   0.4259     C
F       0.3045   0.4755   0.3323     F
F       0.3045   0.9755   0.1677     F
F       0.3115   0.2126    0.833     F
F       0.3115   0.7126    0.667     F
C       0.3146   0.1759   0.8076     C
C       0.3146   0.6759   0.6924     C
Ag     0.31566  0.35978  0.97585    Ag
Ag     0.31566  0.85978  0.52415    Ag
O       0.3163   0.1418   0.6624     O
O       0.3163   0.6418   0.8376     O
O       0.3168   0.3135   0.5279     O
O       0.3168   0.8135   0.9721     O
C       0.3175   0.2318   0.1047     C
C       0.3175   0.7318   0.3953     C
F       0.3233   0.4887   0.4273     F
F       0.3233   0.9887   0.0727     F
C       0.3301   0.0466   0.5875     C
C       0.3301   0.5466   0.9125     C
C       0.3315   0.0297    0.056     C
C       0.3315   0.5297    0.444     C
N       0.3324   0.4229   0.9345     N
N       0.3324   0.9229   0.5655     N
C       0.3335   0.1973   0.7643     C
C       0.3335   0.6973   0.7357     C
C       0.3339   0.0118   0.1962     C
C       0.3339   0.5118   0.3038     C
C       0.3387   0.0643   0.1774     C
C       0.3387   0.5643   0.3226     C
C       0.3402   0.2242   0.1373     C
C       0.3402   0.7242   0.3627     C
Ag     0.34571  0.25985  0.19697    Ag
Ag     0.34571  0.75985  0.30303    Ag
F       0.3464   0.0064   0.8073     F
F       0.3464   0.5064   0.6927     F
O       0.3472    0.339   0.7541     O
O       0.3472    0.839   0.7459     O
F       0.3476   0.0736   0.7106     F
F       0.3476   0.5736   0.7894     F
F       0.3494   0.4756   0.0354     F
F       0.3494   0.9756   0.4646     F
C       0.3502   0.4611   0.9191     C
C       0.3502   0.9611   0.5809     C
F       0.3503   0.0273   0.0212     F
F       0.3503   0.5273   0.4788     F
C       0.3549   0.4686   0.7121     C
C       0.3549   0.9686   0.7879     C
C       0.3575   0.3555   0.5413     C
C       0.3575   0.8555   0.9587     C
O       0.3585   0.3738   0.5772     O
O       0.3585   0.8738   0.9228     O
C       0.3592   0.4247   0.6844     C
C       0.3592   0.9247   0.8156     C
Ag      0.3595  0.27901  0.05287    Ag
Ag      0.3595  0.77901  0.44713    Ag
F       0.3598   0.1518   0.8242     F
F       0.3598   0.6518   0.6758     F
F       0.3618   0.3952   0.8196     F
F       0.3618   0.8952   0.6804     F
O       0.3626   0.1172   0.0706     O
O       0.3626   0.6172   0.4294     O
Ag     0.36264  0.29366  0.70139    Ag
Ag     0.36264  0.79366  0.79861    Ag
C        0.364   0.0482   0.3152     C
C        0.364   0.5482   0.1848     C
C       0.3701   0.0115   0.6029     C
C       0.3701   0.5115   0.8971     C
C       0.3724   0.4499   0.0643     C
C       0.3724   0.9499   0.4357     C
F        0.378   0.4217   0.1782     F
F        0.378   0.9217   0.3218     F
F       0.3813   0.0968   0.4852     F
F       0.3813   0.5968   0.0148     F
C        0.382   0.0775   0.0783     C
C        0.382   0.5775   0.4217     C
F       0.3873    0.381   0.4736     F
F       0.3873    0.881   0.0264     F
F       0.3948   0.1711   0.9341     F
F       0.3948   0.6711   0.5659     F
F       0.3986   0.1763   0.3282     F
F       0.3986   0.6763   0.1718     F
Ag     0.39975  0.24232  0.55551    Ag
Ag     0.39975  0.74232  0.94449    Ag
O       0.4008    0.099   0.1891     O
O       0.4008    0.599   0.3109     O
F       0.4016   0.4816   0.0911     F
F       0.4016   0.9816   0.4089     F
F       0.4039   0.0047   0.2062     F
F       0.4039   0.5047   0.2938     F
O       0.4069   0.1991   0.7555     O
O       0.4069   0.6991   0.7445     O
O       0.4075   0.2489   0.2589     O
O       0.4075   0.7489   0.2411     O
Ag     0.41103  0.18231  0.17422    Ag
Ag     0.41103  0.68231  0.32578    Ag
C       0.4132   0.3899     0.51     C
C       0.4132   0.8899     0.99     C
F       0.4171   0.4827   0.7358     F
F       0.4171   0.9827   0.7642     F
C       0.4182   0.2777    0.647     C
C       0.4182   0.7777    0.853     C
N       0.4212   0.0637   0.2963     N
N       0.4212   0.5637   0.2037     N
O       0.4238   0.4111   0.6843     O
O       0.4238   0.9111   0.8157     O
O       0.4249   0.2067   0.0081     O
O       0.4249   0.7067   0.4919     O
F       0.4251   0.4387   0.5181     F
F       0.4251   0.9387   0.9819     F
O       0.4282    0.327   0.0059     O
O       0.4282    0.827   0.4941     O
F       0.4344   0.4382    0.048     F
F       0.4344   0.9382    0.452     F
C       0.4379   0.2628   0.6172     C
C       0.4379   0.7628   0.8828     C
O       0.4393   0.0715   0.0982     O
O       0.4393   0.5715   0.4018     O
F       0.4404   0.1474   0.4501     F
F       0.4404   0.6474   0.0499     F
O       0.4436   0.2615   0.4902     O
O       0.4436   0.7615   0.0098     O
C       0.4441   0.2163   0.2652     C
C       0.4441   0.7163   0.2348     C
Ag       0.445  0.19626  0.08156    Ag
Ag       0.445  0.69626  0.41844    Ag
Ag     0.44564  0.21451  0.68833    Ag
Ag     0.44564  0.71451  0.81167    Ag
F       0.4479   0.4251   0.2306     F
F       0.4479   0.9251   0.2694     F
C        0.449   0.1222    0.479     C
C        0.449   0.6222    0.021     C
F       0.4501   0.2453    0.921     F
F       0.4501   0.7453    0.579     F
C       0.4539   0.4212   0.1906     C
C       0.4539   0.9212   0.3094     C
O       0.4578   0.1559   0.5432     O
O       0.4578   0.6559   0.9568     O
C       0.4594   0.0361   0.9068     C
C       0.4594   0.5361   0.5932     C
C       0.4622   0.2089   0.3104     C
C       0.4622   0.7089   0.1896     C
C       0.4633    0.206   0.9388     C
C       0.4633    0.706   0.5612     C
C       0.4635   0.4109   0.3522     C
C       0.4635   0.9109   0.1478     C
C       0.4639   0.4473   0.3871     C
C       0.4639   0.9473   0.1129     C
N       0.4657   0.3843   0.3257     N
N       0.4657   0.8843   0.1743     N
O       0.4663   0.1888   0.2405     O
O       0.4663   0.6888   0.2595     O
Ag     0.47069    0.366  0.63265    Ag
Ag     0.47069    0.866  0.86735    Ag
C       0.4737   0.3743   0.1763     C
C       0.4737   0.8743   0.3237     C
F       0.4759   0.2512   0.3318     F
F       0.4759   0.7512   0.1682     F
Ag     0.47643  0.33924    0.275    Ag
Ag     0.47643  0.83924    0.225    Ag
F       0.4767   0.3098   0.8164     F
O       0.4767   0.3714   0.1379     O
F       0.4767   0.8098   0.6836     F
O       0.4767   0.8714   0.3621     O
F       0.4809   0.0918   0.4635     F
F       0.4809   0.5918   0.0365     F
O       0.4823   0.3435   0.2011     O
O       0.4823   0.8435   0.2989     O
F       0.4852   0.3822   0.5122     F
F       0.4852   0.8822   0.9878     F
C       0.4853   0.2185   0.9833     C
C       0.4853   0.7185   0.5167     C
F       0.4858   0.3069   0.4186     F
F       0.4858   0.8069   0.0814     F
Ag     0.49531  0.39849  0.74723    Ag
Ag     0.49531  0.89849  0.75277    Ag
Ag     0.49712   0.1955   0.6084    Ag
Ag     0.49712   0.6955   0.8916    Ag
C       0.4979   0.1531   0.5122     C
C       0.4979   0.6531   0.9878     C
F       0.4996   0.4629   0.1778     F
F       0.4996   0.9629   0.3222     F
F       0.5004   0.0371   0.6778     F
F       0.5004   0.5371   0.8222     F
C       0.5021   0.3469   0.0122     C
C       0.5021   0.8469   0.4878     C
Ag     0.50288   0.3045   0.1084    Ag
Ag     0.50288   0.8045   0.3916    Ag
Ag     0.50469  0.10151  0.24723    Ag
Ag     0.50469  0.60151  0.25277    Ag
F       0.5142   0.1931   0.9186     F
F       0.5142   0.6931   0.5814     F
C       0.5147   0.2815   0.4833     C
C       0.5147   0.7815   0.0167     C
F       0.5148   0.1178   0.0122     F
F       0.5148   0.6178   0.4878     F
O       0.5177   0.1565   0.7011     O
O       0.5177   0.6565   0.7989     O
F       0.5191   0.4082   0.9635     F
F       0.5191   0.9082   0.5365     F
O       0.5233   0.1286   0.6379     O
F       0.5233   0.1902   0.3164     F
O       0.5233   0.6286   0.8621     O
F       0.5233   0.6902   0.1836     F
Ag     0.52357  0.16076    0.775    Ag
Ag     0.52357  0.66076    0.725    Ag
F       0.5241   0.2488   0.8318     F
F       0.5241   0.7488   0.6682     F
C       0.5263   0.1257   0.6763     C
C       0.5263   0.6257   0.8237     C
Ag     0.52931    0.134  0.13265    Ag
Ag     0.52931    0.634  0.36735    Ag
O       0.5337   0.3112   0.7405     O
O       0.5337   0.8112   0.7595     O
N       0.5343   0.1157   0.8257     N
N       0.5343   0.6157   0.6743     N
C       0.5361   0.0527   0.8871     C
C       0.5361   0.5527   0.6129     C
C       0.5365   0.0891   0.8522     C
C       0.5365   0.5891   0.6478     C
C       0.5367    0.294   0.4388     C
C       0.5367    0.794   0.0612     C
C       0.5378   0.2911   0.8104     C
C       0.5378   0.7911   0.6896     C
C       0.5406   0.4639   0.4068     C
C       0.5406   0.9639   0.0932     C
O       0.5422   0.3441   0.0432     O
O       0.5422   0.8441   0.4568     O
C       0.5461   0.0788   0.6906     C
C       0.5461   0.5788   0.8094     C
F       0.5499   0.2547    0.421     F
F       0.5499   0.7547    0.079     F
C        0.551   0.3778    0.979     C
C        0.551   0.8778    0.521     C
F       0.5521   0.0749   0.7306     F
F       0.5521   0.5749   0.7694     F
Ag     0.55436  0.28549  0.18833    Ag
Ag     0.55436  0.78549  0.31167    Ag
Ag       0.555  0.30374  0.58156    Ag
Ag       0.555  0.80374  0.91844    Ag
C       0.5559   0.2837   0.7652     C
C       0.5559   0.7837   0.7348     C
O       0.5564   0.2385   0.9902     O
O       0.5564   0.7385   0.5098     O
F       0.5596   0.3526   0.9501     F
F       0.5596   0.8526   0.5499     F
O       0.5607   0.4285   0.5982     O
O       0.5607   0.9285   0.9018     O
C       0.5621   0.2372   0.1172     C
C       0.5621   0.7372   0.3828     C
F       0.5656   0.0618    0.548     F
F       0.5656   0.5618    0.952     F
O       0.5718    0.173   0.5059     O
O       0.5718    0.673   0.9941     O
F       0.5749   0.0613   0.0181     F
F       0.5749   0.5613   0.4819     F
O       0.5751   0.2933   0.5081     O
O       0.5751   0.7933   0.9919     O
O       0.5762   0.0889   0.1843     O
O       0.5762   0.5889   0.3157     O
N       0.5788   0.4363   0.7963     N
N       0.5788   0.9363   0.7037     N
C       0.5818   0.2223    0.147     C
C       0.5818   0.7223    0.353     C
F       0.5829   0.0173   0.2358     F
F       0.5829   0.5173   0.2642     F
C       0.5868   0.1101     0.01     C
C       0.5868   0.6101     0.49     C
Ag     0.58897  0.31769  0.67422    Ag
Ag     0.58897  0.81769  0.82578    Ag
O       0.5925   0.2511   0.7589     O
O       0.5925   0.7511   0.7411     O
O       0.5931   0.3009   0.2555     O
O       0.5931   0.8009   0.2445     O
F       0.5961   0.4953   0.7062     F
F       0.5961   0.9953   0.7938     F
F       0.5984   0.0184   0.5911     F
F       0.5984   0.5184   0.9089     F
O       0.5992    0.401   0.6891     O
O       0.5992    0.901   0.8109     O
Ag     0.60025  0.25768  0.05551    Ag
Ag     0.60025  0.75768  0.44449    Ag
F       0.6014   0.3237   0.8282     F
F       0.6014   0.8237   0.6718     F
F       0.6052   0.3289   0.4341     F
F       0.6052   0.8289   0.0659     F
F       0.6127    0.119   0.9736     F
F       0.6127    0.619   0.5264     F
C        0.618   0.4225   0.5783     C
C        0.618   0.9225   0.9217     C
F       0.6187   0.4032   0.9852     F
F       0.6187   0.9032   0.5148     F
F        0.622   0.0783   0.6782     F
F        0.622   0.5783   0.8218     F
C       0.6276   0.0501   0.5643     C
C       0.6276   0.5501   0.9357     C
C       0.6299   0.4885   0.1029     C
C       0.6299   0.9885   0.3971     C
C        0.636   0.4518   0.8152     C
C        0.636   0.9518   0.6848     C
Ag     0.63736  0.20634  0.20139    Ag
Ag     0.63736  0.70634  0.29861    Ag
O       0.6374   0.3828   0.5706     O
O       0.6374   0.8828   0.9294     O
F       0.6382   0.1048   0.3196     F
F       0.6382   0.6048   0.1804     F
F       0.6402   0.3482   0.3242     F
F       0.6402   0.8482   0.1758     F
Ag      0.6405  0.22099  0.55287    Ag
Ag      0.6405  0.72099  0.94713    Ag
C       0.6408   0.0753   0.1844     C
C       0.6408   0.5753   0.3156     C
O       0.6415   0.1262   0.0772     O
O       0.6415   0.6262   0.4228     O
C       0.6425   0.1445   0.0413     C
C       0.6425   0.6445   0.4587     C
C       0.6451   0.0314   0.2121     C
C       0.6451   0.5314   0.2879     C
F       0.6497   0.4727   0.5212     F
F       0.6497   0.9727   0.9788     F
C       0.6498   0.0389   0.4191     C
C       0.6498   0.5389   0.0809     C
F       0.6506   0.0244   0.5354     F
F       0.6506   0.5244   0.9646     F
F       0.6524   0.4264   0.2106     F
F       0.6524   0.9264   0.2894     F
O       0.6528    0.161   0.2541     O
O       0.6528    0.661   0.2459     O
F       0.6536   0.4936   0.3073     F
F       0.6536   0.9936   0.1927     F
Ag     0.65429  0.24015  0.69697    Ag
Ag     0.65429  0.74015  0.80303    Ag
C       0.6598   0.2758   0.6373     C
C       0.6598   0.7758   0.8627     C
C       0.6613   0.4357   0.6774     C
C       0.6613   0.9357   0.8226     C
C       0.6661   0.4882   0.6962     C
C       0.6661   0.9882   0.8038     C
C       0.6665   0.3027   0.2643     C
C       0.6665   0.8027   0.2357     C
N       0.6676   0.0771   0.4345     N
N       0.6676   0.5771   0.0655     N
C       0.6685   0.4703    0.556     C
C       0.6685   0.9703    0.944     C
C       0.6699   0.4534   0.0875     C
C       0.6699   0.9534   0.4125     C
F       0.6767   0.0113   0.9273     F
F       0.6767   0.5113   0.5727     F
C       0.6825   0.2682   0.6047     C
C       0.6825   0.7682   0.8953     C
O       0.6832   0.1865   0.0279     O
O       0.6832   0.6865   0.4721     O
O       0.6837   0.3582   0.1624     O
O       0.6837   0.8582   0.3376     O
Ag     0.68434  0.14022  0.47585    Ag
Ag     0.68434  0.64022  0.02415    Ag
C       0.6854   0.3241   0.3076     C
C       0.6854   0.8241   0.1924     C
F       0.6885   0.2874    0.333     F
F       0.6885   0.7874    0.167     F
F       0.6955   0.0245   0.8323     F
F       0.6955   0.5245   0.6677     F
C       0.6957   0.0971   0.5741     C
C       0.6957   0.5971   0.9259     C
Ag     0.69664  0.24409  0.96462    Ag
Ag     0.69664  0.74409  0.53538    Ag
O       0.7019   0.1354   0.5523     O
O       0.7019   0.6354   0.9477     O
O       0.7022   0.0941   0.1648     O
O       0.7022   0.5941   0.3352     O
O       0.7027   0.1881   0.7342     O
O       0.7027   0.6881   0.7658     O
C       0.7052   0.1386   0.3147     C
C       0.7052   0.6386   0.1853     C
F        0.708    0.172   0.3421     F
F        0.708    0.672   0.1579     F
F       0.7081    0.045   0.2366     F
F       0.7081    0.545   0.2634     F
N        0.709   0.2378   0.9016     N
N        0.709   0.7378   0.5984     N
C       0.7092   0.4712   0.8404     C
C       0.7092   0.9712   0.6596     C
Ag     0.71194  0.28904  0.12626    Ag
Ag     0.71194  0.78904  0.37374    Ag
O       0.7121   0.3033   0.0211     O
O       0.7121   0.8033   0.4789     O
F        0.713   0.4991    0.727     F
F        0.713   0.9991    0.773     F
C       0.7137   0.4329   0.8704     C
C       0.7137   0.9329   0.6296     C
O       0.7144    0.289   0.2465     O
O       0.7144    0.789   0.2535     O
O        0.717   0.4328   0.6585     O
O        0.717   0.9328   0.8415     O
C         0.72   0.1622    0.273     C
C         0.72   0.6622    0.227     C
C       0.7248   0.4279    0.206     C
C       0.7248   0.9279    0.294     C
Ag     0.72554  0.16732  0.12806    Ag
Ag     0.72554  0.66732  0.37194    Ag
C       0.7268   0.2386   0.8678     C
C       0.7268   0.7386   0.6322     C
O       0.7352   0.3537   0.5061     O
O       0.7352   0.8537   0.9939     O
O       0.7381   0.0907   0.6029     O
O       0.7381   0.5907   0.8971     O
C       0.7395   0.3869   0.1801     C
C       0.7395   0.8869   0.3199     C
F       0.7432   0.2661   0.4206     F
F       0.7432   0.7661   0.0794     F
Ag      0.7451  0.36194  0.63295    Ag
Ag      0.7451  0.86194  0.86705    Ag
F       0.7458   0.4693   0.5524     F
F       0.7458   0.9693   0.9476     F
F       0.7494   0.3644   0.7556     F
F       0.7494   0.8644   0.7444     F
F       0.7502   0.1209   0.7789     F
F       0.7502   0.6209   0.7211     F
C       0.7541   0.2425    0.824     C
C       0.7541   0.3433   0.0354     C
C       0.7541   0.7425    0.676     C
C       0.7541   0.8433   0.4646     C
O       0.7565   0.2239   0.4952     O
O       0.7565   0.7239   0.0048     O
F       0.7566   0.4333   0.2408     F
F       0.7566   0.4723   0.1906     F
F       0.7566   0.9333   0.2592     F
F       0.7566   0.9723   0.3094     F
O       0.7587   0.3568   0.0719     O
O       0.7587   0.8568   0.4281     O
C       0.7589    0.171   0.7211     C
C       0.7589    0.671   0.7789     C
F       0.7601   0.1172   0.3247     F
F       0.7601   0.6172   0.1753     F
F       0.7609   0.3543     0.31     F
F       0.7609   0.8543     0.19     F
C       0.7647   0.4819   0.4118     C
C       0.7647   0.9819   0.0882     C
F       0.7663   0.0788   0.0153     F
F       0.7663   0.5788   0.4847     F
F       0.7778   0.0891   0.7256     F
F       0.7778   0.5891   0.7744     F
Ag     0.77924  0.30848  0.56211    Ag
Ag     0.77924  0.80848  0.93789    Ag
C       0.7849   0.4407   0.3918     C
C       0.7849   0.9407   0.1082     C
F       0.7877   0.3728   0.9684     F
F       0.7877   0.8728   0.5316     F
C       0.7878   0.1338   0.7464     C
C       0.7878   0.6338   0.7536     C
O       0.7884   0.1779   0.2608     O
O       0.7884   0.6779   0.2392     O
O       0.7924    0.275   0.2026     O
O       0.7924    0.775   0.2974     O
Ag      0.7954  0.23643  0.06072    Ag
Ag      0.7954  0.73643  0.43928    Ag
O       0.7959   0.1856   0.6885     O
O       0.7959   0.6856   0.8115     O
Ag     0.79975  0.25504  0.64207    Ag
Ag     0.79975  0.75504  0.85793    Ag
C       0.8039   0.2585   0.4317     C
C       0.8039   0.7585   0.0683     C
O       0.8053   0.3223   0.6942     O
O       0.8053   0.8223   0.8058     O
F       0.8054   0.2179    0.415     F
F       0.8054   0.7179    0.085     F
F       0.8073   0.1276   0.9684     F
F       0.8073   0.6276   0.5316     F
C       0.8079   0.3819    0.006     C
C       0.8079   0.8819    0.494     C
F       0.8114   0.4282   0.0135     F
F       0.8114   0.9282   0.4865     F
C       0.8118   0.2566   0.4768     C
C       0.8118   0.7566   0.0232     C
O       0.8131   0.3845   0.1801     O
O       0.8131   0.8845   0.3199     O
Ag      0.8161  0.19836  0.56018    Ag
Ag      0.8161  0.69836  0.93982    Ag
C       0.8178   0.2393   0.1401     C
C       0.8178   0.7393   0.3599     C
Ag     0.81781  0.20535  0.19836    Ag
Ag     0.81781  0.70535  0.30164    Ag
C       0.8262   0.3799    0.748     C
C       0.8262   0.8799    0.752     C
C       0.8316   0.1037   0.9983     C
C       0.8316   0.6037   0.5017     C
F       0.8342   0.4231   0.7274     F
F       0.8342   0.9231   0.7726     F
C       0.8394   0.2566   0.8207     C
C       0.8394   0.7566   0.6793     C
C       0.8437   0.4267   0.4212     C
C       0.8437   0.9267   0.0788     C
O       0.8465   0.2525    0.995     O
O       0.8465   0.7525    0.505     O
F       0.8492   0.0308   0.5489     F
F       0.8492   0.5308   0.9511     F
C       0.8508   0.3404   0.7213     C
C       0.8508   0.8404   0.7787     C
C        0.851   0.2769   0.1202     C
C        0.851   0.7769   0.3798     C
Ag     0.85695  0.14426  0.62954    Ag
Ag     0.85695  0.64426  0.87046    Ag
F       0.8577   0.2893   0.4128     F
F       0.8577   0.7893   0.0872     F
O       0.8593   0.1545   0.0573     O
O       0.8593   0.6545   0.4427     O
F       0.8628   0.0728   0.9819     F
F       0.8628   0.5728   0.5181     F
F       0.8637   0.3917   0.7812     F
F       0.8637   0.8917   0.7188     F
O       0.8645   0.4133   0.6074     O
O       0.8645   0.9133   0.8926     O
F        0.865   0.1486    0.752     F
F        0.865   0.6486    0.748     F
F       0.8666   0.0223   0.1767     F
F       0.8666   0.5223   0.3233     F
O       0.8673   0.2867   0.4924     O
O       0.8673   0.7867   0.0076     O
F       0.8728   0.2906   0.3146     F
F       0.8728   0.7906   0.1854     F
Ag     0.88002  0.36212   0.1229    Ag
Ag     0.88002  0.86212   0.3771    Ag
Ag     0.88204  0.37362  0.24176    Ag
Ag     0.88204  0.87362  0.25824    Ag
C       0.8828    0.053   0.4233     C
C       0.8828    0.553   0.0767     C
F       0.8835   0.3794   0.0089     F
F       0.8835   0.8794   0.4911     F
N       0.8859   0.4121   0.4419     N
N       0.8859   0.9121   0.0581     N
C       0.8878   0.1425   0.0264     C
C       0.8878   0.6425   0.4736     C
O       0.8884   0.0767   0.6569     O
O       0.8884   0.5767   0.8431     O
F       0.8916   0.0508   0.2336     F
F       0.8916   0.5508   0.2664     F
O       0.8977    0.371    0.557     O
O       0.8977    0.871    0.943     O
C       0.8999   0.0738   0.8663     C
C       0.8999   0.5738   0.6337     C
F       0.9015   0.2982   0.9221     F
F       0.9015   0.7982   0.5779     F
C       0.9061   0.4079   0.5792     C
C       0.9061   0.9079   0.9208     C
C       0.9063   0.2331   0.6039     C
C       0.9063   0.7331   0.8961     C
C       0.9082   0.0395   0.8339     C
C       0.9082   0.5395   0.6661     C
O       0.9087   0.1449   0.2073     O
O       0.9087   0.6449   0.2927     O
C       0.9088   0.0601   0.1973     C
C       0.9088   0.5601   0.3027     C
C       0.9099   0.1121   0.1812     C
C       0.9099   0.6121   0.3188     C
O       0.9118    0.117   0.1434     O
O       0.9118    0.617   0.3566     O
F        0.913   0.2277   0.9249     F
F        0.913   0.7277   0.5751     F
F       0.9135    0.489   0.9294     F
F       0.9135    0.989   0.5706     F
O       0.9137   0.3309    0.732     O
O       0.9137   0.8309    0.768     O
F       0.9141   0.0133   0.7256     F
F       0.9141   0.5133   0.7744     F
C       0.9192   0.2692   0.9873     C
C       0.9192   0.7692   0.5127     C
C       0.9198   0.0302   0.5536     C
C       0.9198   0.5302   0.9464     C
F        0.921    0.488    0.834     F
F        0.921    0.988    0.666     F
O       0.9264   0.2927   0.2389     O
O       0.9264   0.7927   0.2611     O
F       0.9265   0.2337   0.3303     F
F       0.9265   0.7337   0.1697     F
Ag     0.92747  0.19652  0.11845    Ag
Ag     0.92747  0.69652  0.38155    Ag
C       0.9343   0.2757   0.3093     C
C       0.9343   0.7757   0.1907     C
C        0.939   0.0479    0.395     C
C        0.939   0.5479    0.105     C
C         0.94   0.2697   0.9423     C
C         0.94   0.7697   0.5577     C
F       0.9418   0.0235   0.5197     F
F       0.9418   0.5235   0.9803     F
C       0.9448   0.0852   0.3606     C
C       0.9448   0.5852   0.1394     C
C       0.9452   0.2402   0.6348     C
C       0.9452   0.7402   0.8652     C
Ag     0.94559  0.14721  0.27591    Ag
Ag     0.94559  0.64721  0.22409    Ag
N       0.9485   0.1084   0.3317     N
N       0.9485   0.6084   0.1683     N
Ag     0.94858  0.37544  0.47836    Ag
Ag     0.94858  0.87544  0.02164    Ag
C       0.9489   0.0766   0.6759     C
C       0.9489   0.5766   0.8241     C
F       0.9522   0.4841   0.5456     F
F       0.9522   0.9841   0.9544     F
C       0.9534   0.0243   0.6909     C
C       0.9534   0.5243   0.8091     C
C       0.9535   0.2681   0.2635     C
C       0.9535   0.7681   0.2365     C
O       0.9549   0.1179   0.5658     O
O       0.9549   0.6179   0.9342     O
Ag      0.9551  0.28493   0.5521    Ag
Ag      0.9551  0.78493   0.9479    Ag
Ag     0.95726  0.27658  0.69334    Ag
Ag     0.95726  0.77658  0.80666    Ag
O       0.9593    0.158   0.0129     O
O       0.9593    0.658   0.4871     O
Ag     0.96057  0.30192  0.07877    Ag
Ag     0.96057  0.80192  0.42123    Ag
N       0.9606   0.4162   0.2911     N
N       0.9606   0.9162   0.2089     N
F        0.966   0.0546   0.0529     F
F        0.966   0.5546   0.4471     F
O       0.9713   0.4296   0.0939     O
O       0.9713   0.9296   0.4061     O
C       0.9728   0.0777   0.5738     C
C       0.9728   0.5777   0.9262     C
F        0.974   0.4787   0.1978     F
F        0.974   0.9787   0.3022     F
C       0.9765   0.4535   0.5705     C
C       0.9765   0.9535   0.9295     C
O       0.9772   0.2834   0.0107     O
O       0.9772   0.7834   0.4893     O
F       0.9816   0.0547   0.1933     F
F       0.9816   0.5547   0.3067     F
C       0.9843    0.065    0.811     C
C       0.9843    0.565    0.689     C
Ag     0.98571  0.30505  0.17057    Ag
Ag     0.98571  0.80505  0.32943    Ag
F       0.9899   0.2119   0.4341     F
F       0.9899   0.7119   0.0659     F
O       0.9918   0.2374   0.2571     O
O       0.9918   0.7374   0.2429     O
O       0.9931   0.3864   0.1854     O
O       0.9931   0.8864   0.3146     O
F       0.9962   0.0181      0.1     F
F       0.9962   0.5181      0.4     F
F       0.9964   0.3095   0.3249     F
F       0.9964   0.8095   0.1751     F
