data_I
_chemical_name_common  '/Users/gianmarcoterrones/Research/MOFs/MOF_structures/water_stability_work_extra_structs/cleaned_from_CCDC/TOVGES'
_cell_length_a 38.42240
_cell_length_b 38.42240
_cell_length_c 38.42240
_cell_angle_alpha 90.00000
_cell_angle_beta  90.00000
_cell_angle_gamma 90.00000
_space_group_name_H-M_alt      'P 1'


loop_
_space_group_symop_operation_xyz
  'x, y, z' 

loop_
_atom_site_label
_atom_site_fract_x
_atom_site_fract_y
_atom_site_fract_z
_atom_site_type_symbol
H          0.0    0.036   0.4673     H
H          0.0    0.036   0.5327     H
N          0.0  0.05737    0.459     N
N          0.0  0.05737    0.541     N
N          0.0    0.459  0.05737     N
N          0.0    0.459  0.94263     N
H          0.0   0.4673    0.036     H
H          0.0   0.4673    0.964     H
H          0.0   0.5327    0.036     H
H          0.0   0.5327    0.964     H
N          0.0    0.541  0.05737     N
N          0.0    0.541  0.94263     N
N          0.0  0.94263    0.459     N
N          0.0  0.94263    0.541     N
H          0.0    0.964   0.4673     H
H          0.0    0.964   0.5327     H
H       0.0063   0.1822   0.4427     H
H       0.0063   0.1822   0.5573     H
H       0.0063   0.4427   0.1822     H
H       0.0063   0.4427   0.8178     H
H       0.0063   0.5573   0.1822     H
H       0.0063   0.5573   0.8178     H
H       0.0063   0.8178   0.4427     H
H       0.0063   0.8178   0.5573     H
C      0.01762  0.11092   0.4491     C
C      0.01762  0.11092   0.5509     C
C      0.01762   0.4491  0.11092     C
C      0.01762   0.4491  0.88908     C
C      0.01762   0.5509  0.11092     C
C      0.01762   0.5509  0.88908     C
C      0.01762  0.88908   0.4491     C
C      0.01762  0.88908   0.5509     C
C       0.0298   0.1777   0.4513     C
C       0.0298   0.1777   0.5487     C
C       0.0298   0.4513   0.1777     C
C       0.0298   0.4513   0.8223     C
C       0.0298   0.5487   0.1777     C
C       0.0298   0.5487   0.8223     C
C       0.0298   0.8223   0.4513     C
C       0.0298   0.8223   0.5487     C
H       0.0301   0.1799   0.4767     H
H       0.0301   0.1799   0.5233     H
H       0.0301   0.4767   0.1799     H
H       0.0301   0.4767   0.8201     H
H       0.0301   0.5233   0.1799     H
H       0.0301   0.5233   0.8201     H
H       0.0301   0.8201   0.4767     H
H       0.0301   0.8201   0.5233     H
C     0.030589  0.07819   0.4509     C
C     0.030589  0.07819   0.5491     C
C     0.030589   0.4509  0.07819     C
C     0.030589   0.4509  0.92181     C
C     0.030589   0.5491  0.07819     C
C     0.030589   0.5491  0.92181     C
C     0.030589  0.92181   0.4509     C
C     0.030589  0.92181   0.5491     C
H        0.036      0.0   0.4673     H
H        0.036      0.0   0.5327     H
H        0.036   0.4673      0.0     H
H        0.036   0.5327      0.0     H
H       0.0383   0.1458   0.4167     H
H       0.0383   0.1458   0.5833     H
H       0.0383   0.4167   0.1458     H
H       0.0383   0.4167   0.8542     H
H       0.0383   0.5833   0.1458     H
H       0.0383   0.5833   0.8542     H
H       0.0383   0.8542   0.4167     H
H       0.0383   0.8542   0.5833     H
C      0.04076  0.14143   0.4412     C
C      0.04076  0.14143   0.5588     C
C      0.04076   0.4412  0.14143     C
C      0.04076   0.4412  0.85857     C
C      0.04076   0.5588  0.14143     C
C      0.04076   0.5588  0.85857     C
C      0.04076  0.85857   0.4412     C
C      0.04076  0.85857   0.5588     C
H        0.046   0.1946   0.4412     H
H        0.046   0.1946   0.5588     H
H        0.046   0.4412   0.1946     H
H        0.046   0.4412   0.8054     H
H        0.046   0.5588   0.1946     H
H        0.046   0.5588   0.8054     H
H        0.046   0.8054   0.4412     H
H        0.046   0.8054   0.5588     H
H       0.0554   0.1249   0.4711     H
H       0.0554   0.1249   0.5289     H
H       0.0554   0.4711   0.1249     H
H       0.0554   0.4711   0.8751     H
H       0.0554   0.5289   0.1249     H
H       0.0554   0.5289   0.8751     H
H       0.0554   0.8751   0.4711     H
H       0.0554   0.8751   0.5289     H
N      0.05737      0.0    0.459     N
N      0.05737      0.0    0.541     N
N      0.05737    0.459      0.0     N
N      0.05737    0.541      0.0     N
H        0.059   0.1284   0.4317     H
H        0.059   0.1284   0.5683     H
H        0.059   0.4317   0.1284     H
H        0.059   0.4317   0.8716     H
H        0.059   0.5683   0.1284     H
H        0.059   0.5683   0.8716     H
H        0.059   0.8716   0.4317     H
H        0.059   0.8716   0.5683     H
C      0.06402  0.06402   0.4466     C
C      0.06402  0.06402   0.5534     C
C      0.06402   0.4466  0.06402     C
C      0.06402   0.4466  0.93598     C
C      0.06402   0.5534  0.06402     C
C      0.06402   0.5534  0.93598     C
C      0.06402  0.93598   0.4466     C
C      0.06402  0.93598   0.5534     C
H       0.0645   0.1347   0.4451     H
H       0.0645   0.1347   0.5549     H
H       0.0645   0.4451   0.1347     H
H       0.0645   0.4451   0.8653     H
H       0.0645   0.5549   0.1347     H
H       0.0645   0.5549   0.8653     H
H       0.0645   0.8653   0.4451     H
H       0.0645   0.8653   0.5549     H
C      0.07819 0.030589   0.4509     C
C      0.07819 0.030589   0.5491     C
C      0.07819   0.4509 0.030589     C
C      0.07819   0.4509 0.969411     C
C      0.07819   0.5491 0.030589     C
C      0.07819   0.5491 0.969411     C
C      0.07819 0.969411   0.4509     C
C      0.07819 0.969411   0.5491     C
C      0.07908   0.1202   0.4646     C
C      0.07908   0.1202   0.5354     C
C      0.07908   0.4646   0.1202     C
C      0.07908   0.4646   0.8798     C
C      0.07908   0.5354   0.1202     C
C      0.07908   0.5354   0.8798     C
C      0.07908   0.8798   0.4646     C
C      0.07908   0.8798   0.5354     C
C       0.0812   0.1222   0.4413     C
C       0.0812   0.1222   0.5587     C
C       0.0812   0.4413   0.1222     C
C       0.0812   0.4413   0.8778     C
C       0.0812   0.5587   0.1222     C
C       0.0812   0.5587   0.8778     C
C       0.0812   0.8778   0.4413     C
C       0.0812   0.8778   0.5587     C
C      0.08795  0.08796   0.5493     C
C      0.08795   0.4507  0.08796     C
C      0.08795   0.5493  0.91204     C
C      0.08795  0.91204   0.4507     C
C      0.08796  0.08795   0.4507     C
C      0.08796   0.4507  0.91205     C
C      0.08796   0.5493  0.08795     C
C      0.08796  0.91205   0.5493     C
H       0.0983   0.1679   0.4786     H
H       0.0983   0.1679   0.5214     H
H       0.0983   0.4786   0.1679     H
H       0.0983   0.4786   0.8321     H
H       0.0983   0.5214   0.1679     H
H       0.0983   0.5214   0.8321     H
H       0.0983   0.8321   0.4786     H
H       0.0983   0.8321   0.5214     H
H        0.102   0.1712   0.4391     H
H        0.102   0.1712   0.5609     H
H        0.102   0.4391   0.1712     H
H        0.102   0.4391   0.8288     H
H        0.102   0.5609   0.1712     H
H        0.102   0.5609   0.8288     H
H        0.102   0.8288   0.4391     H
H        0.102   0.8288   0.5609     H
C      0.10446   0.1456    0.469     C
C      0.10446   0.1456    0.531     C
C      0.10446    0.469   0.1456     C
C      0.10446    0.469   0.8544     C
C      0.10446    0.531   0.1456     C
C      0.10446    0.531   0.8544     C
C      0.10446   0.8544    0.469     C
C      0.10446   0.8544    0.531     C
C       0.1066  0.14758   0.4457     C
C       0.1066  0.14758   0.5543     C
C       0.1066   0.4457  0.14758     C
C       0.1066   0.4457  0.85242     C
C       0.1066   0.5543  0.14758     C
C       0.1066   0.5543  0.85242     C
C       0.1066  0.85242   0.4457     C
C       0.1066  0.85242   0.5543     C
C      0.11092  0.01762   0.4491     C
C      0.11092  0.01762   0.5509     C
C      0.11092   0.4491  0.01762     C
C      0.11092   0.4491  0.98238     C
C      0.11092   0.5509  0.01762     C
C      0.11092   0.5509  0.98238     C
C      0.11092  0.98238   0.4491     C
C      0.11092  0.98238   0.5509     C
C       0.1202  0.07908   0.4646     C
C       0.1202  0.07908   0.5354     C
C       0.1202   0.4646  0.07908     C
C       0.1202   0.4646  0.92092     C
C       0.1202   0.5354  0.07908     C
C       0.1202   0.5354  0.92092     C
C       0.1202  0.92092   0.4646     C
C       0.1202  0.92092   0.5354     C
C       0.1222   0.0812   0.4413     C
C       0.1222   0.0812   0.5587     C
C       0.1222   0.4413   0.0812     C
C       0.1222   0.4413   0.9188     C
C       0.1222   0.5587   0.0812     C
C       0.1222   0.5587   0.9188     C
C       0.1222   0.9188   0.4413     C
C       0.1222   0.9188   0.5587     C
H       0.1249   0.0554   0.4711     H
H       0.1249   0.0554   0.5289     H
H       0.1249   0.4711   0.0554     H
H       0.1249   0.4711   0.9446     H
H       0.1249   0.5289   0.0554     H
H       0.1249   0.5289   0.9446     H
H       0.1249   0.9446   0.4711     H
H       0.1249   0.9446   0.5289     H
H       0.1284    0.059   0.4317     H
H       0.1284    0.059   0.5683     H
H       0.1284   0.4317    0.059     H
H       0.1284   0.4317    0.941     H
H       0.1284   0.5683    0.059     H
H       0.1284   0.5683    0.941     H
H       0.1284    0.941   0.4317     H
H       0.1284    0.941   0.5683     H
H       0.1347   0.0645   0.4451     H
H       0.1347   0.0645   0.5549     H
H       0.1347   0.4451   0.0645     H
H       0.1347   0.4451   0.9355     H
H       0.1347   0.5549   0.0645     H
H       0.1347   0.5549   0.9355     H
H       0.1347   0.9355   0.4451     H
H       0.1347   0.9355   0.5549     H
C      0.13871  0.13871   0.4596     C
C      0.13871  0.13871   0.5404     C
C      0.13871   0.4596  0.13871     C
C      0.13871   0.4596  0.86129     C
C      0.13871   0.5404  0.13871     C
C      0.13871   0.5404  0.86129     C
C      0.13871  0.86129   0.4596     C
C      0.13871  0.86129   0.5404     C
C      0.14143  0.04076   0.4412     C
C      0.14143  0.04076   0.5588     C
C      0.14143   0.4412  0.04076     C
C      0.14143   0.4412  0.95924     C
C      0.14143   0.5588  0.04076     C
C      0.14143   0.5588  0.95924     C
C      0.14143  0.95924   0.4412     C
C      0.14143  0.95924   0.5588     C
C       0.1456  0.10446    0.469     C
C       0.1456  0.10446    0.531     C
C       0.1456    0.469  0.10446     C
C       0.1456    0.469  0.89554     C
C       0.1456    0.531  0.10446     C
C       0.1456    0.531  0.89554     C
C       0.1456  0.89554    0.469     C
C       0.1456  0.89554    0.531     C
H       0.1458   0.0383   0.4167     H
H       0.1458   0.0383   0.5833     H
H       0.1458   0.4167   0.0383     H
H       0.1458   0.4167   0.9617     H
H       0.1458   0.5833   0.0383     H
H       0.1458   0.5833   0.9617     H
H       0.1458   0.9617   0.4167     H
H       0.1458   0.9617   0.5833     H
C      0.14758   0.1066   0.4457     C
C      0.14758   0.1066   0.5543     C
C      0.14758   0.4457   0.1066     C
C      0.14758   0.4457   0.8934     C
C      0.14758   0.5543   0.1066     C
C      0.14758   0.5543   0.8934     C
C      0.14758   0.8934   0.4457     C
C      0.14758   0.8934   0.5543     C
H       0.1595   0.2221   0.4842     H
H       0.1595   0.2221   0.5158     H
H       0.1595   0.4842   0.2221     H
H       0.1595   0.4842   0.7779     H
H       0.1595   0.5158   0.2221     H
H       0.1595   0.5158   0.7779     H
H       0.1595   0.7779   0.4842     H
H       0.1595   0.7779   0.5158     H
H       0.1622   0.2627   0.4814     H
H       0.1622   0.2627   0.5186     H
H       0.1622   0.4814   0.2627     H
H       0.1622   0.4814   0.7373     H
H       0.1622   0.5186   0.2627     H
H       0.1622   0.5186   0.7373     H
H       0.1622   0.7373   0.4814     H
H       0.1622   0.7373   0.5186     H
C      0.16608  0.16608   0.4644     C
C      0.16608  0.16608   0.5356     C
C      0.16608   0.4644  0.16608     C
C      0.16608   0.4644  0.83392     C
C      0.16608   0.5356  0.16608     C
C      0.16608   0.5356  0.83392     C
C      0.16608  0.83392   0.4644     C
C      0.16608  0.83392   0.5356     C
H       0.1679   0.0983   0.4786     H
H       0.1679   0.0983   0.5214     H
H       0.1679   0.4786   0.0983     H
H       0.1679   0.4786   0.9017     H
H       0.1679   0.5214   0.0983     H
H       0.1679   0.5214   0.9017     H
H       0.1679   0.9017   0.4786     H
H       0.1679   0.9017   0.5214     H
H       0.1712    0.102   0.4391     H
H       0.1712    0.102   0.5609     H
H       0.1712   0.4391    0.102     H
H       0.1712   0.4391    0.898     H
H       0.1712   0.5609    0.102     H
H       0.1712   0.5609    0.898     H
H       0.1712    0.898   0.4391     H
H       0.1712    0.898   0.5609     H
C      0.17384   0.2412   0.4767     C
C      0.17384   0.2412   0.5233     C
C      0.17384   0.4767   0.2412     C
C      0.17384   0.4767   0.7588     C
C      0.17384   0.5233   0.2412     C
C      0.17384   0.5233   0.7588     C
C      0.17384   0.7588   0.4767     C
C      0.17384   0.7588   0.5233     C
C       0.1777   0.0298   0.4513     C
C       0.1777   0.0298   0.5487     C
C       0.1777   0.4513   0.0298     C
C       0.1777   0.4513   0.9702     C
C       0.1777   0.5487   0.0298     C
C       0.1777   0.5487   0.9702     C
C       0.1777   0.9702   0.4513     C
C       0.1777   0.9702   0.5487     C
H       0.1782   0.2392   0.4522     H
H       0.1782   0.2392   0.5478     H
H       0.1782   0.4522   0.2392     H
H       0.1782   0.4522   0.7608     H
H       0.1782   0.5478   0.2392     H
H       0.1782   0.5478   0.7608     H
H       0.1782   0.7608   0.4522     H
H       0.1782   0.7608   0.5478     H
H       0.1799   0.0301   0.4767     H
H       0.1799   0.0301   0.5233     H
H       0.1799   0.4767   0.0301     H
H       0.1799   0.4767   0.9699     H
H       0.1799   0.5233   0.0301     H
H       0.1799   0.5233   0.9699     H
H       0.1799   0.9699   0.4767     H
H       0.1799   0.9699   0.5233     H
H       0.1822   0.0063   0.4427     H
H       0.1822   0.0063   0.5573     H
H       0.1822   0.4427   0.0063     H
H       0.1822   0.4427   0.9937     H
H       0.1822   0.5573   0.0063     H
H       0.1822   0.5573   0.9937     H
H       0.1822   0.9937   0.4427     H
H       0.1822   0.9937   0.5573     H
C      0.18756  0.18756   0.4724     C
C      0.18756  0.18756   0.5276     C
C      0.18756   0.4724  0.18756     C
C      0.18756   0.4724  0.81244     C
C      0.18756   0.5276  0.18756     C
C      0.18756   0.5276  0.81244     C
C      0.18756  0.81244   0.4724     C
C      0.18756  0.81244   0.5276     C
H       0.1946    0.046   0.4412     H
H       0.1946    0.046   0.5588     H
H       0.1946   0.4412    0.046     H
H       0.1946   0.4412    0.954     H
H       0.1946   0.5588    0.046     H
H       0.1946   0.5588    0.954     H
H       0.1946    0.954   0.4412     H
H       0.1946    0.954   0.5588     H
H       0.1957   0.2503    0.445     H
H       0.1957   0.2503    0.555     H
H       0.1957    0.445   0.2503     H
H       0.1957    0.445   0.7497     H
H       0.1957    0.555   0.2503     H
H       0.1957    0.555   0.7497     H
H       0.1957   0.7497    0.445     H
H       0.1957   0.7497    0.555     H
C      0.20803  0.24031    0.496     C
C      0.20803    0.496  0.24031     C
C      0.20803    0.496  0.75969     C
C      0.20803  0.75969    0.496     C
C      0.21361  0.24589   0.4618     C
C      0.21361  0.24589   0.5382     C
C      0.21361   0.4618  0.24589     C
C      0.21361   0.4618  0.75411     C
C      0.21361   0.5382  0.24589     C
C      0.21361   0.5382  0.75411     C
C      0.21361  0.75411   0.4618     C
C      0.21361  0.75411   0.5382     C
C      0.21438  0.21438   0.4796     C
C      0.21438  0.21438   0.5204     C
C      0.21438   0.4796  0.21438     C
C      0.21438   0.4796  0.78562     C
C      0.21438   0.5204  0.21438     C
C      0.21438   0.5204  0.78562     C
C      0.21438  0.78562   0.4796     C
C      0.21438  0.78562   0.5204     C
H       0.2185   0.3054   0.4335     H
H       0.2185   0.3054   0.5665     H
H       0.2185   0.4335   0.3054     H
H       0.2185   0.4335   0.6946     H
H       0.2185   0.5665   0.3054     H
H       0.2185   0.5665   0.6946     H
H       0.2185   0.6946   0.4335     H
H       0.2185   0.6946   0.5665     H
H       0.2221   0.1595   0.4842     H
H       0.2221   0.1595   0.5158     H
H       0.2221   0.4842   0.1595     H
H       0.2221   0.4842   0.8405     H
H       0.2221   0.5158   0.1595     H
H       0.2221   0.5158   0.8405     H
H       0.2221   0.8405   0.4842     H
H       0.2221   0.8405   0.5158     H
H       0.2288   0.2833   0.4724     H
H       0.2288   0.2833   0.5276     H
H       0.2288   0.4724   0.2833     H
H       0.2288   0.4724   0.7167     H
H       0.2288   0.5276   0.2833     H
H       0.2288   0.5276   0.7167     H
H       0.2288   0.7167   0.4724     H
H       0.2288   0.7167   0.5276     H
C      0.23318  0.26544   0.4893     C
C      0.23318  0.26544   0.5107     C
C      0.23318   0.4893  0.26544     C
C      0.23318   0.4893  0.73456     C
C      0.23318   0.5107  0.26544     C
C      0.23318   0.5107  0.73456     C
C      0.23318  0.73456   0.4893     C
C      0.23318  0.73456   0.5107     C
H       0.2356    0.324   0.4655     H
H       0.2356    0.324   0.5345     H
H       0.2356   0.4655    0.324     H
H       0.2356   0.4655    0.676     H
H       0.2356   0.5345    0.324     H
H       0.2356   0.5345    0.676     H
H       0.2356    0.676   0.4655     H
H       0.2356    0.676   0.5345     H
C       0.2379  0.30522   0.4492     C
C       0.2379  0.30522   0.5508     C
C       0.2379   0.4492  0.30522     C
C       0.2379   0.4492  0.69478     C
C       0.2379   0.5508  0.30522     C
C       0.2379   0.5508  0.69478     C
C       0.2379  0.69478   0.4492     C
C       0.2379  0.69478   0.5508     C
C      0.23874  0.27104   0.4685     C
C      0.23874  0.27104   0.5315     C
C      0.23874   0.4685  0.27104     C
C      0.23874   0.4685  0.72896     C
C      0.23874   0.5315  0.27104     C
C      0.23874   0.5315  0.72896     C
C      0.23874  0.72896   0.4685     C
C      0.23874  0.72896   0.5315     C
H       0.2392   0.1782   0.4522     H
H       0.2392   0.1782   0.5478     H
H       0.2392   0.4522   0.1782     H
H       0.2392   0.4522   0.8218     H
H       0.2392   0.5478   0.1782     H
H       0.2392   0.5478   0.8218     H
H       0.2392   0.8218   0.4522     H
H       0.2392   0.8218   0.5478     H
C      0.24031  0.20803    0.496     C
C      0.24031    0.496  0.20803     C
C      0.24031    0.496  0.79197     C
C      0.24031  0.79197    0.496     C
C       0.2412  0.17384   0.4767     C
C       0.2412  0.17384   0.5233     C
C       0.2412   0.4767  0.17384     C
C       0.2412   0.4767  0.82616     C
C       0.2412   0.5233  0.17384     C
C       0.2412   0.5233  0.82616     C
C       0.2412  0.82616   0.4767     C
C       0.2412  0.82616   0.5233     C
C      0.24589  0.21361   0.4618     C
C      0.24589  0.21361   0.5382     C
C      0.24589   0.4618  0.21361     C
C      0.24589   0.4618  0.78639     C
C      0.24589   0.5382  0.21361     C
C      0.24589   0.5382  0.78639     C
C      0.24589  0.78639   0.4618     C
C      0.24589  0.78639   0.5382     C
H       0.2503   0.1957    0.445     H
H       0.2503   0.1957    0.555     H
H       0.2503    0.445   0.1957     H
H       0.2503    0.445   0.8043     H
H       0.2503    0.555   0.1957     H
H       0.2503    0.555   0.8043     H
H       0.2503   0.8043    0.445     H
H       0.2503   0.8043    0.555     H
H       0.2591    0.308   0.4362     H
H       0.2591    0.308   0.5638     H
H       0.2591   0.4362    0.308     H
H       0.2591   0.4362    0.692     H
H       0.2591   0.5638    0.308     H
H       0.2591   0.5638    0.692     H
H       0.2591    0.692   0.4362     H
H       0.2591    0.692   0.5638     H
H       0.2627   0.1622   0.4814     H
H       0.2627   0.1622   0.5186     H
H       0.2627   0.4814   0.1622     H
H       0.2627   0.4814   0.8378     H
H       0.2627   0.5186   0.1622     H
H       0.2627   0.5186   0.8378     H
H       0.2627   0.8378   0.4814     H
H       0.2627   0.8378   0.5186     H
C      0.26469  0.26469  0.49291     C
C      0.26469  0.49291  0.26469     C
C      0.26469  0.49291  0.73531     C
C      0.26469  0.73531  0.49291     C
C      0.26544  0.23318   0.4893     C
C      0.26544  0.23318   0.5107     C
C      0.26544   0.4893  0.23318     C
C      0.26544   0.4893  0.76682     C
C      0.26544   0.5107  0.23318     C
C      0.26544   0.5107  0.76682     C
C      0.26544  0.76682   0.4893     C
C      0.26544  0.76682   0.5107     C
C      0.27104  0.23874   0.4685     C
C      0.27104  0.23874   0.5315     C
C      0.27104   0.4685  0.23874     C
C      0.27104   0.4685  0.76126     C
C      0.27104   0.5315  0.23874     C
C      0.27104   0.5315  0.76126     C
C      0.27104  0.76126   0.4685     C
C      0.27104  0.76126   0.5315     C
H       0.2833   0.2288   0.4724     H
H       0.2833   0.2288   0.5276     H
H       0.2833   0.4724   0.2288     H
H       0.2833   0.4724   0.7712     H
H       0.2833   0.5276   0.2288     H
H       0.2833   0.5276   0.7712     H
H       0.2833   0.7712   0.4724     H
H       0.2833   0.7712   0.5276     H
C       0.2917   0.2917      0.5     C
C       0.2917      0.5   0.2917     C
C       0.2917      0.5   0.7083     C
C       0.2917   0.7083      0.5     C
C      0.30522   0.2379   0.4492     C
C      0.30522   0.2379   0.5508     C
C      0.30522   0.4492   0.2379     C
C      0.30522   0.4492   0.7621     C
C      0.30522   0.5508   0.2379     C
C      0.30522   0.5508   0.7621     C
C      0.30522   0.7621   0.4492     C
C      0.30522   0.7621   0.5508     C
H       0.3054   0.2185   0.4335     H
H       0.3054   0.2185   0.5665     H
H       0.3054   0.4335   0.2185     H
H       0.3054   0.4335   0.7815     H
H       0.3054   0.5665   0.2185     H
H       0.3054   0.5665   0.7815     H
H       0.3054   0.7815   0.4335     H
H       0.3054   0.7815   0.5665     H
H        0.308   0.2591   0.4362     H
H        0.308   0.2591   0.5638     H
H        0.308   0.4362   0.2591     H
H        0.308   0.4362   0.7409     H
H        0.308   0.5638   0.2591     H
H        0.308   0.5638   0.7409     H
H        0.308   0.7409   0.4362     H
H        0.308   0.7409   0.5638     H
H       0.3082   0.3828      0.5     H
H       0.3082      0.5   0.3828     H
H       0.3082      0.5   0.6172     H
H       0.3082   0.6172      0.5     H
C      0.31411  0.31411      0.5     C
C      0.31411      0.5  0.31411     C
C      0.31411      0.5  0.68589     C
C      0.31411  0.68589      0.5     C
H        0.324   0.2356   0.4655     H
H        0.324   0.2356   0.5345     H
H        0.324   0.4655   0.2356     H
H        0.324   0.4655   0.7644     H
H        0.324   0.5345   0.2356     H
H        0.324   0.5345   0.7644     H
H        0.324   0.7644   0.4655     H
H        0.324   0.7644   0.5345     H
C      0.33206  0.37651      0.5     C
C      0.33206      0.5  0.37651     C
C      0.33206      0.5  0.62349     C
C      0.33206  0.62349      0.5     C
C      0.34159  0.34159      0.5     C
C      0.34159      0.5  0.34159     C
C      0.34159      0.5  0.65841     C
C      0.34159  0.65841      0.5     C
H       0.3513    0.426      0.5     H
H       0.3513      0.5    0.426     H
H       0.3513      0.5    0.574     H
H       0.3513    0.574      0.5     H
C      0.35767  0.40212      0.5     C
C      0.35767      0.5  0.40212     C
C      0.35767      0.5  0.59788     C
C      0.35767  0.59788      0.5     C
C      0.37651  0.33206      0.5     C
C      0.37651      0.5  0.33206     C
C      0.37651      0.5  0.66794     C
C      0.37651  0.66794      0.5     C
H       0.3828   0.3082      0.5     H
H       0.3828      0.5   0.3082     H
H       0.3828      0.5   0.6918     H
H       0.3828   0.6918      0.5     H
C       0.3926   0.3926      0.5     C
C       0.3926      0.5   0.3926     C
C       0.3926      0.5   0.6074     C
C       0.3926   0.6074      0.5     C
C      0.40212  0.35767      0.5     C
C      0.40212      0.5  0.35767     C
C      0.40212      0.5  0.64233     C
C      0.40212  0.64233      0.5     C
O      0.40712  0.44995      0.5     O
O      0.40712      0.5  0.44995     O
O      0.40712      0.5  0.55005     O
O      0.40712  0.55005      0.5     O
H       0.4167   0.0383   0.1458     H
H       0.4167   0.0383   0.8542     H
H       0.4167   0.1458   0.0383     H
H       0.4167   0.1458   0.9617     H
H       0.4167   0.8542   0.0383     H
H       0.4167   0.8542   0.9617     H
H       0.4167   0.9617   0.1458     H
H       0.4167   0.9617   0.8542     H
C      0.41996  0.41996      0.5     C
C      0.41996      0.5  0.41996     C
C      0.41996      0.5  0.58004     C
C      0.41996  0.58004      0.5     C
H        0.426   0.3513      0.5     H
H        0.426      0.5   0.3513     H
H        0.426      0.5   0.6487     H
H        0.426   0.6487      0.5     H
H       0.4317    0.059   0.1284     H
H       0.4317    0.059   0.8716     H
H       0.4317   0.1284    0.059     H
H       0.4317   0.1284    0.941     H
H       0.4317   0.8716    0.059     H
H       0.4317   0.8716    0.941     H
H       0.4317    0.941   0.1284     H
H       0.4317    0.941   0.8716     H
H       0.4335   0.2185   0.3054     H
H       0.4335   0.2185   0.6946     H
H       0.4335   0.3054   0.2185     H
H       0.4335   0.3054   0.7815     H
H       0.4335   0.6946   0.2185     H
H       0.4335   0.6946   0.7815     H
H       0.4335   0.7815   0.3054     H
H       0.4335   0.7815   0.6946     H
Zr     0.43556      0.5      0.5    Zr
H       0.4362   0.2591    0.308     H
H       0.4362   0.2591    0.692     H
H       0.4362    0.308   0.2591     H
H       0.4362    0.308   0.7409     H
H       0.4362    0.692   0.2591     H
H       0.4362    0.692   0.7409     H
H       0.4362   0.7409    0.308     H
H       0.4362   0.7409    0.692     H
H       0.4391    0.102   0.1712     H
H       0.4391    0.102   0.8288     H
H       0.4391   0.1712    0.102     H
H       0.4391   0.1712    0.898     H
H       0.4391   0.8288    0.102     H
H       0.4391   0.8288    0.898     H
H       0.4391    0.898   0.1712     H
H       0.4391    0.898   0.8288     H
C       0.4412  0.04076  0.14143     C
C       0.4412  0.04076  0.85857     C
H       0.4412    0.046   0.1946     H
H       0.4412    0.046   0.8054     H
C       0.4412  0.14143  0.04076     C
C       0.4412  0.14143  0.95924     C
H       0.4412   0.1946    0.046     H
H       0.4412   0.1946    0.954     H
H       0.4412   0.8054    0.046     H
H       0.4412   0.8054    0.954     H
C       0.4412  0.85857  0.04076     C
C       0.4412  0.85857  0.95924     C
H       0.4412    0.954   0.1946     H
H       0.4412    0.954   0.8054     H
C       0.4412  0.95924  0.14143     C
C       0.4412  0.95924  0.85857     C
C       0.4413   0.0812   0.1222     C
C       0.4413   0.0812   0.8778     C
C       0.4413   0.1222   0.0812     C
C       0.4413   0.1222   0.9188     C
C       0.4413   0.8778   0.0812     C
C       0.4413   0.8778   0.9188     C
C       0.4413   0.9188   0.1222     C
C       0.4413   0.9188   0.8778     C
H       0.4427   0.0063   0.1822     H
H       0.4427   0.0063   0.8178     H
H       0.4427   0.1822   0.0063     H
H       0.4427   0.1822   0.9937     H
H       0.4427   0.8178   0.0063     H
H       0.4427   0.8178   0.9937     H
H       0.4427   0.9937   0.1822     H
H       0.4427   0.9937   0.8178     H
H        0.445   0.1957   0.2503     H
H        0.445   0.1957   0.7497     H
H        0.445   0.2503   0.1957     H
H        0.445   0.2503   0.8043     H
H        0.445   0.7497   0.1957     H
H        0.445   0.7497   0.8043     H
H        0.445   0.8043   0.2503     H
H        0.445   0.8043   0.7497     H
H       0.4451   0.0645   0.1347     H
H       0.4451   0.0645   0.8653     H
H       0.4451   0.1347   0.0645     H
H       0.4451   0.1347   0.9355     H
H       0.4451   0.8653   0.0645     H
H       0.4451   0.8653   0.9355     H
H       0.4451   0.9355   0.1347     H
H       0.4451   0.9355   0.8653     H
C       0.4457   0.1066  0.14758     C
C       0.4457   0.1066  0.85242     C
C       0.4457  0.14758   0.1066     C
C       0.4457  0.14758   0.8934     C
C       0.4457  0.85242   0.1066     C
C       0.4457  0.85242   0.8934     C
C       0.4457   0.8934  0.14758     C
C       0.4457   0.8934  0.85242     C
C       0.4466  0.06402  0.06402     C
C       0.4466  0.06402  0.93598     C
C       0.4466  0.93598  0.06402     C
C       0.4466  0.93598  0.93598     C
C       0.4491  0.01762  0.11092     C
C       0.4491  0.01762  0.88908     C
C       0.4491  0.11092  0.01762     C
C       0.4491  0.11092  0.98238     C
C       0.4491  0.88908  0.01762     C
C       0.4491  0.88908  0.98238     C
C       0.4491  0.98238  0.11092     C
C       0.4491  0.98238  0.88908     C
C       0.4492   0.2379  0.30522     C
C       0.4492   0.2379  0.69478     C
C       0.4492  0.30522   0.2379     C
C       0.4492  0.30522   0.7621     C
C       0.4492  0.69478   0.2379     C
C       0.4492  0.69478   0.7621     C
C       0.4492   0.7621  0.30522     C
C       0.4492   0.7621  0.69478     C
O      0.44995  0.40712      0.5     O
O      0.44995      0.5  0.40712     O
O      0.44995      0.5  0.59288     O
O      0.44995  0.59288      0.5     O
C       0.4507  0.08795  0.91204     C
C       0.4507  0.08796  0.08795     C
C       0.4507  0.91204  0.91205     C
C       0.4507  0.91205  0.08796     C
C       0.4509 0.030589  0.07819     C
C       0.4509 0.030589  0.92181     C
C       0.4509  0.07819 0.030589     C
C       0.4509  0.07819 0.969411     C
C       0.4509  0.92181 0.030589     C
C       0.4509  0.92181 0.969411     C
C       0.4509 0.969411  0.07819     C
C       0.4509 0.969411  0.92181     C
C       0.4513   0.0298   0.1777     C
C       0.4513   0.0298   0.8223     C
C       0.4513   0.1777   0.0298     C
C       0.4513   0.1777   0.9702     C
C       0.4513   0.8223   0.0298     C
C       0.4513   0.8223   0.9702     C
C       0.4513   0.9702   0.1777     C
C       0.4513   0.9702   0.8223     C
H       0.4522   0.1782   0.2392     H
H       0.4522   0.1782   0.7608     H
H       0.4522   0.2392   0.1782     H
H       0.4522   0.2392   0.8218     H
H       0.4522   0.7608   0.1782     H
H       0.4522   0.7608   0.8218     H
H       0.4522   0.8218   0.2392     H
H       0.4522   0.8218   0.7608     H
N        0.459      0.0  0.05737     N
N        0.459      0.0  0.94263     N
N        0.459  0.05737      0.0     N
N        0.459  0.94263      0.0     N
C       0.4596  0.13871  0.13871     C
C       0.4596  0.13871  0.86129     C
C       0.4596  0.86129  0.13871     C
C       0.4596  0.86129  0.86129     C
C       0.4618  0.21361  0.24589     C
C       0.4618  0.21361  0.75411     C
C       0.4618  0.24589  0.21361     C
C       0.4618  0.24589  0.78639     C
C       0.4618  0.75411  0.21361     C
C       0.4618  0.75411  0.78639     C
C       0.4618  0.78639  0.24589     C
C       0.4618  0.78639  0.75411     C
C       0.4644  0.16608  0.16608     C
C       0.4644  0.16608  0.83392     C
C       0.4644  0.83392  0.16608     C
C       0.4644  0.83392  0.83392     C
C       0.4646  0.07908   0.1202     C
C       0.4646  0.07908   0.8798     C
C       0.4646   0.1202  0.07908     C
C       0.4646   0.1202  0.92092     C
C       0.4646   0.8798  0.07908     C
C       0.4646   0.8798  0.92092     C
C       0.4646  0.92092   0.1202     C
C       0.4646  0.92092   0.8798     C
H       0.4655   0.2356    0.324     H
H       0.4655   0.2356    0.676     H
H       0.4655    0.324   0.2356     H
H       0.4655    0.324   0.7644     H
H       0.4655    0.676   0.2356     H
H       0.4655    0.676   0.7644     H
H       0.4655   0.7644    0.324     H
H       0.4655   0.7644    0.676     H
H       0.4673      0.0    0.036     H
H       0.4673      0.0    0.964     H
H       0.4673    0.036      0.0     H
H       0.4673    0.964      0.0     H
O      0.46842  0.46842  0.46842     O
O      0.46842  0.46842  0.53158     O
O      0.46842  0.53158  0.46842     O
O      0.46842  0.53158  0.53158     O
C       0.4685  0.23874  0.27104     C
C       0.4685  0.23874  0.72896     C
C       0.4685  0.27104  0.23874     C
C       0.4685  0.27104  0.76126     C
C       0.4685  0.72896  0.23874     C
C       0.4685  0.72896  0.76126     C
C       0.4685  0.76126  0.27104     C
C       0.4685  0.76126  0.72896     C
C        0.469  0.10446   0.1456     C
C        0.469  0.10446   0.8544     C
C        0.469   0.1456  0.10446     C
C        0.469   0.1456  0.89554     C
C        0.469   0.8544  0.10446     C
C        0.469   0.8544  0.89554     C
C        0.469  0.89554   0.1456     C
C        0.469  0.89554   0.8544     C
H       0.4711   0.0554   0.1249     H
H       0.4711   0.0554   0.8751     H
H       0.4711   0.1249   0.0554     H
H       0.4711   0.1249   0.9446     H
H       0.4711   0.8751   0.0554     H
H       0.4711   0.8751   0.9446     H
H       0.4711   0.9446   0.1249     H
H       0.4711   0.9446   0.8751     H
C       0.4724  0.18756  0.18756     C
C       0.4724  0.18756  0.81244     C
H       0.4724   0.2288   0.2833     H
H       0.4724   0.2288   0.7167     H
H       0.4724   0.2833   0.2288     H
H       0.4724   0.2833   0.7712     H
H       0.4724   0.7167   0.2288     H
H       0.4724   0.7167   0.7712     H
H       0.4724   0.7712   0.2833     H
H       0.4724   0.7712   0.7167     H
C       0.4724  0.81244  0.18756     C
C       0.4724  0.81244  0.81244     C
H       0.4767   0.0301   0.1799     H
H       0.4767   0.0301   0.8201     H
C       0.4767  0.17384   0.2412     C
C       0.4767  0.17384   0.7588     C
H       0.4767   0.1799   0.0301     H
H       0.4767   0.1799   0.9699     H
C       0.4767   0.2412  0.17384     C
C       0.4767   0.2412  0.82616     C
C       0.4767   0.7588  0.17384     C
C       0.4767   0.7588  0.82616     C
H       0.4767   0.8201   0.0301     H
H       0.4767   0.8201   0.9699     H
C       0.4767  0.82616   0.2412     C
C       0.4767  0.82616   0.7588     C
H       0.4767   0.9699   0.1799     H
H       0.4767   0.9699   0.8201     H
H       0.4786   0.0983   0.1679     H
H       0.4786   0.0983   0.8321     H
H       0.4786   0.1679   0.0983     H
H       0.4786   0.1679   0.9017     H
H       0.4786   0.8321   0.0983     H
H       0.4786   0.8321   0.9017     H
H       0.4786   0.9017   0.1679     H
H       0.4786   0.9017   0.8321     H
C       0.4796  0.21438  0.21438     C
C       0.4796  0.21438  0.78562     C
C       0.4796  0.78562  0.21438     C
C       0.4796  0.78562  0.78562     C
H       0.4814   0.1622   0.2627     H
H       0.4814   0.1622   0.7373     H
H       0.4814   0.2627   0.1622     H
H       0.4814   0.2627   0.8378     H
H       0.4814   0.7373   0.1622     H
H       0.4814   0.7373   0.8378     H
H       0.4814   0.8378   0.2627     H
H       0.4814   0.8378   0.7373     H
H       0.4842   0.1595   0.2221     H
H       0.4842   0.1595   0.7779     H
H       0.4842   0.2221   0.1595     H
H       0.4842   0.2221   0.8405     H
H       0.4842   0.7779   0.1595     H
H       0.4842   0.7779   0.8405     H
H       0.4842   0.8405   0.2221     H
H       0.4842   0.8405   0.7779     H
C       0.4893  0.23318  0.26544     C
C       0.4893  0.23318  0.73456     C
C       0.4893  0.26544  0.23318     C
C       0.4893  0.26544  0.76682     C
C       0.4893  0.73456  0.23318     C
C       0.4893  0.73456  0.76682     C
C       0.4893  0.76682  0.26544     C
C       0.4893  0.76682  0.73456     C
C      0.49291  0.26469  0.26469     C
C      0.49291  0.26469  0.73531     C
C      0.49291  0.73531  0.26469     C
C      0.49291  0.73531  0.73531     C
C        0.496  0.20803  0.24031     C
C        0.496  0.20803  0.75969     C
C        0.496  0.24031  0.20803     C
C        0.496  0.24031  0.79197     C
C        0.496  0.75969  0.20803     C
C        0.496  0.75969  0.79197     C
C        0.496  0.79197  0.24031     C
C        0.496  0.79197  0.75969     C
C          0.5   0.2917   0.2917     C
C          0.5   0.2917   0.7083     C
H          0.5   0.3082   0.3828     H
H          0.5   0.3082   0.6172     H
C          0.5  0.31411  0.31411     C
C          0.5  0.31411  0.68589     C
C          0.5  0.33206  0.37651     C
C          0.5  0.33206  0.62349     C
C          0.5  0.34159  0.34159     C
C          0.5  0.34159  0.65841     C
H          0.5   0.3513    0.426     H
H          0.5   0.3513    0.574     H
C          0.5  0.35767  0.40212     C
C          0.5  0.35767  0.59788     C
C          0.5  0.37651  0.33206     C
C          0.5  0.37651  0.66794     C
H          0.5   0.3828   0.3082     H
H          0.5   0.3828   0.6918     H
C          0.5   0.3926   0.3926     C
C          0.5   0.3926   0.6074     C
C          0.5  0.40212  0.35767     C
C          0.5  0.40212  0.64233     C
O          0.5  0.40712  0.44995     O
O          0.5  0.40712  0.55005     O
C          0.5  0.41996  0.41996     C
C          0.5  0.41996  0.58004     C
H          0.5    0.426   0.3513     H
H          0.5    0.426   0.6487     H
Zr         0.5  0.43556      0.5    Zr
O          0.5  0.44995  0.40712     O
O          0.5  0.44995  0.59288     O
Zr         0.5      0.5  0.43556    Zr
Zr         0.5      0.5  0.56444    Zr
O          0.5  0.55005  0.40712     O
O          0.5  0.55005  0.59288     O
Zr         0.5  0.56444      0.5    Zr
H          0.5    0.574   0.3513     H
H          0.5    0.574   0.6487     H
C          0.5  0.58004  0.41996     C
C          0.5  0.58004  0.58004     C
O          0.5  0.59288  0.44995     O
O          0.5  0.59288  0.55005     O
C          0.5  0.59788  0.35767     C
C          0.5  0.59788  0.64233     C
C          0.5   0.6074   0.3926     C
C          0.5   0.6074   0.6074     C
H          0.5   0.6172   0.3082     H
H          0.5   0.6172   0.6918     H
C          0.5  0.62349  0.33206     C
C          0.5  0.62349  0.66794     C
C          0.5  0.64233  0.40212     C
C          0.5  0.64233  0.59788     C
H          0.5   0.6487    0.426     H
H          0.5   0.6487    0.574     H
C          0.5  0.65841  0.34159     C
C          0.5  0.65841  0.65841     C
C          0.5  0.66794  0.37651     C
C          0.5  0.66794  0.62349     C
C          0.5  0.68589  0.31411     C
C          0.5  0.68589  0.68589     C
H          0.5   0.6918   0.3828     H
H          0.5   0.6918   0.6172     H
C          0.5   0.7083   0.2917     C
C          0.5   0.7083   0.7083     C
C       0.5107  0.23318  0.26544     C
C       0.5107  0.23318  0.73456     C
C       0.5107  0.26544  0.23318     C
C       0.5107  0.26544  0.76682     C
C       0.5107  0.73456  0.23318     C
C       0.5107  0.73456  0.76682     C
C       0.5107  0.76682  0.26544     C
C       0.5107  0.76682  0.73456     C
H       0.5158   0.1595   0.2221     H
H       0.5158   0.1595   0.7779     H
H       0.5158   0.2221   0.1595     H
H       0.5158   0.2221   0.8405     H
H       0.5158   0.7779   0.1595     H
H       0.5158   0.7779   0.8405     H
H       0.5158   0.8405   0.2221     H
H       0.5158   0.8405   0.7779     H
H       0.5186   0.1622   0.2627     H
H       0.5186   0.1622   0.7373     H
H       0.5186   0.2627   0.1622     H
H       0.5186   0.2627   0.8378     H
H       0.5186   0.7373   0.1622     H
H       0.5186   0.7373   0.8378     H
H       0.5186   0.8378   0.2627     H
H       0.5186   0.8378   0.7373     H
C       0.5204  0.21438  0.21438     C
C       0.5204  0.21438  0.78562     C
C       0.5204  0.78562  0.21438     C
C       0.5204  0.78562  0.78562     C
H       0.5214   0.0983   0.1679     H
H       0.5214   0.0983   0.8321     H
H       0.5214   0.1679   0.0983     H
H       0.5214   0.1679   0.9017     H
H       0.5214   0.8321   0.0983     H
H       0.5214   0.8321   0.9017     H
H       0.5214   0.9017   0.1679     H
H       0.5214   0.9017   0.8321     H
H       0.5233   0.0301   0.1799     H
H       0.5233   0.0301   0.8201     H
C       0.5233  0.17384   0.2412     C
C       0.5233  0.17384   0.7588     C
H       0.5233   0.1799   0.0301     H
H       0.5233   0.1799   0.9699     H
C       0.5233   0.2412  0.17384     C
C       0.5233   0.2412  0.82616     C
C       0.5233   0.7588  0.17384     C
C       0.5233   0.7588  0.82616     C
H       0.5233   0.8201   0.0301     H
H       0.5233   0.8201   0.9699     H
C       0.5233  0.82616   0.2412     C
C       0.5233  0.82616   0.7588     C
H       0.5233   0.9699   0.1799     H
H       0.5233   0.9699   0.8201     H
C       0.5276  0.18756  0.18756     C
C       0.5276  0.18756  0.81244     C
H       0.5276   0.2288   0.2833     H
H       0.5276   0.2288   0.7167     H
H       0.5276   0.2833   0.2288     H
H       0.5276   0.2833   0.7712     H
H       0.5276   0.7167   0.2288     H
H       0.5276   0.7167   0.7712     H
H       0.5276   0.7712   0.2833     H
H       0.5276   0.7712   0.7167     H
C       0.5276  0.81244  0.18756     C
C       0.5276  0.81244  0.81244     C
H       0.5289   0.0554   0.1249     H
H       0.5289   0.0554   0.8751     H
H       0.5289   0.1249   0.0554     H
H       0.5289   0.1249   0.9446     H
H       0.5289   0.8751   0.0554     H
H       0.5289   0.8751   0.9446     H
H       0.5289   0.9446   0.1249     H
H       0.5289   0.9446   0.8751     H
C        0.531  0.10446   0.1456     C
C        0.531  0.10446   0.8544     C
C        0.531   0.1456  0.10446     C
C        0.531   0.1456  0.89554     C
C        0.531   0.8544  0.10446     C
C        0.531   0.8544  0.89554     C
C        0.531  0.89554   0.1456     C
C        0.531  0.89554   0.8544     C
C       0.5315  0.23874  0.27104     C
C       0.5315  0.23874  0.72896     C
C       0.5315  0.27104  0.23874     C
C       0.5315  0.27104  0.76126     C
C       0.5315  0.72896  0.23874     C
C       0.5315  0.72896  0.76126     C
C       0.5315  0.76126  0.27104     C
C       0.5315  0.76126  0.72896     C
O      0.53158  0.46842  0.46842     O
O      0.53158  0.46842  0.53158     O
O      0.53158  0.53158  0.46842     O
O      0.53158  0.53158  0.53158     O
H       0.5327      0.0    0.036     H
H       0.5327      0.0    0.964     H
H       0.5327    0.036      0.0     H
H       0.5327    0.964      0.0     H
H       0.5345   0.2356    0.324     H
H       0.5345   0.2356    0.676     H
H       0.5345    0.324   0.2356     H
H       0.5345    0.324   0.7644     H
H       0.5345    0.676   0.2356     H
H       0.5345    0.676   0.7644     H
H       0.5345   0.7644    0.324     H
H       0.5345   0.7644    0.676     H
C       0.5354  0.07908   0.1202     C
C       0.5354  0.07908   0.8798     C
C       0.5354   0.1202  0.07908     C
C       0.5354   0.1202  0.92092     C
C       0.5354   0.8798  0.07908     C
C       0.5354   0.8798  0.92092     C
C       0.5354  0.92092   0.1202     C
C       0.5354  0.92092   0.8798     C
C       0.5356  0.16608  0.16608     C
C       0.5356  0.16608  0.83392     C
C       0.5356  0.83392  0.16608     C
C       0.5356  0.83392  0.83392     C
C       0.5382  0.21361  0.24589     C
C       0.5382  0.21361  0.75411     C
C       0.5382  0.24589  0.21361     C
C       0.5382  0.24589  0.78639     C
C       0.5382  0.75411  0.21361     C
C       0.5382  0.75411  0.78639     C
C       0.5382  0.78639  0.24589     C
C       0.5382  0.78639  0.75411     C
C       0.5404  0.13871  0.13871     C
C       0.5404  0.13871  0.86129     C
C       0.5404  0.86129  0.13871     C
C       0.5404  0.86129  0.86129     C
N        0.541      0.0  0.05737     N
N        0.541      0.0  0.94263     N
N        0.541  0.05737      0.0     N
N        0.541  0.94263      0.0     N
H       0.5478   0.1782   0.2392     H
H       0.5478   0.1782   0.7608     H
H       0.5478   0.2392   0.1782     H
H       0.5478   0.2392   0.8218     H
H       0.5478   0.7608   0.1782     H
H       0.5478   0.7608   0.8218     H
H       0.5478   0.8218   0.2392     H
H       0.5478   0.8218   0.7608     H
C       0.5487   0.0298   0.1777     C
C       0.5487   0.0298   0.8223     C
C       0.5487   0.1777   0.0298     C
C       0.5487   0.1777   0.9702     C
C       0.5487   0.8223   0.0298     C
C       0.5487   0.8223   0.9702     C
C       0.5487   0.9702   0.1777     C
C       0.5487   0.9702   0.8223     C
C       0.5491 0.030589  0.07819     C
C       0.5491 0.030589  0.92181     C
C       0.5491  0.07819 0.030589     C
C       0.5491  0.07819 0.969411     C
C       0.5491  0.92181 0.030589     C
C       0.5491  0.92181 0.969411     C
C       0.5491 0.969411  0.07819     C
C       0.5491 0.969411  0.92181     C
C       0.5493  0.08795  0.08796     C
C       0.5493  0.08796  0.91205     C
C       0.5493  0.91204  0.08795     C
C       0.5493  0.91205  0.91204     C
O      0.55005  0.40712      0.5     O
O      0.55005      0.5  0.40712     O
O      0.55005      0.5  0.59288     O
O      0.55005  0.59288      0.5     O
C       0.5508   0.2379  0.30522     C
C       0.5508   0.2379  0.69478     C
C       0.5508  0.30522   0.2379     C
C       0.5508  0.30522   0.7621     C
C       0.5508  0.69478   0.2379     C
C       0.5508  0.69478   0.7621     C
C       0.5508   0.7621  0.30522     C
C       0.5508   0.7621  0.69478     C
C       0.5509  0.01762  0.11092     C
C       0.5509  0.01762  0.88908     C
C       0.5509  0.11092  0.01762     C
C       0.5509  0.11092  0.98238     C
C       0.5509  0.88908  0.01762     C
C       0.5509  0.88908  0.98238     C
C       0.5509  0.98238  0.11092     C
C       0.5509  0.98238  0.88908     C
C       0.5534  0.06402  0.06402     C
C       0.5534  0.06402  0.93598     C
C       0.5534  0.93598  0.06402     C
C       0.5534  0.93598  0.93598     C
C       0.5543   0.1066  0.14758     C
C       0.5543   0.1066  0.85242     C
C       0.5543  0.14758   0.1066     C
C       0.5543  0.14758   0.8934     C
C       0.5543  0.85242   0.1066     C
C       0.5543  0.85242   0.8934     C
C       0.5543   0.8934  0.14758     C
C       0.5543   0.8934  0.85242     C
H       0.5549   0.0645   0.1347     H
H       0.5549   0.0645   0.8653     H
H       0.5549   0.1347   0.0645     H
H       0.5549   0.1347   0.9355     H
H       0.5549   0.8653   0.0645     H
H       0.5549   0.8653   0.9355     H
H       0.5549   0.9355   0.1347     H
H       0.5549   0.9355   0.8653     H
H        0.555   0.1957   0.2503     H
H        0.555   0.1957   0.7497     H
H        0.555   0.2503   0.1957     H
H        0.555   0.2503   0.8043     H
H        0.555   0.7497   0.1957     H
H        0.555   0.7497   0.8043     H
H        0.555   0.8043   0.2503     H
H        0.555   0.8043   0.7497     H
H       0.5573   0.0063   0.1822     H
H       0.5573   0.0063   0.8178     H
H       0.5573   0.1822   0.0063     H
H       0.5573   0.1822   0.9937     H
H       0.5573   0.8178   0.0063     H
H       0.5573   0.8178   0.9937     H
H       0.5573   0.9937   0.1822     H
H       0.5573   0.9937   0.8178     H
C       0.5587   0.0812   0.1222     C
C       0.5587   0.0812   0.8778     C
C       0.5587   0.1222   0.0812     C
C       0.5587   0.1222   0.9188     C
C       0.5587   0.8778   0.0812     C
C       0.5587   0.8778   0.9188     C
C       0.5587   0.9188   0.1222     C
C       0.5587   0.9188   0.8778     C
C       0.5588  0.04076  0.14143     C
C       0.5588  0.04076  0.85857     C
H       0.5588    0.046   0.1946     H
H       0.5588    0.046   0.8054     H
C       0.5588  0.14143  0.04076     C
C       0.5588  0.14143  0.95924     C
H       0.5588   0.1946    0.046     H
H       0.5588   0.1946    0.954     H
H       0.5588   0.8054    0.046     H
H       0.5588   0.8054    0.954     H
C       0.5588  0.85857  0.04076     C
C       0.5588  0.85857  0.95924     C
H       0.5588    0.954   0.1946     H
H       0.5588    0.954   0.8054     H
C       0.5588  0.95924  0.14143     C
C       0.5588  0.95924  0.85857     C
H       0.5609    0.102   0.1712     H
H       0.5609    0.102   0.8288     H
H       0.5609   0.1712    0.102     H
H       0.5609   0.1712    0.898     H
H       0.5609   0.8288    0.102     H
H       0.5609   0.8288    0.898     H
H       0.5609    0.898   0.1712     H
H       0.5609    0.898   0.8288     H
H       0.5638   0.2591    0.308     H
H       0.5638   0.2591    0.692     H
H       0.5638    0.308   0.2591     H
H       0.5638    0.308   0.7409     H
H       0.5638    0.692   0.2591     H
H       0.5638    0.692   0.7409     H
H       0.5638   0.7409    0.308     H
H       0.5638   0.7409    0.692     H
Zr     0.56444      0.5      0.5    Zr
H       0.5665   0.2185   0.3054     H
H       0.5665   0.2185   0.6946     H
H       0.5665   0.3054   0.2185     H
H       0.5665   0.3054   0.7815     H
H       0.5665   0.6946   0.2185     H
H       0.5665   0.6946   0.7815     H
H       0.5665   0.7815   0.3054     H
H       0.5665   0.7815   0.6946     H
H       0.5683    0.059   0.1284     H
H       0.5683    0.059   0.8716     H
H       0.5683   0.1284    0.059     H
H       0.5683   0.1284    0.941     H
H       0.5683   0.8716    0.059     H
H       0.5683   0.8716    0.941     H
H       0.5683    0.941   0.1284     H
H       0.5683    0.941   0.8716     H
H        0.574   0.3513      0.5     H
H        0.574      0.5   0.3513     H
H        0.574      0.5   0.6487     H
H        0.574   0.6487      0.5     H
C      0.58004  0.41996      0.5     C
C      0.58004      0.5  0.41996     C
C      0.58004      0.5  0.58004     C
C      0.58004  0.58004      0.5     C
H       0.5833   0.0383   0.1458     H
H       0.5833   0.0383   0.8542     H
H       0.5833   0.1458   0.0383     H
H       0.5833   0.1458   0.9617     H
H       0.5833   0.8542   0.0383     H
H       0.5833   0.8542   0.9617     H
H       0.5833   0.9617   0.1458     H
H       0.5833   0.9617   0.8542     H
O      0.59288  0.44995      0.5     O
O      0.59288      0.5  0.44995     O
O      0.59288      0.5  0.55005     O
O      0.59288  0.55005      0.5     O
C      0.59788  0.35767      0.5     C
C      0.59788      0.5  0.35767     C
C      0.59788      0.5  0.64233     C
C      0.59788  0.64233      0.5     C
C       0.6074   0.3926      0.5     C
C       0.6074      0.5   0.3926     C
C       0.6074      0.5   0.6074     C
C       0.6074   0.6074      0.5     C
H       0.6172   0.3082      0.5     H
H       0.6172      0.5   0.3082     H
H       0.6172      0.5   0.6918     H
H       0.6172   0.6918      0.5     H
C      0.62349  0.33206      0.5     C
C      0.62349      0.5  0.33206     C
C      0.62349      0.5  0.66794     C
C      0.62349  0.66794      0.5     C
C      0.64233  0.40212      0.5     C
C      0.64233      0.5  0.40212     C
C      0.64233      0.5  0.59788     C
C      0.64233  0.59788      0.5     C
H       0.6487    0.426      0.5     H
H       0.6487      0.5    0.426     H
H       0.6487      0.5    0.574     H
H       0.6487    0.574      0.5     H
C      0.65841  0.34159      0.5     C
C      0.65841      0.5  0.34159     C
C      0.65841      0.5  0.65841     C
C      0.65841  0.65841      0.5     C
C      0.66794  0.37651      0.5     C
C      0.66794      0.5  0.37651     C
C      0.66794      0.5  0.62349     C
C      0.66794  0.62349      0.5     C
H        0.676   0.2356   0.4655     H
H        0.676   0.2356   0.5345     H
H        0.676   0.4655   0.2356     H
H        0.676   0.4655   0.7644     H
H        0.676   0.5345   0.2356     H
H        0.676   0.5345   0.7644     H
H        0.676   0.7644   0.4655     H
H        0.676   0.7644   0.5345     H
C      0.68589  0.31411      0.5     C
C      0.68589      0.5  0.31411     C
C      0.68589      0.5  0.68589     C
C      0.68589  0.68589      0.5     C
H       0.6918   0.3828      0.5     H
H       0.6918      0.5   0.3828     H
H       0.6918      0.5   0.6172     H
H       0.6918   0.6172      0.5     H
H        0.692   0.2591   0.4362     H
H        0.692   0.2591   0.5638     H
H        0.692   0.4362   0.2591     H
H        0.692   0.4362   0.7409     H
H        0.692   0.5638   0.2591     H
H        0.692   0.5638   0.7409     H
H        0.692   0.7409   0.4362     H
H        0.692   0.7409   0.5638     H
H       0.6946   0.2185   0.4335     H
H       0.6946   0.2185   0.5665     H
H       0.6946   0.4335   0.2185     H
H       0.6946   0.4335   0.7815     H
H       0.6946   0.5665   0.2185     H
H       0.6946   0.5665   0.7815     H
H       0.6946   0.7815   0.4335     H
H       0.6946   0.7815   0.5665     H
C      0.69478   0.2379   0.4492     C
C      0.69478   0.2379   0.5508     C
C      0.69478   0.4492   0.2379     C
C      0.69478   0.4492   0.7621     C
C      0.69478   0.5508   0.2379     C
C      0.69478   0.5508   0.7621     C
C      0.69478   0.7621   0.4492     C
C      0.69478   0.7621   0.5508     C
C       0.7083   0.2917      0.5     C
C       0.7083      0.5   0.2917     C
C       0.7083      0.5   0.7083     C
C       0.7083   0.7083      0.5     C
H       0.7167   0.2288   0.4724     H
H       0.7167   0.2288   0.5276     H
H       0.7167   0.4724   0.2288     H
H       0.7167   0.4724   0.7712     H
H       0.7167   0.5276   0.2288     H
H       0.7167   0.5276   0.7712     H
H       0.7167   0.7712   0.4724     H
H       0.7167   0.7712   0.5276     H
C      0.72896  0.23874   0.4685     C
C      0.72896  0.23874   0.5315     C
C      0.72896   0.4685  0.23874     C
C      0.72896   0.4685  0.76126     C
C      0.72896   0.5315  0.23874     C
C      0.72896   0.5315  0.76126     C
C      0.72896  0.76126   0.4685     C
C      0.72896  0.76126   0.5315     C
C      0.73456  0.23318   0.4893     C
C      0.73456  0.23318   0.5107     C
C      0.73456   0.4893  0.23318     C
C      0.73456   0.4893  0.76682     C
C      0.73456   0.5107  0.23318     C
C      0.73456   0.5107  0.76682     C
C      0.73456  0.76682   0.4893     C
C      0.73456  0.76682   0.5107     C
C      0.73531  0.26469  0.49291     C
C      0.73531  0.49291  0.26469     C
C      0.73531  0.49291  0.73531     C
C      0.73531  0.73531  0.49291     C
H       0.7373   0.1622   0.4814     H
H       0.7373   0.1622   0.5186     H
H       0.7373   0.4814   0.1622     H
H       0.7373   0.4814   0.8378     H
H       0.7373   0.5186   0.1622     H
H       0.7373   0.5186   0.8378     H
H       0.7373   0.8378   0.4814     H
H       0.7373   0.8378   0.5186     H
H       0.7409    0.308   0.4362     H
H       0.7409    0.308   0.5638     H
H       0.7409   0.4362    0.308     H
H       0.7409   0.4362    0.692     H
H       0.7409   0.5638    0.308     H
H       0.7409   0.5638    0.692     H
H       0.7409    0.692   0.4362     H
H       0.7409    0.692   0.5638     H
H       0.7497   0.1957    0.445     H
H       0.7497   0.1957    0.555     H
H       0.7497    0.445   0.1957     H
H       0.7497    0.445   0.8043     H
H       0.7497    0.555   0.1957     H
H       0.7497    0.555   0.8043     H
H       0.7497   0.8043    0.445     H
H       0.7497   0.8043    0.555     H
C      0.75411  0.21361   0.4618     C
C      0.75411  0.21361   0.5382     C
C      0.75411   0.4618  0.21361     C
C      0.75411   0.4618  0.78639     C
C      0.75411   0.5382  0.21361     C
C      0.75411   0.5382  0.78639     C
C      0.75411  0.78639   0.4618     C
C      0.75411  0.78639   0.5382     C
C       0.7588  0.17384   0.4767     C
C       0.7588  0.17384   0.5233     C
C       0.7588   0.4767  0.17384     C
C       0.7588   0.4767  0.82616     C
C       0.7588   0.5233  0.17384     C
C       0.7588   0.5233  0.82616     C
C       0.7588  0.82616   0.4767     C
C       0.7588  0.82616   0.5233     C
C      0.75969  0.20803    0.496     C
C      0.75969    0.496  0.20803     C
C      0.75969    0.496  0.79197     C
C      0.75969  0.79197    0.496     C
H       0.7608   0.1782   0.4522     H
H       0.7608   0.1782   0.5478     H
H       0.7608   0.4522   0.1782     H
H       0.7608   0.4522   0.8218     H
H       0.7608   0.5478   0.1782     H
H       0.7608   0.5478   0.8218     H
H       0.7608   0.8218   0.4522     H
H       0.7608   0.8218   0.5478     H
C      0.76126  0.27104   0.4685     C
C      0.76126  0.27104   0.5315     C
C      0.76126   0.4685  0.27104     C
C      0.76126   0.4685  0.72896     C
C      0.76126   0.5315  0.27104     C
C      0.76126   0.5315  0.72896     C
C      0.76126  0.72896   0.4685     C
C      0.76126  0.72896   0.5315     C
C       0.7621  0.30522   0.4492     C
C       0.7621  0.30522   0.5508     C
C       0.7621   0.4492  0.30522     C
C       0.7621   0.4492  0.69478     C
C       0.7621   0.5508  0.30522     C
C       0.7621   0.5508  0.69478     C
C       0.7621  0.69478   0.4492     C
C       0.7621  0.69478   0.5508     C
H       0.7644    0.324   0.4655     H
H       0.7644    0.324   0.5345     H
H       0.7644   0.4655    0.324     H
H       0.7644   0.4655    0.676     H
H       0.7644   0.5345    0.324     H
H       0.7644   0.5345    0.676     H
H       0.7644    0.676   0.4655     H
H       0.7644    0.676   0.5345     H
C      0.76682  0.26544   0.4893     C
C      0.76682  0.26544   0.5107     C
C      0.76682   0.4893  0.26544     C
C      0.76682   0.4893  0.73456     C
C      0.76682   0.5107  0.26544     C
C      0.76682   0.5107  0.73456     C
C      0.76682  0.73456   0.4893     C
C      0.76682  0.73456   0.5107     C
H       0.7712   0.2833   0.4724     H
H       0.7712   0.2833   0.5276     H
H       0.7712   0.4724   0.2833     H
H       0.7712   0.4724   0.7167     H
H       0.7712   0.5276   0.2833     H
H       0.7712   0.5276   0.7167     H
H       0.7712   0.7167   0.4724     H
H       0.7712   0.7167   0.5276     H
H       0.7779   0.1595   0.4842     H
H       0.7779   0.1595   0.5158     H
H       0.7779   0.4842   0.1595     H
H       0.7779   0.4842   0.8405     H
H       0.7779   0.5158   0.1595     H
H       0.7779   0.5158   0.8405     H
H       0.7779   0.8405   0.4842     H
H       0.7779   0.8405   0.5158     H
H       0.7815   0.3054   0.4335     H
H       0.7815   0.3054   0.5665     H
H       0.7815   0.4335   0.3054     H
H       0.7815   0.4335   0.6946     H
H       0.7815   0.5665   0.3054     H
H       0.7815   0.5665   0.6946     H
H       0.7815   0.6946   0.4335     H
H       0.7815   0.6946   0.5665     H
C      0.78562  0.21438   0.4796     C
C      0.78562  0.21438   0.5204     C
C      0.78562   0.4796  0.21438     C
C      0.78562   0.4796  0.78562     C
C      0.78562   0.5204  0.21438     C
C      0.78562   0.5204  0.78562     C
C      0.78562  0.78562   0.4796     C
C      0.78562  0.78562   0.5204     C
C      0.78639  0.24589   0.4618     C
C      0.78639  0.24589   0.5382     C
C      0.78639   0.4618  0.24589     C
C      0.78639   0.4618  0.75411     C
C      0.78639   0.5382  0.24589     C
C      0.78639   0.5382  0.75411     C
C      0.78639  0.75411   0.4618     C
C      0.78639  0.75411   0.5382     C
C      0.79197  0.24031    0.496     C
C      0.79197    0.496  0.24031     C
C      0.79197    0.496  0.75969     C
C      0.79197  0.75969    0.496     C
H       0.8043   0.2503    0.445     H
H       0.8043   0.2503    0.555     H
H       0.8043    0.445   0.2503     H
H       0.8043    0.445   0.7497     H
H       0.8043    0.555   0.2503     H
H       0.8043    0.555   0.7497     H
H       0.8043   0.7497    0.445     H
H       0.8043   0.7497    0.555     H
H       0.8054    0.046   0.4412     H
H       0.8054    0.046   0.5588     H
H       0.8054   0.4412    0.046     H
H       0.8054   0.4412    0.954     H
H       0.8054   0.5588    0.046     H
H       0.8054   0.5588    0.954     H
H       0.8054    0.954   0.4412     H
H       0.8054    0.954   0.5588     H
C      0.81244  0.18756   0.4724     C
C      0.81244  0.18756   0.5276     C
C      0.81244   0.4724  0.18756     C
C      0.81244   0.4724  0.81244     C
C      0.81244   0.5276  0.18756     C
C      0.81244   0.5276  0.81244     C
C      0.81244  0.81244   0.4724     C
C      0.81244  0.81244   0.5276     C
H       0.8178   0.0063   0.4427     H
H       0.8178   0.0063   0.5573     H
H       0.8178   0.4427   0.0063     H
H       0.8178   0.4427   0.9937     H
H       0.8178   0.5573   0.0063     H
H       0.8178   0.5573   0.9937     H
H       0.8178   0.9937   0.4427     H
H       0.8178   0.9937   0.5573     H
H       0.8201   0.0301   0.4767     H
H       0.8201   0.0301   0.5233     H
H       0.8201   0.4767   0.0301     H
H       0.8201   0.4767   0.9699     H
H       0.8201   0.5233   0.0301     H
H       0.8201   0.5233   0.9699     H
H       0.8201   0.9699   0.4767     H
H       0.8201   0.9699   0.5233     H
H       0.8218   0.2392   0.4522     H
H       0.8218   0.2392   0.5478     H
H       0.8218   0.4522   0.2392     H
H       0.8218   0.4522   0.7608     H
H       0.8218   0.5478   0.2392     H
H       0.8218   0.5478   0.7608     H
H       0.8218   0.7608   0.4522     H
H       0.8218   0.7608   0.5478     H
C       0.8223   0.0298   0.4513     C
C       0.8223   0.0298   0.5487     C
C       0.8223   0.4513   0.0298     C
C       0.8223   0.4513   0.9702     C
C       0.8223   0.5487   0.0298     C
C       0.8223   0.5487   0.9702     C
C       0.8223   0.9702   0.4513     C
C       0.8223   0.9702   0.5487     C
C      0.82616   0.2412   0.4767     C
C      0.82616   0.2412   0.5233     C
C      0.82616   0.4767   0.2412     C
C      0.82616   0.4767   0.7588     C
C      0.82616   0.5233   0.2412     C
C      0.82616   0.5233   0.7588     C
C      0.82616   0.7588   0.4767     C
C      0.82616   0.7588   0.5233     C
H       0.8288    0.102   0.4391     H
H       0.8288    0.102   0.5609     H
H       0.8288   0.4391    0.102     H
H       0.8288   0.4391    0.898     H
H       0.8288   0.5609    0.102     H
H       0.8288   0.5609    0.898     H
H       0.8288    0.898   0.4391     H
H       0.8288    0.898   0.5609     H
H       0.8321   0.0983   0.4786     H
H       0.8321   0.0983   0.5214     H
H       0.8321   0.4786   0.0983     H
H       0.8321   0.4786   0.9017     H
H       0.8321   0.5214   0.0983     H
H       0.8321   0.5214   0.9017     H
H       0.8321   0.9017   0.4786     H
H       0.8321   0.9017   0.5214     H
C      0.83392  0.16608   0.4644     C
C      0.83392  0.16608   0.5356     C
C      0.83392   0.4644  0.16608     C
C      0.83392   0.4644  0.83392     C
C      0.83392   0.5356  0.16608     C
C      0.83392   0.5356  0.83392     C
C      0.83392  0.83392   0.4644     C
C      0.83392  0.83392   0.5356     C
H       0.8378   0.2627   0.4814     H
H       0.8378   0.2627   0.5186     H
H       0.8378   0.4814   0.2627     H
H       0.8378   0.4814   0.7373     H
H       0.8378   0.5186   0.2627     H
H       0.8378   0.5186   0.7373     H
H       0.8378   0.7373   0.4814     H
H       0.8378   0.7373   0.5186     H
H       0.8405   0.2221   0.4842     H
H       0.8405   0.2221   0.5158     H
H       0.8405   0.4842   0.2221     H
H       0.8405   0.4842   0.7779     H
H       0.8405   0.5158   0.2221     H
H       0.8405   0.5158   0.7779     H
H       0.8405   0.7779   0.4842     H
H       0.8405   0.7779   0.5158     H
C      0.85242   0.1066   0.4457     C
C      0.85242   0.1066   0.5543     C
C      0.85242   0.4457   0.1066     C
C      0.85242   0.4457   0.8934     C
C      0.85242   0.5543   0.1066     C
C      0.85242   0.5543   0.8934     C
C      0.85242   0.8934   0.4457     C
C      0.85242   0.8934   0.5543     C
H       0.8542   0.0383   0.4167     H
H       0.8542   0.0383   0.5833     H
H       0.8542   0.4167   0.0383     H
H       0.8542   0.4167   0.9617     H
H       0.8542   0.5833   0.0383     H
H       0.8542   0.5833   0.9617     H
H       0.8542   0.9617   0.4167     H
H       0.8542   0.9617   0.5833     H
C       0.8544  0.10446    0.469     C
C       0.8544  0.10446    0.531     C
C       0.8544    0.469  0.10446     C
C       0.8544    0.469  0.89554     C
C       0.8544    0.531  0.10446     C
C       0.8544    0.531  0.89554     C
C       0.8544  0.89554    0.469     C
C       0.8544  0.89554    0.531     C
C      0.85857  0.04076   0.4412     C
C      0.85857  0.04076   0.5588     C
C      0.85857   0.4412  0.04076     C
C      0.85857   0.4412  0.95924     C
C      0.85857   0.5588  0.04076     C
C      0.85857   0.5588  0.95924     C
C      0.85857  0.95924   0.4412     C
C      0.85857  0.95924   0.5588     C
C      0.86129  0.13871   0.4596     C
C      0.86129  0.13871   0.5404     C
C      0.86129   0.4596  0.13871     C
C      0.86129   0.4596  0.86129     C
C      0.86129   0.5404  0.13871     C
C      0.86129   0.5404  0.86129     C
C      0.86129  0.86129   0.4596     C
C      0.86129  0.86129   0.5404     C
H       0.8653   0.0645   0.4451     H
H       0.8653   0.0645   0.5549     H
H       0.8653   0.4451   0.0645     H
H       0.8653   0.4451   0.9355     H
H       0.8653   0.5549   0.0645     H
H       0.8653   0.5549   0.9355     H
H       0.8653   0.9355   0.4451     H
H       0.8653   0.9355   0.5549     H
H       0.8716    0.059   0.4317     H
H       0.8716    0.059   0.5683     H
H       0.8716   0.4317    0.059     H
H       0.8716   0.4317    0.941     H
H       0.8716   0.5683    0.059     H
H       0.8716   0.5683    0.941     H
H       0.8716    0.941   0.4317     H
H       0.8716    0.941   0.5683     H
H       0.8751   0.0554   0.4711     H
H       0.8751   0.0554   0.5289     H
H       0.8751   0.4711   0.0554     H
H       0.8751   0.4711   0.9446     H
H       0.8751   0.5289   0.0554     H
H       0.8751   0.5289   0.9446     H
H       0.8751   0.9446   0.4711     H
H       0.8751   0.9446   0.5289     H
C       0.8778   0.0812   0.4413     C
C       0.8778   0.0812   0.5587     C
C       0.8778   0.4413   0.0812     C
C       0.8778   0.4413   0.9188     C
C       0.8778   0.5587   0.0812     C
C       0.8778   0.5587   0.9188     C
C       0.8778   0.9188   0.4413     C
C       0.8778   0.9188   0.5587     C
C       0.8798  0.07908   0.4646     C
C       0.8798  0.07908   0.5354     C
C       0.8798   0.4646  0.07908     C
C       0.8798   0.4646  0.92092     C
C       0.8798   0.5354  0.07908     C
C       0.8798   0.5354  0.92092     C
C       0.8798  0.92092   0.4646     C
C       0.8798  0.92092   0.5354     C
C      0.88908  0.01762   0.4491     C
C      0.88908  0.01762   0.5509     C
C      0.88908   0.4491  0.01762     C
C      0.88908   0.4491  0.98238     C
C      0.88908   0.5509  0.01762     C
C      0.88908   0.5509  0.98238     C
C      0.88908  0.98238   0.4491     C
C      0.88908  0.98238   0.5509     C
C       0.8934  0.14758   0.4457     C
C       0.8934  0.14758   0.5543     C
C       0.8934   0.4457  0.14758     C
C       0.8934   0.4457  0.85242     C
C       0.8934   0.5543  0.14758     C
C       0.8934   0.5543  0.85242     C
C       0.8934  0.85242   0.4457     C
C       0.8934  0.85242   0.5543     C
C      0.89554   0.1456    0.469     C
C      0.89554   0.1456    0.531     C
C      0.89554    0.469   0.1456     C
C      0.89554    0.469   0.8544     C
C      0.89554    0.531   0.1456     C
C      0.89554    0.531   0.8544     C
C      0.89554   0.8544    0.469     C
C      0.89554   0.8544    0.531     C
H        0.898   0.1712   0.4391     H
H        0.898   0.1712   0.5609     H
H        0.898   0.4391   0.1712     H
H        0.898   0.4391   0.8288     H
H        0.898   0.5609   0.1712     H
H        0.898   0.5609   0.8288     H
H        0.898   0.8288   0.4391     H
H        0.898   0.8288   0.5609     H
H       0.9017   0.1679   0.4786     H
H       0.9017   0.1679   0.5214     H
H       0.9017   0.4786   0.1679     H
H       0.9017   0.4786   0.8321     H
H       0.9017   0.5214   0.1679     H
H       0.9017   0.5214   0.8321     H
H       0.9017   0.8321   0.4786     H
H       0.9017   0.8321   0.5214     H
C      0.91204  0.08795   0.5493     C
C      0.91204   0.4507  0.08795     C
C      0.91204   0.5493  0.91205     C
C      0.91204  0.91205   0.4507     C
C      0.91205  0.08796   0.4507     C
C      0.91205   0.4507  0.91204     C
C      0.91205   0.5493  0.08796     C
C      0.91205  0.91204   0.5493     C
C       0.9188   0.1222   0.4413     C
C       0.9188   0.1222   0.5587     C
C       0.9188   0.4413   0.1222     C
C       0.9188   0.4413   0.8778     C
C       0.9188   0.5587   0.1222     C
C       0.9188   0.5587   0.8778     C
C       0.9188   0.8778   0.4413     C
C       0.9188   0.8778   0.5587     C
C      0.92092   0.1202   0.4646     C
C      0.92092   0.1202   0.5354     C
C      0.92092   0.4646   0.1202     C
C      0.92092   0.4646   0.8798     C
C      0.92092   0.5354   0.1202     C
C      0.92092   0.5354   0.8798     C
C      0.92092   0.8798   0.4646     C
C      0.92092   0.8798   0.5354     C
C      0.92181 0.030589   0.4509     C
C      0.92181 0.030589   0.5491     C
C      0.92181   0.4509 0.030589     C
C      0.92181   0.4509 0.969411     C
C      0.92181   0.5491 0.030589     C
C      0.92181   0.5491 0.969411     C
C      0.92181 0.969411   0.4509     C
C      0.92181 0.969411   0.5491     C
H       0.9355   0.1347   0.4451     H
H       0.9355   0.1347   0.5549     H
H       0.9355   0.4451   0.1347     H
H       0.9355   0.4451   0.8653     H
H       0.9355   0.5549   0.1347     H
H       0.9355   0.5549   0.8653     H
H       0.9355   0.8653   0.4451     H
H       0.9355   0.8653   0.5549     H
C      0.93598  0.06402   0.4466     C
C      0.93598  0.06402   0.5534     C
C      0.93598   0.4466  0.06402     C
C      0.93598   0.4466  0.93598     C
C      0.93598   0.5534  0.06402     C
C      0.93598   0.5534  0.93598     C
C      0.93598  0.93598   0.4466     C
C      0.93598  0.93598   0.5534     C
H        0.941   0.1284   0.4317     H
H        0.941   0.1284   0.5683     H
H        0.941   0.4317   0.1284     H
H        0.941   0.4317   0.8716     H
H        0.941   0.5683   0.1284     H
H        0.941   0.5683   0.8716     H
H        0.941   0.8716   0.4317     H
H        0.941   0.8716   0.5683     H
N      0.94263      0.0    0.459     N
N      0.94263      0.0    0.541     N
N      0.94263    0.459      0.0     N
N      0.94263    0.541      0.0     N
H       0.9446   0.1249   0.4711     H
H       0.9446   0.1249   0.5289     H
H       0.9446   0.4711   0.1249     H
H       0.9446   0.4711   0.8751     H
H       0.9446   0.5289   0.1249     H
H       0.9446   0.5289   0.8751     H
H       0.9446   0.8751   0.4711     H
H       0.9446   0.8751   0.5289     H
H        0.954   0.1946   0.4412     H
H        0.954   0.1946   0.5588     H
H        0.954   0.4412   0.1946     H
H        0.954   0.4412   0.8054     H
H        0.954   0.5588   0.1946     H
H        0.954   0.5588   0.8054     H
H        0.954   0.8054   0.4412     H
H        0.954   0.8054   0.5588     H
C      0.95924  0.14143   0.4412     C
C      0.95924  0.14143   0.5588     C
C      0.95924   0.4412  0.14143     C
C      0.95924   0.4412  0.85857     C
C      0.95924   0.5588  0.14143     C
C      0.95924   0.5588  0.85857     C
C      0.95924  0.85857   0.4412     C
C      0.95924  0.85857   0.5588     C
H       0.9617   0.1458   0.4167     H
H       0.9617   0.1458   0.5833     H
H       0.9617   0.4167   0.1458     H
H       0.9617   0.4167   0.8542     H
H       0.9617   0.5833   0.1458     H
H       0.9617   0.5833   0.8542     H
H       0.9617   0.8542   0.4167     H
H       0.9617   0.8542   0.5833     H
H        0.964      0.0   0.4673     H
H        0.964      0.0   0.5327     H
H        0.964   0.4673      0.0     H
H        0.964   0.5327      0.0     H
C     0.969411  0.07819   0.4509     C
C     0.969411  0.07819   0.5491     C
C     0.969411   0.4509  0.07819     C
C     0.969411   0.4509  0.92181     C
C     0.969411   0.5491  0.07819     C
C     0.969411   0.5491  0.92181     C
C     0.969411  0.92181   0.4509     C
C     0.969411  0.92181   0.5491     C
H       0.9699   0.1799   0.4767     H
H       0.9699   0.1799   0.5233     H
H       0.9699   0.4767   0.1799     H
H       0.9699   0.4767   0.8201     H
H       0.9699   0.5233   0.1799     H
H       0.9699   0.5233   0.8201     H
H       0.9699   0.8201   0.4767     H
H       0.9699   0.8201   0.5233     H
C       0.9702   0.1777   0.4513     C
C       0.9702   0.1777   0.5487     C
C       0.9702   0.4513   0.1777     C
C       0.9702   0.4513   0.8223     C
C       0.9702   0.5487   0.1777     C
C       0.9702   0.5487   0.8223     C
C       0.9702   0.8223   0.4513     C
C       0.9702   0.8223   0.5487     C
C      0.98238  0.11092   0.4491     C
C      0.98238  0.11092   0.5509     C
C      0.98238   0.4491  0.11092     C
C      0.98238   0.4491  0.88908     C
C      0.98238   0.5509  0.11092     C
C      0.98238   0.5509  0.88908     C
C      0.98238  0.88908   0.4491     C
C      0.98238  0.88908   0.5509     C
H       0.9937   0.1822   0.4427     H
H       0.9937   0.1822   0.5573     H
H       0.9937   0.4427   0.1822     H
H       0.9937   0.4427   0.8178     H
H       0.9937   0.5573   0.1822     H
H       0.9937   0.5573   0.8178     H
H       0.9937   0.8178   0.4427     H
H       0.9937   0.8178   0.5573     H
