data_I
_chemical_name_common  '/Users/gianmarcoterrones/Research/MOFs/MOF_structures/water_stability_work_extra_structs/cleaned_from_CCDC/TOVGAO'
_cell_length_a 25.34680
_cell_length_b 25.34680
_cell_length_c 25.34680
_cell_angle_alpha 90.00000
_cell_angle_beta  90.00000
_cell_angle_gamma 90.00000
_space_group_name_H-M_alt      'P 1'


loop_
_space_group_symop_operation_xyz
  'x, y, z' 

loop_
_atom_site_label
_atom_site_fract_x
_atom_site_fract_y
_atom_site_fract_z
_atom_site_type_symbol
Ni         0.0      0.0   0.4718    Ni
Ni         0.0      0.0   0.5282    Ni
N          0.0    0.076   0.4729     N
N          0.0    0.076   0.5271     N
Ni         0.0   0.4718      0.0    Ni
N          0.0   0.4729    0.076     N
N          0.0   0.4729    0.924     N
N          0.0   0.5271    0.076     N
N          0.0   0.5271    0.924     N
Ni         0.0   0.5282      0.0    Ni
N          0.0    0.924   0.4729     N
N          0.0    0.924   0.5271     N
C       0.0269   0.1616   0.4697     C
C       0.0269   0.1616   0.5303     C
C       0.0269   0.4697   0.1616     C
C       0.0269   0.4697   0.8384     C
C       0.0269   0.5303   0.1616     C
C       0.0269   0.5303   0.8384     C
C       0.0269   0.8384   0.4697     C
C       0.0269   0.8384   0.5303     C
C        0.042   0.1104   0.4705     C
C        0.042   0.1104   0.5295     C
C        0.042   0.4705   0.1104     C
C        0.042   0.4705   0.8896     C
C        0.042   0.5295   0.1104     C
C        0.042   0.5295   0.8896     C
C        0.042   0.8896   0.4705     C
C        0.042   0.8896   0.5295     C
H       0.0422   0.1894   0.4632     H
H       0.0422   0.1894   0.5368     H
H       0.0422   0.4632   0.1894     H
H       0.0422   0.4632   0.8106     H
H       0.0422   0.5368   0.1894     H
H       0.0422   0.5368   0.8106     H
H       0.0422   0.8106   0.4632     H
H       0.0422   0.8106   0.5368     H
N        0.076      0.0   0.4729     N
N        0.076      0.0   0.5271     N
N        0.076   0.4729      0.0     N
N        0.076   0.5271      0.0     N
C       0.0954   0.0954   0.4689     C
C       0.0954   0.0954   0.5311     C
C       0.0954   0.4689   0.0954     C
C       0.0954   0.4689   0.9046     C
C       0.0954   0.5311   0.0954     C
C       0.0954   0.5311   0.9046     C
C       0.0954   0.9046   0.4689     C
C       0.0954   0.9046   0.5311     C
C       0.1104    0.042   0.4705     C
C       0.1104    0.042   0.5295     C
C       0.1104   0.4705    0.042     C
C       0.1104   0.4705    0.958     C
C       0.1104   0.5295    0.042     C
C       0.1104   0.5295    0.958     C
C       0.1104    0.958   0.4705     C
C       0.1104    0.958   0.5295     C
H       0.1333   0.1334   0.5613     H
H       0.1333   0.4387   0.1334     H
H       0.1333   0.5613   0.8666     H
H       0.1333   0.8666   0.4387     H
H       0.1334   0.1333   0.4387     H
H       0.1334   0.4387   0.8667     H
H       0.1334   0.5613   0.1333     H
H       0.1334   0.8667   0.5613     H
C      0.13713  0.13713   0.4799     C
C      0.13713  0.13713   0.5201     C
C      0.13713   0.4799  0.13713     C
C      0.13713   0.4799  0.86287     C
C      0.13713   0.5201  0.13713     C
C      0.13713   0.5201  0.86287     C
C      0.13713  0.86287   0.4799     C
C      0.13713  0.86287   0.5201     C
H       0.1525   0.1525    0.403     H
H       0.1525   0.1525    0.597     H
H       0.1525    0.403   0.1525     H
H       0.1525    0.403   0.8475     H
H       0.1525    0.597   0.1525     H
H       0.1525    0.597   0.8475     H
H       0.1525   0.8475    0.403     H
H       0.1525   0.8475    0.597     H
C       0.1616   0.0269   0.4697     C
C       0.1616   0.0269   0.5303     C
C       0.1616   0.4697   0.0269     C
C       0.1616   0.4697   0.9731     C
C       0.1616   0.5303   0.0269     C
C       0.1616   0.5303   0.9731     C
C       0.1616   0.9731   0.4697     C
C       0.1616   0.9731   0.5303     C
C       0.1624   0.1624   0.4382     C
C       0.1624   0.1624   0.5618     C
C       0.1624   0.4382   0.1624     C
C       0.1624   0.4382   0.8376     C
C       0.1624   0.5618   0.1624     C
C       0.1624   0.5618   0.8376     C
C       0.1624   0.8376   0.4382     C
C       0.1624   0.8376   0.5618     C
C       0.1882   0.1882  0.45836     C
C       0.1882   0.1882  0.54164     C
C       0.1882  0.45836   0.1882     C
C       0.1882  0.45836   0.8118     C
C       0.1882  0.54164   0.1882     C
C       0.1882  0.54164   0.8118     C
C       0.1882   0.8118  0.45836     C
C       0.1882   0.8118  0.54164     C
H       0.1894   0.0422   0.4632     H
H       0.1894   0.0422   0.5368     H
H       0.1894   0.4632   0.0422     H
H       0.1894   0.4632   0.9578     H
H       0.1894   0.5368   0.0422     H
H       0.1894   0.5368   0.9578     H
H       0.1894   0.9578   0.4632     H
H       0.1894   0.9578   0.5368     H
H       0.1979    0.198   0.5769     H
H       0.1979   0.4231    0.198     H
H       0.1979   0.5769    0.802     H
H       0.1979    0.802   0.4231     H
H        0.198   0.1979   0.4231     H
H        0.198   0.4231   0.8021     H
H        0.198   0.5769   0.1979     H
H        0.198   0.8021   0.5769     H
H       0.2075   0.3182     0.48     H
H       0.2075   0.3182     0.52     H
H       0.2075     0.48   0.3182     H
H       0.2075     0.48   0.6818     H
H       0.2075     0.52   0.3182     H
H       0.2075     0.52   0.6818     H
H       0.2075   0.6818     0.48     H
H       0.2075   0.6818     0.52     H
C      0.21342  0.21342      0.5     C
C      0.21342      0.5  0.21342     C
C      0.21342      0.5  0.78658     C
C      0.21342  0.78658      0.5     C
C      0.24292  0.30822    0.489     C
C      0.24292    0.489  0.30822     C
C      0.24292    0.489  0.69178     C
C      0.24292  0.69178    0.489     C
C      0.25615  0.25615      0.5     C
C      0.25615      0.5  0.25615     C
C      0.25615      0.5  0.74385     C
C      0.25615  0.74385      0.5     C
H       0.2728   0.3835   0.4846     H
H       0.2728   0.3835   0.5154     H
H       0.2728   0.4846   0.3835     H
H       0.2728   0.4846   0.6165     H
H       0.2728   0.5154   0.3835     H
H       0.2728   0.5154   0.6165     H
H       0.2728   0.6165   0.4846     H
H       0.2728   0.6165   0.5154     H
C      0.28171  0.34699    0.489     C
C      0.28171    0.489  0.34699     C
C      0.28171    0.489  0.65301     C
C      0.28171  0.65301    0.489     C
C      0.30822  0.24292    0.489     C
C      0.30822    0.489  0.24292     C
C      0.30822    0.489  0.75708     C
C      0.30822  0.75708    0.489     C
H       0.3182   0.2075     0.48     H
H       0.3182   0.2075     0.52     H
H       0.3182     0.48   0.2075     H
H       0.3182     0.48   0.7925     H
H       0.3182     0.52   0.2075     H
H       0.3182     0.52   0.7925     H
H       0.3182   0.7925     0.48     H
H       0.3182   0.7925     0.52     H
C      0.33377  0.33377      0.5     C
C      0.33377      0.5  0.33377     C
C      0.33377      0.5  0.66623     C
C      0.33377  0.66623      0.5     C
C      0.34699  0.28171    0.489     C
C      0.34699    0.489  0.28171     C
C      0.34699    0.489  0.71829     C
C      0.34699  0.71829    0.489     C
O      0.35933  0.42309      0.5     O
O      0.35933      0.5  0.42309     O
O      0.35933      0.5  0.57691     O
O      0.35933  0.57691      0.5     O
C       0.3754   0.3754      0.5     C
C       0.3754      0.5   0.3754     C
C       0.3754      0.5   0.6246     C
C       0.3754   0.6246      0.5     C
H       0.3835   0.2728   0.4846     H
H       0.3835   0.2728   0.5154     H
H       0.3835   0.4846   0.2728     H
H       0.3835   0.4846   0.7272     H
H       0.3835   0.5154   0.2728     H
H       0.3835   0.5154   0.7272     H
H       0.3835   0.7272   0.4846     H
H       0.3835   0.7272   0.5154     H
Zr      0.4023      0.5      0.5    Zr
H        0.403   0.1525   0.1525     H
H        0.403   0.1525   0.8475     H
H        0.403   0.8475   0.1525     H
H        0.403   0.8475   0.8475     H
H       0.4186   0.2171   0.2171     H
H       0.4186   0.2171   0.7829     H
H       0.4186   0.7829   0.2171     H
H       0.4186   0.7829   0.7829     H
O      0.42309  0.35933      0.5     O
O      0.42309      0.5  0.35933     O
O      0.42309      0.5  0.64067     O
O      0.42309  0.64067      0.5     O
H       0.4231   0.1979    0.802     H
H       0.4231    0.198   0.1979     H
H       0.4231    0.802   0.8021     H
H       0.4231   0.8021    0.198     H
C       0.4382   0.1624   0.1624     C
C       0.4382   0.1624   0.8376     C
C       0.4382   0.8376   0.1624     C
C       0.4382   0.8376   0.8376     C
H       0.4387   0.1333   0.8666     H
H       0.4387   0.1334   0.1333     H
H       0.4387   0.8666   0.8667     H
H       0.4387   0.8667   0.1334     H
C       0.4483  0.20049  0.20049     C
C       0.4483  0.20049  0.79951     C
C       0.4483  0.79951  0.20049     C
C       0.4483  0.79951  0.79951     C
O       0.4517   0.4517   0.4517     O
O       0.4517   0.4517   0.5483     O
O       0.4517   0.5483   0.4517     O
O       0.4517   0.5483   0.5483     O
H       0.4632   0.0422   0.1894     H
H       0.4632   0.0422   0.8106     H
H       0.4632   0.1894   0.0422     H
H       0.4632   0.1894   0.9578     H
H       0.4632   0.8106   0.0422     H
H       0.4632   0.8106   0.9578     H
H       0.4632   0.9578   0.1894     H
H       0.4632   0.9578   0.8106     H
C       0.4684   0.1501   0.1501     C
C       0.4684   0.1501   0.8499     C
C       0.4684   0.8499   0.1501     C
C       0.4684   0.8499   0.8499     C
C       0.4689   0.0954   0.0954     C
C       0.4689   0.0954   0.9046     C
C       0.4689   0.9046   0.0954     C
C       0.4689   0.9046   0.9046     C
C       0.4697   0.0269   0.1616     C
C       0.4697   0.0269   0.8384     C
C       0.4697   0.1616   0.0269     C
C       0.4697   0.1616   0.9731     C
C       0.4697   0.8384   0.0269     C
C       0.4697   0.8384   0.9731     C
C       0.4697   0.9731   0.1616     C
C       0.4697   0.9731   0.8384     C
C       0.4705    0.042   0.1104     C
C       0.4705    0.042   0.8896     C
C       0.4705   0.1104    0.042     C
C       0.4705   0.1104    0.958     C
C       0.4705   0.8896    0.042     C
C       0.4705   0.8896    0.958     C
C       0.4705    0.958   0.1104     C
C       0.4705    0.958   0.8896     C
Ni      0.4718      0.0      0.0    Ni
N       0.4729      0.0    0.076     N
N       0.4729      0.0    0.924     N
N       0.4729    0.076      0.0     N
N       0.4729    0.924      0.0     N
H         0.48   0.2075   0.3182     H
H         0.48   0.2075   0.6818     H
H         0.48   0.3182   0.2075     H
H         0.48   0.3182   0.7925     H
H         0.48   0.6818   0.2075     H
H         0.48   0.6818   0.7925     H
H         0.48   0.7925   0.3182     H
H         0.48   0.7925   0.6818     H
H       0.4846   0.2728   0.3835     H
H       0.4846   0.2728   0.6165     H
H       0.4846   0.3835   0.2728     H
H       0.4846   0.3835   0.7272     H
H       0.4846   0.6165   0.2728     H
H       0.4846   0.6165   0.7272     H
H       0.4846   0.7272   0.3835     H
H       0.4846   0.7272   0.6165     H
C        0.489  0.24292  0.30822     C
C        0.489  0.24292  0.69178     C
C        0.489  0.28171  0.34699     C
C        0.489  0.28171  0.65301     C
C        0.489  0.30822  0.24292     C
C        0.489  0.30822  0.75708     C
C        0.489  0.34699  0.28171     C
C        0.489  0.34699  0.71829     C
C        0.489  0.65301  0.28171     C
C        0.489  0.65301  0.71829     C
C        0.489  0.69178  0.24292     C
C        0.489  0.69178  0.75708     C
C        0.489  0.71829  0.34699     C
C        0.489  0.71829  0.65301     C
C        0.489  0.75708  0.30822     C
C        0.489  0.75708  0.69178     C
C          0.5  0.21342  0.21342     C
C          0.5  0.21342  0.78658     C
C          0.5  0.25615  0.25615     C
C          0.5  0.25615  0.74385     C
C          0.5  0.33377  0.33377     C
C          0.5  0.33377  0.66623     C
O          0.5  0.35933  0.42309     O
O          0.5  0.35933  0.57691     O
C          0.5   0.3754   0.3754     C
C          0.5   0.3754   0.6246     C
Zr         0.5   0.4023      0.5    Zr
O          0.5  0.42309  0.35933     O
O          0.5  0.42309  0.64067     O
Zr         0.5      0.5   0.4023    Zr
Zr         0.5      0.5   0.5977    Zr
O          0.5  0.57691  0.35933     O
O          0.5  0.57691  0.64067     O
Zr         0.5   0.5977      0.5    Zr
C          0.5   0.6246   0.3754     C
C          0.5   0.6246   0.6246     C
O          0.5  0.64067  0.42309     O
O          0.5  0.64067  0.57691     O
C          0.5  0.66623  0.33377     C
C          0.5  0.66623  0.66623     C
C          0.5  0.74385  0.25615     C
C          0.5  0.74385  0.74385     C
C          0.5  0.78658  0.21342     C
C          0.5  0.78658  0.78658     C
H       0.5154   0.2728   0.3835     H
H       0.5154   0.2728   0.6165     H
H       0.5154   0.3835   0.2728     H
H       0.5154   0.3835   0.7272     H
H       0.5154   0.6165   0.2728     H
H       0.5154   0.6165   0.7272     H
H       0.5154   0.7272   0.3835     H
H       0.5154   0.7272   0.6165     H
H         0.52   0.2075   0.3182     H
H         0.52   0.2075   0.6818     H
H         0.52   0.3182   0.2075     H
H         0.52   0.3182   0.7925     H
H         0.52   0.6818   0.2075     H
H         0.52   0.6818   0.7925     H
H         0.52   0.7925   0.3182     H
H         0.52   0.7925   0.6818     H
C       0.5201  0.13713  0.13713     C
C       0.5201  0.13713  0.86287     C
C       0.5201  0.86287  0.13713     C
C       0.5201  0.86287  0.86287     C
N       0.5271      0.0    0.076     N
N       0.5271      0.0    0.924     N
N       0.5271    0.076      0.0     N
N       0.5271    0.924      0.0     N
Ni      0.5282      0.0      0.0    Ni
C       0.5295    0.042   0.1104     C
C       0.5295    0.042   0.8896     C
C       0.5295   0.1104    0.042     C
C       0.5295   0.1104    0.958     C
C       0.5295   0.8896    0.042     C
C       0.5295   0.8896    0.958     C
C       0.5295    0.958   0.1104     C
C       0.5295    0.958   0.8896     C
C       0.5303   0.0269   0.1616     C
C       0.5303   0.0269   0.8384     C
C       0.5303   0.1616   0.0269     C
C       0.5303   0.1616   0.9731     C
C       0.5303   0.8384   0.0269     C
C       0.5303   0.8384   0.9731     C
C       0.5303   0.9731   0.1616     C
C       0.5303   0.9731   0.8384     C
C       0.5311   0.0954   0.0954     C
C       0.5311   0.0954   0.9046     C
C       0.5311   0.9046   0.0954     C
C       0.5311   0.9046   0.9046     C
H       0.5368   0.0422   0.1894     H
H       0.5368   0.0422   0.8106     H
H       0.5368   0.1894   0.0422     H
H       0.5368   0.1894   0.9578     H
H       0.5368   0.8106   0.0422     H
H       0.5368   0.8106   0.9578     H
H       0.5368   0.9578   0.1894     H
H       0.5368   0.9578   0.8106     H
C      0.54164   0.1882   0.1882     C
C      0.54164   0.1882   0.8118     C
C      0.54164   0.8118   0.1882     C
C      0.54164   0.8118   0.8118     C
O       0.5483   0.4517   0.4517     O
O       0.5483   0.4517   0.5483     O
O       0.5483   0.5483   0.4517     O
O       0.5483   0.5483   0.5483     O
H       0.5613   0.1333   0.1334     H
H       0.5613   0.1334   0.8667     H
H       0.5613   0.8666   0.1333     H
H       0.5613   0.8667   0.8666     H
C       0.5618   0.1624   0.1624     C
C       0.5618   0.1624   0.8376     C
C       0.5618   0.8376   0.1624     C
C       0.5618   0.8376   0.8376     C
H       0.5769   0.1979    0.198     H
H       0.5769    0.198   0.8021     H
H       0.5769    0.802   0.1979     H
H       0.5769   0.8021    0.802     H
O      0.57691  0.35933      0.5     O
O      0.57691      0.5  0.35933     O
O      0.57691      0.5  0.64067     O
O      0.57691  0.64067      0.5     O
H        0.597   0.1525   0.1525     H
H        0.597   0.1525   0.8475     H
H        0.597   0.8475   0.1525     H
H        0.597   0.8475   0.8475     H
Zr      0.5977      0.5      0.5    Zr
H       0.6165   0.2728   0.4846     H
H       0.6165   0.2728   0.5154     H
H       0.6165   0.4846   0.2728     H
H       0.6165   0.4846   0.7272     H
H       0.6165   0.5154   0.2728     H
H       0.6165   0.5154   0.7272     H
H       0.6165   0.7272   0.4846     H
H       0.6165   0.7272   0.5154     H
C       0.6246   0.3754      0.5     C
C       0.6246      0.5   0.3754     C
C       0.6246      0.5   0.6246     C
C       0.6246   0.6246      0.5     C
O      0.64067  0.42309      0.5     O
O      0.64067      0.5  0.42309     O
O      0.64067      0.5  0.57691     O
O      0.64067  0.57691      0.5     O
C      0.65301  0.28171    0.489     C
C      0.65301    0.489  0.28171     C
C      0.65301    0.489  0.71829     C
C      0.65301  0.71829    0.489     C
C      0.66623  0.33377      0.5     C
C      0.66623      0.5  0.33377     C
C      0.66623      0.5  0.66623     C
C      0.66623  0.66623      0.5     C
H       0.6818   0.2075     0.48     H
H       0.6818   0.2075     0.52     H
H       0.6818     0.48   0.2075     H
H       0.6818     0.48   0.7925     H
H       0.6818     0.52   0.2075     H
H       0.6818     0.52   0.7925     H
H       0.6818   0.7925     0.48     H
H       0.6818   0.7925     0.52     H
C      0.69178  0.24292    0.489     C
C      0.69178    0.489  0.24292     C
C      0.69178    0.489  0.75708     C
C      0.69178  0.75708    0.489     C
C      0.71829  0.34699    0.489     C
C      0.71829    0.489  0.34699     C
C      0.71829    0.489  0.65301     C
C      0.71829  0.65301    0.489     C
H       0.7272   0.3835   0.4846     H
H       0.7272   0.3835   0.5154     H
H       0.7272   0.4846   0.3835     H
H       0.7272   0.4846   0.6165     H
H       0.7272   0.5154   0.3835     H
H       0.7272   0.5154   0.6165     H
H       0.7272   0.6165   0.4846     H
H       0.7272   0.6165   0.5154     H
C      0.74385  0.25615      0.5     C
C      0.74385      0.5  0.25615     C
C      0.74385      0.5  0.74385     C
C      0.74385  0.74385      0.5     C
C      0.75708  0.30822    0.489     C
C      0.75708    0.489  0.30822     C
C      0.75708    0.489  0.69178     C
C      0.75708  0.69178    0.489     C
H       0.7829   0.2171   0.4186     H
H       0.7829   0.2171   0.5814     H
H       0.7829   0.4186   0.2171     H
H       0.7829   0.4186   0.7829     H
H       0.7829   0.5814   0.2171     H
H       0.7829   0.5814   0.7829     H
H       0.7829   0.7829   0.4186     H
H       0.7829   0.7829   0.5814     H
C      0.78658  0.21342      0.5     C
C      0.78658      0.5  0.21342     C
C      0.78658      0.5  0.78658     C
C      0.78658  0.78658      0.5     C
H       0.7925   0.3182     0.48     H
H       0.7925   0.3182     0.52     H
H       0.7925     0.48   0.3182     H
H       0.7925     0.48   0.6818     H
H       0.7925     0.52   0.3182     H
H       0.7925     0.52   0.6818     H
H       0.7925   0.6818     0.48     H
H       0.7925   0.6818     0.52     H
C      0.79951  0.20049   0.4483     C
C      0.79951  0.20049   0.5517     C
C      0.79951   0.4483  0.20049     C
C      0.79951   0.4483  0.79951     C
C      0.79951   0.5517  0.20049     C
C      0.79951   0.5517  0.79951     C
C      0.79951  0.79951   0.4483     C
C      0.79951  0.79951   0.5517     C
H        0.802   0.1979   0.5769     H
H        0.802   0.4231   0.1979     H
H        0.802   0.5769   0.8021     H
H        0.802   0.8021   0.4231     H
H       0.8021    0.198   0.4231     H
H       0.8021   0.4231    0.802     H
H       0.8021   0.5769    0.198     H
H       0.8021    0.802   0.5769     H
H       0.8106   0.0422   0.4632     H
H       0.8106   0.0422   0.5368     H
H       0.8106   0.4632   0.0422     H
H       0.8106   0.4632   0.9578     H
H       0.8106   0.5368   0.0422     H
H       0.8106   0.5368   0.9578     H
H       0.8106   0.9578   0.4632     H
H       0.8106   0.9578   0.5368     H
C       0.8376   0.1624   0.4382     C
C       0.8376   0.1624   0.5618     C
C       0.8376   0.4382   0.1624     C
C       0.8376   0.4382   0.8376     C
C       0.8376   0.5618   0.1624     C
C       0.8376   0.5618   0.8376     C
C       0.8376   0.8376   0.4382     C
C       0.8376   0.8376   0.5618     C
C       0.8384   0.0269   0.4697     C
C       0.8384   0.0269   0.5303     C
C       0.8384   0.4697   0.0269     C
C       0.8384   0.4697   0.9731     C
C       0.8384   0.5303   0.0269     C
C       0.8384   0.5303   0.9731     C
C       0.8384   0.9731   0.4697     C
C       0.8384   0.9731   0.5303     C
H       0.8475   0.1525    0.403     H
H       0.8475   0.1525    0.597     H
H       0.8475    0.403   0.1525     H
H       0.8475    0.403   0.8475     H
H       0.8475    0.597   0.1525     H
H       0.8475    0.597   0.8475     H
H       0.8475   0.8475    0.403     H
H       0.8475   0.8475    0.597     H
C       0.8499   0.1501   0.4684     C
C       0.8499   0.1501   0.5316     C
C       0.8499   0.4684   0.1501     C
C       0.8499   0.4684   0.8499     C
C       0.8499   0.5316   0.1501     C
C       0.8499   0.5316   0.8499     C
C       0.8499   0.8499   0.4684     C
C       0.8499   0.8499   0.5316     C
H       0.8666   0.1333   0.5613     H
H       0.8666   0.4387   0.1333     H
H       0.8666   0.5613   0.8667     H
H       0.8666   0.8667   0.4387     H
H       0.8667   0.1334   0.4387     H
H       0.8667   0.4387   0.8666     H
H       0.8667   0.5613   0.1334     H
H       0.8667   0.8666   0.5613     H
C       0.8896    0.042   0.4705     C
C       0.8896    0.042   0.5295     C
C       0.8896   0.4705    0.042     C
C       0.8896   0.4705    0.958     C
C       0.8896   0.5295    0.042     C
C       0.8896   0.5295    0.958     C
C       0.8896    0.958   0.4705     C
C       0.8896    0.958   0.5295     C
C       0.9046   0.0954   0.4689     C
C       0.9046   0.0954   0.5311     C
C       0.9046   0.4689   0.0954     C
C       0.9046   0.4689   0.9046     C
C       0.9046   0.5311   0.0954     C
C       0.9046   0.5311   0.9046     C
C       0.9046   0.9046   0.4689     C
C       0.9046   0.9046   0.5311     C
N        0.924      0.0   0.4729     N
N        0.924      0.0   0.5271     N
N        0.924   0.4729      0.0     N
N        0.924   0.5271      0.0     N
H       0.9578   0.1894   0.4632     H
H       0.9578   0.1894   0.5368     H
H       0.9578   0.4632   0.1894     H
H       0.9578   0.4632   0.8106     H
H       0.9578   0.5368   0.1894     H
H       0.9578   0.5368   0.8106     H
H       0.9578   0.8106   0.4632     H
H       0.9578   0.8106   0.5368     H
C        0.958   0.1104   0.4705     C
C        0.958   0.1104   0.5295     C
C        0.958   0.4705   0.1104     C
C        0.958   0.4705   0.8896     C
C        0.958   0.5295   0.1104     C
C        0.958   0.5295   0.8896     C
C        0.958   0.8896   0.4705     C
C        0.958   0.8896   0.5295     C
C       0.9731   0.1616   0.4697     C
C       0.9731   0.1616   0.5303     C
C       0.9731   0.4697   0.1616     C
C       0.9731   0.4697   0.8384     C
C       0.9731   0.5303   0.1616     C
C       0.9731   0.5303   0.8384     C
C       0.9731   0.8384   0.4697     C
C       0.9731   0.8384   0.5303     C
