data_I
_chemical_name_common  '/Users/gianmarcoterrones/Research/MOFs/MOF_structures/water_stability_work_extra_structs/cleaned_from_CCDC/UGOCEA'
_cell_length_a 31.52848
_cell_length_b 31.52848
_cell_length_c 31.52848
_cell_angle_alpha 60.00000
_cell_angle_beta  60.00000
_cell_angle_gamma 60.00000
_space_group_name_H-M_alt      'P 1'


loop_
_space_group_symop_operation_xyz
  'x, y, z' 

loop_
_atom_site_label
_atom_site_fract_x
_atom_site_fract_y
_atom_site_fract_z
_atom_site_type_symbol
C      0.00442  0.18378  0.25202     C
C      0.00442  0.18378  0.55978     C
C      0.00442  0.25202  0.18378     C
C      0.00442  0.25202  0.55978     C
C      0.00442  0.55978  0.18378     C
C      0.00442  0.55978  0.25202     C
H       0.0053   0.4417   0.7137     H
H       0.0053   0.4417   0.8393     H
H       0.0053   0.7137   0.4417     H
H       0.0053   0.7137   0.8393     H
H       0.0053   0.8393   0.4417     H
H       0.0053   0.8393   0.7137     H
H       0.0107   0.1715   0.2951     H
H       0.0107   0.1715   0.5227     H
H       0.0107   0.2951   0.1715     H
H       0.0107   0.2951   0.5227     H
H       0.0107   0.5227   0.1715     H
H       0.0107   0.5227   0.2951     H
C       0.0151   0.4731   0.7559     C
C       0.0151   0.7559   0.4731     C
C       0.0151   0.7559   0.7559     C
C       0.0186   0.1948   0.2604     C
C       0.0186   0.1948   0.5262     C
C       0.0186   0.2604   0.1948     C
C       0.0186   0.2604   0.5262     C
C       0.0186   0.5262   0.1948     C
C       0.0186   0.5262   0.2604     C
N      0.04847  0.17073  0.21323     N
N      0.04847  0.17073  0.56757     N
N      0.04847  0.21323  0.17073     N
N      0.04847  0.21323  0.56757     N
N      0.04847  0.56757  0.17073     N
N      0.04847  0.56757  0.21323     N
N       0.0618   0.1838   0.2238     N
N       0.0618   0.1838   0.5306     N
N       0.0618   0.2238   0.1838     N
N       0.0618   0.2238   0.5306     N
N       0.0618   0.5306   0.1838     N
N       0.0618   0.5306   0.2238     N
O       0.0632   0.0632   0.2814     O
O       0.0632   0.0632   0.5922     O
O       0.0632   0.2814   0.0632     O
O       0.0632   0.2814   0.5922     O
O       0.0632   0.5922   0.0632     O
O       0.0632   0.5922   0.2814     O
C       0.0655   0.4807   0.7269     C
C       0.0655   0.7269   0.4807     C
C       0.0655   0.7269   0.7269     C
H       0.0731   0.4823   0.6575     H
H       0.0731   0.4823   0.7871     H
H       0.0731   0.6575   0.4823     H
H       0.0731   0.6575   0.7871     H
H       0.0731   0.7871   0.4823     H
H       0.0731   0.7871   0.6575     H
H       0.0821   0.4547   0.6689     H
H       0.0821   0.4547   0.7943     H
H       0.0821   0.6689   0.4547     H
H       0.0821   0.6689   0.7943     H
H       0.0821   0.7943   0.4547     H
H       0.0821   0.7943   0.6689     H
O       0.0845   0.0845   0.3015     O
O       0.0845   0.0845   0.5295     O
O       0.0845   0.3015   0.0845     O
O       0.0845   0.3015   0.5295     O
O       0.0845   0.5295   0.0845     O
O       0.0845   0.5295   0.3015     O
C        0.091   0.4804   0.6756     C
C        0.091   0.4804    0.753     C
C        0.091   0.6756   0.4804     C
C        0.091   0.6756    0.753     C
C        0.091    0.753   0.4804     C
C        0.091    0.753   0.6756     C
O       0.0971      0.5      0.5     O
O       0.0971      0.5   0.9029     O
O       0.0971   0.9029      0.5     O
Cu     0.10843  0.10843  0.21355    Cu
Cu     0.10843  0.10843  0.56959    Cu
Cu     0.10843  0.21355  0.10843    Cu
Cu     0.10843  0.21355  0.56959    Cu
Cu     0.10843  0.56959  0.10843    Cu
Cu     0.10843  0.56959  0.21355    Cu
Cu      0.1256   0.1256   0.2258    Cu
Cu      0.1256   0.1256    0.523    Cu
Cu      0.1256   0.2258   0.1256    Cu
Cu      0.1256   0.2258    0.523    Cu
Cu      0.1256    0.523   0.1256    Cu
Cu      0.1256    0.523   0.2258    Cu
O      0.14028  0.48716  0.57448     O
O      0.14028  0.48716  0.79808     O
O      0.14028  0.57448  0.48716     O
O      0.14028  0.57448  0.79808     O
O      0.14028  0.79808  0.48716     O
O      0.14028  0.79808  0.57448     O
O       0.1418   0.1418   0.1418     O
O       0.1418   0.1418   0.5746     O
O       0.1418   0.5746   0.1418     O
C      0.14203  0.47747  0.65215     C
C      0.14203  0.47747  0.72835     C
C      0.14203  0.65215  0.47747     C
C      0.14203  0.65215  0.72835     C
C      0.14203  0.72835  0.47747     C
C      0.14203  0.72835  0.65215     C
H       0.1607   0.2863   0.5583     H
H       0.1607   0.2863   0.9947     H
H       0.1607   0.5583   0.2863     H
H       0.1607   0.5583   0.9947     H
H       0.1607   0.9947   0.2863     H
H       0.1607   0.9947   0.5583     H
Cu    0.164494      0.5      0.5    Cu
Cu    0.164494      0.5 0.835506    Cu
Cu    0.164494 0.835506      0.5    Cu
O       0.1654   0.1654   0.1654     O
O       0.1654   0.1654   0.5038     O
O       0.1654   0.5038   0.1654     O
C      0.16573  0.48145  0.67641     C
C      0.16573  0.67641  0.48145     C
C      0.16573  0.67641  0.67641     C
C      0.16601  0.48479  0.59573     C
C      0.16601  0.48479  0.75347     C
C      0.16601  0.59573  0.48479     C
C      0.16601  0.59573  0.75347     C
C      0.16601  0.75347  0.48479     C
C      0.16601  0.75347  0.59573     C
N      0.17073  0.04847  0.21323     N
N      0.17073  0.04847  0.56757     N
N      0.17073  0.21323  0.04847     N
N      0.17073  0.21323  0.56757     N
N      0.17073  0.56757  0.04847     N
N      0.17073  0.56757  0.21323     N
H       0.1715   0.0107   0.2951     H
H       0.1715   0.0107   0.5227     H
H       0.1715   0.2951   0.0107     H
H       0.1715   0.2951   0.5227     H
H       0.1715   0.5227   0.0107     H
H       0.1715   0.5227   0.2951     H
C      0.18378  0.00442  0.25202     C
C      0.18378  0.00442  0.55978     C
C      0.18378  0.25202  0.00442     C
C      0.18378  0.25202  0.55978     C
C      0.18378  0.55978  0.00442     C
C      0.18378  0.55978  0.25202     C
N       0.1838   0.0618   0.2238     N
N       0.1838   0.0618   0.5306     N
N       0.1838   0.2238   0.0618     N
N       0.1838   0.2238   0.5306     N
N       0.1838   0.5306   0.0618     N
N       0.1838   0.5306   0.2238     N
C       0.1948   0.0186   0.2604     C
C       0.1948   0.0186   0.5262     C
C       0.1948   0.2604   0.0186     C
C       0.1948   0.2604   0.5262     C
C       0.1948   0.5262   0.0186     C
C       0.1948   0.5262   0.2604     C
H       0.1984   0.4868   0.6574     H
H       0.1984   0.6574   0.4868     H
H       0.1984   0.6574   0.6574     H
O      0.20192  0.42552  0.51284     O
O      0.20192  0.42552  0.85972     O
O      0.20192  0.51284  0.42552     O
O      0.20192  0.51284  0.85972     O
O      0.20192  0.85972  0.42552     O
O      0.20192  0.85972  0.51284     O
H       0.2057   0.3311   0.5453     H
H       0.2057   0.3311   0.9179     H
H       0.2057   0.5453   0.3311     H
H       0.2057   0.5453   0.9179     H
H       0.2057   0.9179   0.3311     H
H       0.2057   0.9179   0.5453     H
O      0.21092  0.48768  0.57392     O
O      0.21092  0.48768  0.72748     O
O      0.21092  0.57392  0.48768     O
O      0.21092  0.57392  0.72748     O
O      0.21092  0.72748  0.48768     O
O      0.21092  0.72748  0.57392     O
H       0.2129   0.3425   0.5177     H
H       0.2129   0.3425   0.9269     H
H       0.2129   0.5177   0.3425     H
H       0.2129   0.5177   0.9269     H
H       0.2129   0.9269   0.3425     H
H       0.2129   0.9269   0.5177     H
N      0.21323  0.04847  0.17073     N
N      0.21323  0.04847  0.56757     N
N      0.21323  0.17073  0.04847     N
N      0.21323  0.17073  0.56757     N
N      0.21323  0.56757  0.04847     N
N      0.21323  0.56757  0.17073     N
Cu     0.21355  0.10843  0.10843    Cu
Cu     0.21355  0.10843  0.56959    Cu
Cu     0.21355  0.56959  0.10843    Cu
N       0.2238   0.0618   0.1838     N
N       0.2238   0.0618   0.5306     N
N       0.2238   0.1838   0.0618     N
N       0.2238   0.1838   0.5306     N
N       0.2238   0.5306   0.0618     N
N       0.2238   0.5306   0.1838     N
Cu      0.2258   0.1256   0.1256    Cu
Cu      0.2258   0.1256    0.523    Cu
Cu      0.2258    0.523   0.1256    Cu
C       0.2347   0.2347   0.5545     C
C       0.2347   0.2347   0.9761     C
C       0.2347   0.5545   0.2347     C
C       0.2347   0.5545   0.9761     C
C       0.2347   0.9761   0.2347     C
C       0.2347   0.9761   0.5545     C
C      0.24224  0.31616  0.53764     C
C      0.24224  0.31616  0.90396     C
C      0.24224  0.53764  0.31616     C
C      0.24224  0.53764  0.90396     C
C      0.24224  0.90396  0.31616     C
C      0.24224  0.90396  0.53764     C
C      0.24653  0.40427  0.51521     C
C      0.24653  0.40427  0.83399     C
C      0.24653  0.51521  0.40427     C
C      0.24653  0.51521  0.83399     C
C      0.24653  0.83399  0.40427     C
C      0.24653  0.83399  0.51521     C
Cu    0.248274      0.5      0.5    Cu
Cu    0.248274      0.5 0.751726    Cu
Cu    0.248274 0.751726      0.5    Cu
C      0.25202  0.00442  0.18378     C
C      0.25202  0.00442  0.55978     C
C      0.25202  0.18378  0.00442     C
C      0.25202  0.18378  0.55978     C
C      0.25202  0.55978  0.00442     C
C      0.25202  0.55978  0.18378     C
C       0.2604   0.0186   0.1948     C
C       0.2604   0.0186   0.5262     C
C       0.2604   0.1948   0.0186     C
C       0.2604   0.1948   0.5262     C
C       0.2604   0.5262   0.0186     C
C       0.2604   0.5262   0.1948     C
C       0.2657   0.2657   0.5411     C
C       0.2657   0.2657   0.9275     C
C       0.2657   0.5411   0.2657     C
C       0.2657   0.5411   0.9275     C
C       0.2657   0.9275   0.2657     C
C       0.2657   0.9275   0.5411     C
C      0.27165  0.34785  0.52253     C
C      0.27165  0.34785  0.85797     C
C      0.27165  0.52253  0.34785     C
C      0.27165  0.52253  0.85797     C
C      0.27165  0.85797  0.34785     C
C      0.27165  0.85797  0.52253     C
O      0.27252  0.42608  0.51232     O
O      0.27252  0.42608  0.78908     O
O      0.27252  0.51232  0.42608     O
O      0.27252  0.51232  0.78908     O
O      0.27252  0.78908  0.42608     O
O      0.27252  0.78908  0.51232     O
O       0.2814   0.0632   0.0632     O
O       0.2814   0.0632   0.5922     O
O       0.2814   0.5922   0.0632     O
H       0.2863   0.1607   0.5583     H
H       0.2863   0.1607   0.9947     H
H       0.2863   0.5583   0.1607     H
H       0.2863   0.5583   0.9947     H
H       0.2863   0.9947   0.1607     H
H       0.2863   0.9947   0.5583     H
H       0.2951   0.0107   0.1715     H
H       0.2951   0.0107   0.5227     H
H       0.2951   0.1715   0.0107     H
H       0.2951   0.1715   0.5227     H
H       0.2951   0.5227   0.0107     H
H       0.2951   0.5227   0.1715     H
O       0.3015   0.0845   0.0845     O
O       0.3015   0.0845   0.5295     O
O       0.3015   0.5295   0.0845     O
O      0.30876   0.5072   0.5072     O
O      0.30876   0.5072  0.67684     O
O      0.30876  0.67684   0.5072     O
C      0.31616  0.24224  0.53764     C
C      0.31616  0.24224  0.90396     C
C      0.31616  0.53764  0.24224     C
C      0.31616  0.53764  0.90396     C
C      0.31616  0.90396  0.24224     C
C      0.31616  0.90396  0.53764     C
C      0.32359  0.32359  0.51855     C
C      0.32359  0.32359  0.83427     C
C      0.32359  0.51855  0.32359     C
C      0.32359  0.51855  0.83427     C
C      0.32359  0.83427  0.32359     C
C      0.32359  0.83427  0.51855     C
H       0.3311   0.2057   0.5453     H
H       0.3311   0.2057   0.9179     H
H       0.3311   0.5453   0.2057     H
H       0.3311   0.5453   0.9179     H
H       0.3311   0.9179   0.2057     H
H       0.3311   0.9179   0.5453     H
H       0.3425   0.2129   0.5177     H
H       0.3425   0.2129   0.9269     H
H       0.3425   0.5177   0.2129     H
H       0.3425   0.5177   0.9269     H
H       0.3425   0.9269   0.2129     H
H       0.3425   0.9269   0.5177     H
H       0.3426   0.3426   0.5132     H
H       0.3426   0.3426   0.8016     H
H       0.3426   0.5132   0.3426     H
H       0.3426   0.5132   0.8016     H
H       0.3426   0.8016   0.3426     H
H       0.3426   0.8016   0.5132     H
C      0.34785  0.27165  0.52253     C
C      0.34785  0.27165  0.85797     C
C      0.34785  0.52253  0.27165     C
C      0.34785  0.52253  0.85797     C
C      0.34785  0.85797  0.27165     C
C      0.34785  0.85797  0.52253     C
C      0.40427  0.24653  0.51521     C
C      0.40427  0.24653  0.83399     C
C      0.40427  0.51521  0.24653     C
C      0.40427  0.51521  0.83399     C
C      0.40427  0.83399  0.24653     C
C      0.40427  0.83399  0.51521     C
O       0.4078   0.7186   0.9368     O
O       0.4078   0.9368   0.7186     O
O       0.4078   0.9368   0.9368     O
O       0.4254   0.8582   0.8582     O
O      0.42552  0.20192  0.51284     O
O      0.42552  0.20192  0.85972     O
O      0.42552  0.51284  0.20192     O
O      0.42552  0.51284  0.85972     O
O      0.42552  0.85972  0.20192     O
O      0.42552  0.85972  0.51284     O
O      0.42608  0.27252  0.51232     O
O      0.42608  0.27252  0.78908     O
O      0.42608  0.51232  0.27252     O
O      0.42608  0.51232  0.78908     O
O      0.42608  0.78908  0.27252     O
O      0.42608  0.78908  0.51232     O
Cu     0.43041  0.78645  0.89157    Cu
Cu     0.43041  0.89157  0.78645    Cu
Cu     0.43041  0.89157  0.89157    Cu
N      0.43243  0.78677  0.82927     N
N      0.43243  0.78677  0.95153     N
N      0.43243  0.82927  0.78677     N
N      0.43243  0.82927  0.95153     N
N      0.43243  0.95153  0.78677     N
N      0.43243  0.95153  0.82927     N
C      0.44022  0.74798  0.81622     C
C      0.44022  0.74798  0.99558     C
C      0.44022  0.81622  0.74798     C
C      0.44022  0.81622  0.99558     C
C      0.44022  0.99558  0.74798     C
C      0.44022  0.99558  0.81622     C
H       0.4417   0.0053   0.7137     H
H       0.4417   0.0053   0.8393     H
H       0.4417   0.7137   0.0053     H
H       0.4417   0.7137   0.8393     H
H       0.4417   0.8393   0.0053     H
H       0.4417   0.8393   0.7137     H
C       0.4455   0.0239   0.7653     C
C       0.4455   0.7653   0.0239     C
C       0.4455   0.7653   0.7653     C
H       0.4547   0.0821   0.6689     H
H       0.4547   0.0821   0.7943     H
H       0.4547   0.6689   0.0821     H
H       0.4547   0.6689   0.7943     H
H       0.4547   0.7943   0.0821     H
H       0.4547   0.7943   0.6689     H
C       0.4589   0.0725   0.7343     C
C       0.4589   0.7343   0.0725     C
C       0.4589   0.7343   0.7343     C
C      0.46236  0.09604  0.68384     C
C      0.46236  0.09604  0.75776     C
C      0.46236  0.68384  0.09604     C
C      0.46236  0.68384  0.75776     C
C      0.46236  0.75776  0.09604     C
C      0.46236  0.75776  0.68384     C
N       0.4694   0.7762   0.8162     N
N       0.4694   0.7762   0.9382     N
N       0.4694   0.8162   0.7762     N
N       0.4694   0.8162   0.9382     N
N       0.4694   0.9382   0.7762     N
N       0.4694   0.9382   0.8162     N
O       0.4705   0.6985   0.9155     O
O       0.4705   0.9155   0.6985     O
O       0.4705   0.9155   0.9155     O
C       0.4738   0.7396   0.8052     C
C       0.4738   0.7396   0.9814     C
C       0.4738   0.8052   0.7396     C
C       0.4738   0.8052   0.9814     C
C       0.4738   0.9814   0.7396     C
C       0.4738   0.9814   0.8052     C
Cu       0.477   0.7742   0.8744    Cu
Cu       0.477   0.8744   0.7742    Cu
Cu       0.477   0.8744   0.8744    Cu
H       0.4773   0.7049   0.8285     H
H       0.4773   0.7049   0.9893     H
H       0.4773   0.8285   0.7049     H
H       0.4773   0.8285   0.9893     H
H       0.4773   0.9893   0.7049     H
H       0.4773   0.9893   0.8285     H
C      0.47747  0.14203  0.65215     C
C      0.47747  0.14203  0.72835     C
C      0.47747  0.65215  0.14203     C
C      0.47747  0.65215  0.72835     C
C      0.47747  0.72835  0.14203     C
C      0.47747  0.72835  0.65215     C
C      0.48145  0.16573  0.67641     C
C      0.48145  0.67641  0.16573     C
C      0.48145  0.67641  0.67641     C
H       0.4823   0.0731   0.6575     H
H       0.4823   0.0731   0.7871     H
H       0.4823   0.6575   0.0731     H
H       0.4823   0.6575   0.7871     H
H       0.4823   0.7871   0.0731     H
H       0.4823   0.7871   0.6575     H
C      0.48479  0.16601  0.59573     C
C      0.48479  0.16601  0.75347     C
C      0.48479  0.59573  0.16601     C
C      0.48479  0.59573  0.75347     C
C      0.48479  0.75347  0.16601     C
C      0.48479  0.75347  0.59573     C
H       0.4868   0.1984   0.6574     H
H       0.4868   0.6574   0.1984     H
H       0.4868   0.6574   0.6574     H
O      0.48716  0.14028  0.57448     O
O      0.48716  0.14028  0.79808     O
O      0.48716  0.57448  0.14028     O
O      0.48716  0.57448  0.79808     O
O      0.48716  0.79808  0.14028     O
O      0.48716  0.79808  0.57448     O
O      0.48768  0.21092  0.57392     O
O      0.48768  0.21092  0.72748     O
O      0.48768  0.57392  0.21092     O
O      0.48768  0.57392  0.72748     O
O      0.48768  0.72748  0.21092     O
O      0.48768  0.72748  0.57392     O
O       0.4928  0.32316   0.4928     O
O       0.4928  0.32316  0.69124     O
O       0.4928   0.4928  0.32316     O
O       0.4928   0.4928  0.69124     O
O       0.4928  0.69124  0.32316     O
O       0.4928  0.69124   0.4928     O
O       0.4962   0.8346   0.8346     O
O          0.5   0.0971      0.5     O
O          0.5   0.0971   0.9029     O
Cu         0.5 0.164494      0.5    Cu
Cu         0.5 0.164494 0.835506    Cu
Cu         0.5 0.248274      0.5    Cu
Cu         0.5 0.248274 0.751726    Cu
O          0.5      0.5   0.0971     O
Cu         0.5      0.5 0.164494    Cu
Cu         0.5      0.5 0.248274    Cu
Cu         0.5      0.5 0.751726    Cu
Cu         0.5      0.5 0.835506    Cu
O          0.5      0.5   0.9029     O
Cu         0.5 0.751726 0.248274    Cu
Cu         0.5 0.751726      0.5    Cu
Cu         0.5 0.835506 0.164494    Cu
Cu         0.5 0.835506      0.5    Cu
O          0.5   0.9029   0.0971     O
O          0.5   0.9029      0.5     O
O       0.5038   0.1654   0.1654     O
O      0.51232  0.27252  0.42608     O
O      0.51232  0.27252  0.78908     O
O      0.51232  0.42608  0.27252     O
O      0.51232  0.42608  0.78908     O
O      0.51232  0.78908  0.27252     O
O      0.51232  0.78908  0.42608     O
O      0.51284  0.20192  0.42552     O
O      0.51284  0.20192  0.85972     O
O      0.51284  0.42552  0.20192     O
O      0.51284  0.42552  0.85972     O
O      0.51284  0.85972  0.20192     O
O      0.51284  0.85972  0.42552     O
H       0.5132   0.3426   0.3426     H
H       0.5132   0.3426   0.8016     H
H       0.5132   0.8016   0.3426     H
C      0.51521  0.24653  0.40427     C
C      0.51521  0.24653  0.83399     C
C      0.51521  0.40427  0.24653     C
C      0.51521  0.40427  0.83399     C
C      0.51521  0.83399  0.24653     C
C      0.51521  0.83399  0.40427     C
H       0.5177   0.2129   0.3425     H
H       0.5177   0.2129   0.9269     H
H       0.5177   0.3425   0.2129     H
H       0.5177   0.3425   0.9269     H
H       0.5177   0.9269   0.2129     H
H       0.5177   0.9269   0.3425     H
C      0.51855  0.32359  0.32359     C
C      0.51855  0.32359  0.83427     C
C      0.51855  0.83427  0.32359     C
C       0.5193   0.2731   0.2731     C
C       0.5193   0.2731   0.9345     C
C       0.5193   0.9345   0.2731     C
C       0.5196    0.247   0.3244     C
C       0.5196    0.247    0.909     C
C       0.5196   0.3244    0.247     C
C       0.5196   0.3244    0.909     C
C       0.5196    0.909    0.247     C
C       0.5196    0.909   0.3244     C
C      0.52253  0.27165  0.34785     C
C      0.52253  0.27165  0.85797     C
C      0.52253  0.34785  0.27165     C
C      0.52253  0.34785  0.85797     C
C      0.52253  0.85797  0.27165     C
C      0.52253  0.85797  0.34785     C
H       0.5227   0.0107   0.1715     H
H       0.5227   0.0107   0.2951     H
H       0.5227   0.1715   0.0107     H
H       0.5227   0.1715   0.2951     H
H       0.5227   0.2951   0.0107     H
H       0.5227   0.2951   0.1715     H
Cu       0.523   0.1256   0.1256    Cu
Cu       0.523   0.1256   0.2258    Cu
Cu       0.523   0.2258   0.1256    Cu
C       0.5262   0.0186   0.1948     C
C       0.5262   0.0186   0.2604     C
C       0.5262   0.1948   0.0186     C
C       0.5262   0.1948   0.2604     C
C       0.5262   0.2604   0.0186     C
C       0.5262   0.2604   0.1948     C
C       0.5269   0.2441   0.2441     C
C       0.5269   0.2441   0.9849     C
C       0.5269   0.9849   0.2441     C
O       0.5295   0.0845   0.0845     O
O       0.5295   0.0845   0.3015     O
O       0.5295   0.3015   0.0845     O
N       0.5306   0.0618   0.1838     N
N       0.5306   0.0618   0.2238     N
N       0.5306   0.1838   0.0618     N
N       0.5306   0.1838   0.2238     N
N       0.5306   0.2238   0.0618     N
N       0.5306   0.2238   0.1838     N
H       0.5453   0.2057   0.3311     H
H       0.5453   0.2057   0.9179     H
H       0.5453   0.3311   0.2057     H
H       0.5453   0.3311   0.9179     H
H       0.5453   0.9179   0.2057     H
H       0.5453   0.9179   0.3311     H
H       0.5583   0.1607   0.2863     H
H       0.5583   0.1607   0.9947     H
H       0.5583   0.2863   0.1607     H
H       0.5583   0.2863   0.9947     H
H       0.5583   0.9947   0.1607     H
H       0.5583   0.9947   0.2863     H
C      0.55978  0.00442  0.18378     C
C      0.55978  0.00442  0.25202     C
C      0.55978  0.18378  0.00442     C
C      0.55978  0.18378  0.25202     C
C      0.55978  0.25202  0.00442     C
C      0.55978  0.25202  0.18378     C
N      0.56757  0.04847  0.17073     N
N      0.56757  0.04847  0.21323     N
N      0.56757  0.17073  0.04847     N
N      0.56757  0.17073  0.21323     N
N      0.56757  0.21323  0.04847     N
N      0.56757  0.21323  0.17073     N
Cu     0.56959  0.10843  0.10843    Cu
Cu     0.56959  0.10843  0.21355    Cu
Cu     0.56959  0.21355  0.10843    Cu
O      0.57392  0.21092  0.48768     O
O      0.57392  0.21092  0.72748     O
O      0.57392  0.48768  0.21092     O
O      0.57392  0.48768  0.72748     O
O      0.57392  0.72748  0.21092     O
O      0.57392  0.72748  0.48768     O
O      0.57448  0.14028  0.48716     O
O      0.57448  0.14028  0.79808     O
O      0.57448  0.48716  0.14028     O
O      0.57448  0.48716  0.79808     O
O      0.57448  0.79808  0.14028     O
O      0.57448  0.79808  0.48716     O
O       0.5746   0.1418   0.1418     O
O       0.5922   0.0632   0.0632     O
O       0.5922   0.0632   0.2814     O
O       0.5922   0.2814   0.0632     O
C      0.59573  0.16601  0.48479     C
C      0.59573  0.16601  0.75347     C
C      0.59573  0.48479  0.16601     C
C      0.59573  0.48479  0.75347     C
C      0.59573  0.75347  0.16601     C
C      0.59573  0.75347  0.48479     C
C      0.65215  0.14203  0.47747     C
C      0.65215  0.14203  0.72835     C
C      0.65215  0.47747  0.14203     C
C      0.65215  0.47747  0.72835     C
C      0.65215  0.72835  0.14203     C
C      0.65215  0.72835  0.47747     C
H       0.6574   0.1984   0.4868     H
H       0.6574   0.1984   0.6574     H
H       0.6574   0.4868   0.1984     H
H       0.6574   0.4868   0.6574     H
H       0.6574   0.6574   0.1984     H
H       0.6574   0.6574   0.4868     H
H       0.6575   0.0731   0.4823     H
H       0.6575   0.0731   0.7871     H
H       0.6575   0.4823   0.0731     H
H       0.6575   0.4823   0.7871     H
H       0.6575   0.7871   0.0731     H
H       0.6575   0.7871   0.4823     H
H       0.6689   0.0821   0.4547     H
H       0.6689   0.0821   0.7943     H
H       0.6689   0.4547   0.0821     H
H       0.6689   0.4547   0.7943     H
H       0.6689   0.7943   0.0821     H
H       0.6689   0.7943   0.4547     H
C       0.6756    0.091   0.4804     C
C       0.6756    0.091    0.753     C
C       0.6756   0.4804    0.091     C
C       0.6756   0.4804    0.753     C
C       0.6756    0.753    0.091     C
C       0.6756    0.753   0.4804     C
C      0.67641  0.16573  0.48145     C
C      0.67641  0.16573  0.67641     C
C      0.67641  0.48145  0.16573     C
C      0.67641  0.48145  0.67641     C
C      0.67641  0.67641  0.16573     C
C      0.67641  0.67641  0.48145     C
O      0.67684  0.30876   0.5072     O
O      0.67684   0.5072  0.30876     O
O      0.67684   0.5072   0.5072     O
O       0.6985   0.4705   0.9155     O
O       0.6985   0.9155   0.4705     O
O       0.6985   0.9155   0.9155     O
H       0.7049   0.4773   0.8285     H
H       0.7049   0.4773   0.9893     H
H       0.7049   0.8285   0.4773     H
H       0.7049   0.8285   0.9893     H
H       0.7049   0.9893   0.4773     H
H       0.7049   0.9893   0.8285     H
H       0.7137   0.0053   0.4417     H
H       0.7137   0.0053   0.8393     H
H       0.7137   0.4417   0.0053     H
H       0.7137   0.4417   0.8393     H
H       0.7137   0.8393   0.0053     H
H       0.7137   0.8393   0.4417     H
O       0.7186   0.4078   0.9368     O
O       0.7186   0.9368   0.4078     O
O       0.7186   0.9368   0.9368     O
C       0.7269   0.0655   0.4807     C
C       0.7269   0.0655   0.7269     C
C       0.7269   0.4807   0.0655     C
C       0.7269   0.4807   0.7269     C
C       0.7269   0.7269   0.0655     C
C       0.7269   0.7269   0.4807     C
O      0.72748  0.21092  0.48768     O
O      0.72748  0.21092  0.57392     O
O      0.72748  0.48768  0.21092     O
O      0.72748  0.48768  0.57392     O
O      0.72748  0.57392  0.21092     O
O      0.72748  0.57392  0.48768     O
C      0.72835  0.14203  0.47747     C
C      0.72835  0.14203  0.65215     C
C      0.72835  0.47747  0.14203     C
C      0.72835  0.47747  0.65215     C
C      0.72835  0.65215  0.14203     C
C      0.72835  0.65215  0.47747     C
C       0.7396   0.4738   0.8052     C
C       0.7396   0.4738   0.9814     C
C       0.7396   0.8052   0.4738     C
C       0.7396   0.8052   0.9814     C
C       0.7396   0.9814   0.4738     C
C       0.7396   0.9814   0.8052     C
C      0.74798  0.44022  0.81622     C
C      0.74798  0.44022  0.99558     C
C      0.74798  0.81622  0.44022     C
C      0.74798  0.81622  0.99558     C
C      0.74798  0.99558  0.44022     C
C      0.74798  0.99558  0.81622     C
Cu    0.751726 0.248274      0.5    Cu
Cu    0.751726      0.5 0.248274    Cu
Cu    0.751726      0.5      0.5    Cu
C        0.753    0.091   0.4804     C
C        0.753    0.091   0.6756     C
C        0.753   0.4804    0.091     C
C        0.753   0.4804   0.6756     C
C        0.753   0.6756    0.091     C
C        0.753   0.6756   0.4804     C
C      0.75347  0.16601  0.48479     C
C      0.75347  0.16601  0.59573     C
C      0.75347  0.48479  0.16601     C
C      0.75347  0.48479  0.59573     C
C      0.75347  0.59573  0.16601     C
C      0.75347  0.59573  0.48479     C
C       0.7559   0.0151   0.4731     C
C       0.7559   0.0151   0.7559     C
C       0.7559   0.4731   0.0151     C
C       0.7559   0.4731   0.7559     C
C       0.7559   0.7559   0.0151     C
C       0.7559   0.7559   0.4731     C
Cu      0.7742    0.477   0.8744    Cu
Cu      0.7742   0.8744    0.477    Cu
Cu      0.7742   0.8744   0.8744    Cu
N       0.7762   0.4694   0.8162     N
N       0.7762   0.4694   0.9382     N
N       0.7762   0.8162   0.4694     N
N       0.7762   0.8162   0.9382     N
N       0.7762   0.9382   0.4694     N
N       0.7762   0.9382   0.8162     N
Cu     0.78645  0.43041  0.89157    Cu
Cu     0.78645  0.89157  0.43041    Cu
Cu     0.78645  0.89157  0.89157    Cu
N      0.78677  0.43243  0.82927     N
N      0.78677  0.43243  0.95153     N
N      0.78677  0.82927  0.43243     N
N      0.78677  0.82927  0.95153     N
N      0.78677  0.95153  0.43243     N
N      0.78677  0.95153  0.82927     N
H       0.7871   0.0731   0.4823     H
H       0.7871   0.0731   0.6575     H
H       0.7871   0.4823   0.0731     H
H       0.7871   0.4823   0.6575     H
H       0.7871   0.6575   0.0731     H
H       0.7871   0.6575   0.4823     H
O      0.78908  0.27252  0.42608     O
O      0.78908  0.27252  0.51232     O
O      0.78908  0.42608  0.27252     O
O      0.78908  0.42608  0.51232     O
O      0.78908  0.51232  0.27252     O
O      0.78908  0.51232  0.42608     O
H       0.7943   0.0821   0.4547     H
H       0.7943   0.0821   0.6689     H
H       0.7943   0.4547   0.0821     H
H       0.7943   0.4547   0.6689     H
H       0.7943   0.6689   0.0821     H
H       0.7943   0.6689   0.4547     H
O      0.79808  0.14028  0.48716     O
O      0.79808  0.14028  0.57448     O
O      0.79808  0.48716  0.14028     O
O      0.79808  0.48716  0.57448     O
O      0.79808  0.57448  0.14028     O
O      0.79808  0.57448  0.48716     O
H       0.8016   0.3426   0.3426     H
H       0.8016   0.3426   0.5132     H
H       0.8016   0.5132   0.3426     H
C       0.8052   0.4738   0.7396     C
C       0.8052   0.4738   0.9814     C
C       0.8052   0.7396   0.4738     C
C       0.8052   0.7396   0.9814     C
C       0.8052   0.9814   0.4738     C
C       0.8052   0.9814   0.7396     C
N       0.8162   0.4694   0.7762     N
N       0.8162   0.4694   0.9382     N
N       0.8162   0.7762   0.4694     N
N       0.8162   0.7762   0.9382     N
N       0.8162   0.9382   0.4694     N
N       0.8162   0.9382   0.7762     N
C      0.81622  0.44022  0.74798     C
C      0.81622  0.44022  0.99558     C
C      0.81622  0.74798  0.44022     C
C      0.81622  0.74798  0.99558     C
C      0.81622  0.99558  0.44022     C
C      0.81622  0.99558  0.74798     C
H       0.8285   0.4773   0.7049     H
H       0.8285   0.4773   0.9893     H
H       0.8285   0.7049   0.4773     H
H       0.8285   0.7049   0.9893     H
H       0.8285   0.9893   0.4773     H
H       0.8285   0.9893   0.7049     H
N      0.82927  0.43243  0.78677     N
N      0.82927  0.43243  0.95153     N
N      0.82927  0.78677  0.43243     N
N      0.82927  0.78677  0.95153     N
N      0.82927  0.95153  0.43243     N
N      0.82927  0.95153  0.78677     N
C      0.83399  0.24653  0.40427     C
C      0.83399  0.24653  0.51521     C
C      0.83399  0.40427  0.24653     C
C      0.83399  0.40427  0.51521     C
C      0.83399  0.51521  0.24653     C
C      0.83399  0.51521  0.40427     C
C      0.83427  0.32359  0.32359     C
C      0.83427  0.32359  0.51855     C
C      0.83427  0.51855  0.32359     C
O       0.8346   0.4962   0.8346     O
O       0.8346   0.8346   0.4962     O
O       0.8346   0.8346   0.8346     O
Cu    0.835506 0.164494      0.5    Cu
Cu    0.835506      0.5 0.164494    Cu
Cu    0.835506      0.5      0.5    Cu
H       0.8393   0.0053   0.4417     H
H       0.8393   0.0053   0.7137     H
H       0.8393   0.4417   0.0053     H
H       0.8393   0.4417   0.7137     H
H       0.8393   0.7137   0.0053     H
H       0.8393   0.7137   0.4417     H
C      0.85797  0.27165  0.34785     C
C      0.85797  0.27165  0.52253     C
C      0.85797  0.34785  0.27165     C
C      0.85797  0.34785  0.52253     C
C      0.85797  0.52253  0.27165     C
C      0.85797  0.52253  0.34785     C
O       0.8582   0.4254   0.8582     O
O       0.8582   0.8582   0.4254     O
O       0.8582   0.8582   0.8582     O
O      0.85972  0.20192  0.42552     O
O      0.85972  0.20192  0.51284     O
O      0.85972  0.42552  0.20192     O
O      0.85972  0.42552  0.51284     O
O      0.85972  0.51284  0.20192     O
O      0.85972  0.51284  0.42552     O
Cu      0.8744    0.477   0.7742    Cu
Cu      0.8744    0.477   0.8744    Cu
Cu      0.8744   0.7742    0.477    Cu
Cu      0.8744   0.7742   0.8744    Cu
Cu      0.8744   0.8744    0.477    Cu
Cu      0.8744   0.8744   0.7742    Cu
Cu     0.89157  0.43041  0.78645    Cu
Cu     0.89157  0.43041  0.89157    Cu
Cu     0.89157  0.78645  0.43041    Cu
Cu     0.89157  0.78645  0.89157    Cu
Cu     0.89157  0.89157  0.43041    Cu
Cu     0.89157  0.89157  0.78645    Cu
O       0.9029   0.0971      0.5     O
O       0.9029      0.5   0.0971     O
O       0.9029      0.5      0.5     O
C      0.90396  0.24224  0.31616     C
C      0.90396  0.24224  0.53764     C
C      0.90396  0.31616  0.24224     C
C      0.90396  0.31616  0.53764     C
C      0.90396  0.53764  0.24224     C
C      0.90396  0.53764  0.31616     C
O       0.9155   0.4705   0.6985     O
O       0.9155   0.4705   0.9155     O
O       0.9155   0.6985   0.4705     O
O       0.9155   0.6985   0.9155     O
O       0.9155   0.9155   0.4705     O
O       0.9155   0.9155   0.6985     O
H       0.9179   0.2057   0.3311     H
H       0.9179   0.2057   0.5453     H
H       0.9179   0.3311   0.2057     H
H       0.9179   0.3311   0.5453     H
H       0.9179   0.5453   0.2057     H
H       0.9179   0.5453   0.3311     H
H       0.9269   0.2129   0.3425     H
H       0.9269   0.2129   0.5177     H
H       0.9269   0.3425   0.2129     H
H       0.9269   0.3425   0.5177     H
H       0.9269   0.5177   0.2129     H
H       0.9269   0.5177   0.3425     H
C       0.9275   0.2657   0.2657     C
C       0.9275   0.2657   0.5411     C
C       0.9275   0.5411   0.2657     C
O       0.9368   0.4078   0.7186     O
O       0.9368   0.4078   0.9368     O
O       0.9368   0.7186   0.4078     O
O       0.9368   0.7186   0.9368     O
O       0.9368   0.9368   0.4078     O
O       0.9368   0.9368   0.7186     O
N       0.9382   0.4694   0.7762     N
N       0.9382   0.4694   0.8162     N
N       0.9382   0.7762   0.4694     N
N       0.9382   0.7762   0.8162     N
N       0.9382   0.8162   0.4694     N
N       0.9382   0.8162   0.7762     N
N      0.95153  0.43243  0.78677     N
N      0.95153  0.43243  0.82927     N
N      0.95153  0.78677  0.43243     N
N      0.95153  0.78677  0.82927     N
N      0.95153  0.82927  0.43243     N
N      0.95153  0.82927  0.78677     N
C       0.9761   0.2347   0.2347     C
C       0.9761   0.2347   0.5545     C
C       0.9761   0.5545   0.2347     C
C       0.9814   0.4738   0.7396     C
C       0.9814   0.4738   0.8052     C
C       0.9814   0.7396   0.4738     C
C       0.9814   0.7396   0.8052     C
C       0.9814   0.8052   0.4738     C
C       0.9814   0.8052   0.7396     C
H       0.9893   0.4773   0.7049     H
H       0.9893   0.4773   0.8285     H
H       0.9893   0.7049   0.4773     H
H       0.9893   0.7049   0.8285     H
H       0.9893   0.8285   0.4773     H
H       0.9893   0.8285   0.7049     H
H       0.9947   0.1607   0.2863     H
H       0.9947   0.1607   0.5583     H
H       0.9947   0.2863   0.1607     H
H       0.9947   0.2863   0.5583     H
H       0.9947   0.5583   0.1607     H
H       0.9947   0.5583   0.2863     H
C      0.99558  0.44022  0.74798     C
C      0.99558  0.44022  0.81622     C
C      0.99558  0.74798  0.44022     C
C      0.99558  0.74798  0.81622     C
C      0.99558  0.81622  0.44022     C
C      0.99558  0.81622  0.74798     C
