data_I
_chemical_name_common  'UiO-66/UiO-66_index_func/cif/functionalized_UiO-66_OCH3_index'
_cell_length_a 14.67267
_cell_length_b 14.67267
_cell_length_c 14.67267
_cell_angle_alpha 60.00000
_cell_angle_beta  60.00000
_cell_angle_gamma 60.00000
_space_group_name_H-M_alt      'P 1'


loop_
_space_group_symop_operation_xyz
  'x, y, z' 

loop_
_atom_site_label
_atom_site_fract_x
_atom_site_fract_y
_atom_site_fract_z
_atom_site_type_symbol
C     0.540393841593027 0.9242502795237599 0.08905211726654794     C
C     0.5403938415930268 0.92425027952376 0.4463037616166652     C
C     0.5403938415930267 0.44630376161666524 0.9242502795237599     C
C     0.540393841593027 0.08905211726654788 0.9242502795237599     C
C     0.5403938415930268 0.08905211726654794 0.4463037616166652     C
C     0.540393841593027 0.4463037616166652 0.08905211726654794     C
H     0.5796082345582476 0.40722896022087995 0.8607835485792726     H
H     0.5796082345582476 0.15237925664159974 0.8607835485792726     H
H     0.5796082345582476 0.15237925664159974 0.40722896022087995     H
C     0.5881323531238939 0.39944212669512663 0.006212760090489745     C
C     0.5881323531238938 0.006212760090489745 0.0062127600904897315     C
C     0.5881323531238938 0.006212760090489738 0.39944212669512674     C
C     0.6911834317301737 0.004048148718604874 0.004048148718604868     C
C     0.6911834317301736 0.0040481487186048715 0.3007202708326165     C
C     0.6911834317301736 0.3007202708326165 0.004048148718604872     C
O     0.7327527779297719 0.9252736277077701 0.07989233042936958     O
O     0.732752777929772 0.9252736277077701 0.26208126393308806     O
O     0.7327527779297721 0.0798923304293696 0.9252736277077703     O
O     0.732752777929772 0.0798923304293696 0.26208126393308806     O
O     0.7327527779297721 0.26208126393308806 0.9252736277077703     O
O     0.732752777929772 0.26208126393308806 0.07989233042936959     O
O     0.8487462449109937 0.050417918363002065 0.05041791836300206     O
H     0.8607835485792726 0.5796082345582475 0.15237925664159976     H
H     0.8607835485792728 0.5796082345582476 0.40722896022088     H
H     0.8607835485792725 0.15237925664159974 0.40722896022087995     H
Zr    0.8802041733385293 0.8802041733385295 0.11979582666147053    Zr
Zr    0.8802041733385295 0.11979582666147048 0.8802041733385295    Zr
Zr    0.8802041733385295 0.11979582666147054 0.11979582666147053    Zr
H     0.9056041904553657 0.9056041904553657 0.9056041904553659     H
H     0.9056041904553656 0.9056041904553658 0.2831874286339028     H
H     0.9056041904553657 0.2831874286339028 0.9056041904553659     H
C     0.9242502795237598 0.4463037616166652 0.540393841593027     C
C     0.9242502795237598 0.4463037616166652 0.08905211726654792     C
C     0.9242502795237598 0.5403938415930268 0.4463037616166652     C
C     0.92425027952376 0.08905211726654796 0.4463037616166652     C
C     0.9242502795237598 0.08905211726654788 0.540393841593027     C
C     0.9242502795237599 0.540393841593027 0.08905211726654794     C
O     0.9252736277077701 0.0798923304293696 0.26208126393308806     O
O     0.9252736277077702 0.262081263933088 0.7327527779297722     O
O     0.9252736277077702 0.26208126393308806 0.07989233042936959     O
O     0.9252736277077701 0.732752777929772 0.07989233042936958     O
O     0.9252736277077701 0.732752777929772 0.26208126393308806     O
O     0.9252736277077702 0.0798923304293695 0.7327527779297722     O
O     0.9326919729898726 0.9326919729898726 0.9326919729898727     O
O     0.9326919729898725 0.9326919729898726 0.2019240810303821     O
O     0.9326919729898726 0.201924081030382 0.9326919729898727     O
C     0.00404814871860483 0.0040481487186048715 0.3007202708326165     C
C     0.0040481487186048715 0.3007202708326165 0.6911834317301737     C
C     0.004048148718604842 0.3007202708326165 0.004048148718604875     C
C     0.0040481487186048715 0.004048148718604844 0.6911834317301737     C
C     0.004048148718604872 0.6911834317301738 0.004048148718604868     C
C     0.004048148718604913 0.6911834317301737 0.3007202708326165     C
C     0.006212760090489738 0.006212760090489738 0.39944212669512674     C
C     0.006212760090489766 0.39944212669512663 0.5881323531238938     C
C     0.006212760090489754 0.39944212669512663 0.006212760090489745     C
C     0.006212760090489815 0.5881323531238937 0.0062127600904897315     C
C     0.006212760090489822 0.5881323531238938 0.39944212669512674     C
C     0.006212760090489711 0.006212760090489711 0.5881323531238938     C
O     0.05041791836300205 0.050417918363002065 0.05041791836300206     O
O     0.05041791836300211 0.8487462449109938 0.05041791836300205     O
O     0.05041791836300208 0.05041791836300208 0.8487462449109938     O
O     0.07989233042936963 0.9252736277077701 0.26208126393308806     O
O     0.07989233042936955 0.262081263933088 0.7327527779297722     O
O     0.0798923304293696 0.26208126393308806 0.9252736277077703     O
O     0.0798923304293695 0.7327527779297721 0.9252736277077703     O
O     0.07989233042936975 0.732752777929772 0.26208126393308806     O
O     0.07989233042936955 0.92527362770777 0.7327527779297722     O
C     0.08905211726654794 0.540393841593027 0.9242502795237599     C
C     0.08905211726654802 0.5403938415930268 0.4463037616166652     C
C     0.08905211726654783 0.92425027952376 0.44630376161666524     C
C     0.08905211726654794 0.9242502795237598 0.540393841593027     C
C     0.08905211726654794 0.4463037616166652 0.540393841593027     C
C     0.08905211726654794 0.44630376161666513 0.9242502795237599     C
Zr    0.11979582666147048 0.8802041733385295 0.8802041733385295    Zr
Zr    0.1197958266614706 0.8802041733385295 0.11979582666147053    Zr
Zr    0.11979582666147054 0.11979582666147048 0.8802041733385295    Zr
H     0.15237925664159957 0.8607835485792726 0.5796082345582476     H
H     0.15237925664159968 0.40722896022088007 0.5796082345582476     H
H     0.15237925664159968 0.40722896022087995 0.8607835485792726     H
O     0.201924081030382 0.9326919729898726 0.9326919729898727     O
O     0.26208126393308806 0.7327527779297721 0.9252736277077703     O
O     0.26208126393308817 0.732752777929772 0.07989233042936958     O
O     0.2620812639330879 0.92527362770777 0.7327527779297722     O
O     0.26208126393308806 0.9252736277077701 0.07989233042936959     O
O     0.2620812639330881 0.0798923304293695 0.7327527779297722     O
O     0.26208126393308806 0.07989233042936955 0.9252736277077703     O
H     0.2831874286339028 0.9056041904553657 0.9056041904553659     H
C     0.30072027083261643 0.6911834317301738 0.004048148718604865     C
C     0.3007202708326164 0.004048148718604844 0.6911834317301737     C
C     0.3007202708326165 0.004048148718604868 0.004048148718604875     C
C     0.3994421266951267 0.5881323531238937 0.0062127600904897315     C
C     0.39944212669512674 0.006212760090489711 0.5881323531238938     C
C     0.3994421266951267 0.0062127600904897315 0.006212760090489745     C
H     0.40722896022087984 0.8607835485792726 0.5796082345582476     H
H     0.40722896022087995 0.8607835485792725 0.15237925664159976     H
H     0.40722896022087995 0.5796082345582475 0.15237925664159976     H
C     0.44630376161666535 0.540393841593027 0.9242502795237599     C
C     0.4463037616166652 0.9242502795237598 0.540393841593027     C
C     0.4463037616166652 0.9242502795237599 0.08905211726654792     C
C     0.4463037616166653 0.08905211726654788 0.540393841593027     C
C     0.44630376161666524 0.08905211726654788 0.9242502795237599     C
C     0.4463037616166653 0.540393841593027 0.08905211726654792     C
O     -0.41658810701266313 -0.1578297373596307 0.17217946715377375     O
C     -0.4698223495380009 -0.23927854680720007 0.2539693090180323     C
H     -0.5558057644107005 -0.199585931317112 0.3005195861786061     H
H     -0.42107171519682 -0.2946551411387118 0.3100532159146069     H
H     -0.4689308704265941 -0.2866930730881226 0.21476894425074777     H
O     -0.41640448889609466 -0.15799762516722568 0.40239900677150325     O
C     -0.4701453834584113 -0.23893037133398376 0.4547629326031153     C
H     -0.46991862195811274 -0.28635877167569423 0.540702123255548     H
H     -0.4212713381562209 -0.29441701637500617 0.40541288739605064     H
H     -0.555909545008821 -0.19878453566885299 0.4538401694393399     H
O     -0.15394486446941633 0.3955424181476931 -0.4098505834997667     O
C     -0.23887999068032306 0.4408322204793892 -0.4567514006848314     C
H     -0.28999735328556764 0.5262291504127418 -0.4559679840180416     H
H     -0.28998821429121513 0.3869178717095808 -0.40353060948196035     H
H     -0.20211291312758778 0.4395479990364333 -0.5421357154096728     H
O     -0.15411495034491626 0.39571071804580965 0.1680865427911654     O
C     -0.23975606239598557 0.44169909495031645 0.2539415498305698     C
H     -0.20369458167679938 0.440835143978009 0.3042214897804188     H
H     -0.2910118342964859 0.3879307405885766 0.3055989080624515     H
H     -0.2905042208409157 0.5270086217800632 0.218170747417307     H
O     -0.15411499084241018 0.16808652586980125 -0.409682299859343     O
C     -0.23975608371975846 0.2539415306470566 -0.455884600106587     C
H     -0.20369458705006693 0.30422148637441304 -0.5413620533059041     H
H     -0.2910118950788164 0.3055988744782576 -0.40251781697993577     H
H     -0.2905042068524933 0.21817072436145507 -0.4546752176313461     H
O     0.17217940654592742 -0.41658804743479855 -0.15782980366632127     O
C     0.2539692494818875 -0.46982229816677085 -0.2392786064002963     C
H     0.3005195873237789 -0.555805681783576 -0.19958599494267534     H
H     0.31005310291560995 -0.4210716099570232 -0.2946552602397635     H
H     0.21476887519565702 -0.46893090705570917 -0.2866930676780446     H
O     0.1720130337771037 -0.41641989023637244 0.40240662346482375     O
C     0.2543247269858907 -0.4701816220948888 0.4547723745067683     C
H     0.21559078235668452 -0.4699634083067945 0.5407143840140184     H
H     0.3102956654291989 -0.42131680517968223 0.4054286300559484     H
H     0.30085585561398376 -0.5559438714961287 0.4538422027683761     H
O     0.17218203535823398 -0.15782747402553704 0.402236308879964     O
C     0.25397162776444465 -0.2392761097212075 0.4551298825611325     C
H     0.30051933639371253 -0.19958297976867326 0.45487362152831456     H
H     0.31005784183620055 -0.29465075582386846 0.40567004238463855     H
H     0.21477147423912446 -0.2866928570216394 0.5408521295155475     H
O     0.3955423678557294 0.16825309109988862 -0.40985064809717847     O
C     0.44083216482464904 0.2547992409944878 -0.4567514867330967     C
H     0.52622907068371 0.21973627221594216 -0.4559680114507626     H
H     0.38691777309255204 0.30660107407331705 -0.4035307478809     H
H     0.43954800395667615 0.30470064202044456 -0.5421358265198709     H
O     0.39571079970142 0.16808650540415654 -0.1541150228071916     O
C     0.44169921430503606 0.2539414883552416 -0.23975612739179697     C
H     0.4408352026861666 0.30422146481098294 -0.20369464522804615     H
H     0.3879309239312132 0.30559881867171723 -0.2910119643607756     H
H     0.5270087692154207 0.2181706580295676 -0.29050422051813346     H
O     -0.4288403022620402 0.40477501170544483 0.1801963223963199     O
C     -0.48845518283923706 0.4646373861887618 0.2569412769862803     C
H     -0.48108716656740486 0.54795215400432 0.21536320297297776     H
H     -0.4492956849207979 0.41584121834230625 0.3212311164546069     H
H     -0.5765282354691812 0.47132963743688644 0.29438839644313236     H
O     0.3955425300309206 -0.40985053987040354 -0.15394496501363933     O
C     0.44083247895471195 -0.4567512850762377 -0.2388801825070351     C
H     0.5262294108348093 -0.45596783138120084 -0.2899974478273673     H
H     0.38691819830107943 -0.40353047040102996 -0.2899884757677711     H
H     0.43954829921013566 -0.5421356059887017 -0.20211320372216882     H
