data_I
_chemical_name_common  '/Users/gianmarcoterrones/Downloads/UiO-66'
_cell_length_a 14.67267
_cell_length_b 14.67267
_cell_length_c 14.67267
_cell_angle_alpha 60.00000
_cell_angle_beta  60.00000
_cell_angle_gamma 60.00000
_space_group_name_H-M_alt      'P 1'


loop_
_space_group_symop_operation_xyz
  'x, y, z' 

loop_
_atom_site_label
_atom_site_fract_x
_atom_site_fract_y
_atom_site_fract_z
_atom_site_type_symbol
C     -0.4596061584069731 -0.07574972047624004 0.08905211726654794     C
C     -0.4596061584069731 -0.07574972047624001 0.4463037616166652     C
C     -0.4596061584069731 0.44630376161666524 -0.07574972047624003     C
C     -0.45960615840697305 0.08905211726654792 -0.07574972047624005     C
C     -0.45960615840697305 0.08905211726654792 0.4463037616166652     C
C     -0.45960615840697305 0.4463037616166652 0.08905211726654794     C
H     -0.42039176544175244 -0.13921645142072733 0.15237925664159976     H
H     -0.42039176544175244 -0.13921645142072733 0.40722896022088     H
H     -0.42039176544175244 0.40722896022088 -0.13921645142072733     H
H     -0.4203917654417524 0.15237925664159976 -0.13921645142072733     H
H     -0.4203917654417524 0.15237925664159976 0.40722896022087995     H
H     -0.4203917654417524 0.40722896022087995 0.15237925664159976     H
C     -0.4118676468761062 0.3994421266951267 0.006212760090489745     C
C     -0.41186764687610616 0.006212760090489745 0.0062127600904897315     C
C     -0.41186764687610616 0.006212760090489745 0.3994421266951267     C
C     -0.30881656826982623 0.004048148718604875 0.004048148718604868     C
C     -0.30881656826982623 0.004048148718604875 0.3007202708326165     C
C     -0.30881656826982623 0.3007202708326165 0.004048148718604872     C
O     -0.2672472220702279 -0.07472637229222975 0.07989233042936958     O
O     -0.2672472220702279 -0.07472637229222975 0.26208126393308806     O
O     -0.2672472220702279 0.07989233042936959 -0.07472637229222977     O
O     -0.2672472220702279 0.07989233042936959 0.26208126393308806     O
O     -0.2672472220702279 0.26208126393308806 -0.07472637229222975     O
O     -0.2672472220702279 0.26208126393308806 0.07989233042936959     O
O     -0.15125375508900618 0.05041791836300206 0.05041791836300206     O
H     -0.13921645142072733 -0.42039176544175244 0.15237925664159976     H
H     -0.13921645142072733 -0.42039176544175244 0.40722896022088     H
H     -0.13921645142072733 0.15237925664159976 -0.42039176544175244     H
H     -0.13921645142072733 0.15237925664159976 0.40722896022087995     H
H     -0.13921645142072733 0.40722896022087995 -0.4203917654417524     H
H     -0.13921645142072733 0.40722896022087995 0.15237925664159976     H
Zr    -0.11979582666147053 -0.11979582666147053 0.11979582666147053    Zr
Zr    -0.11979582666147053 0.11979582666147053 -0.11979582666147053    Zr
Zr    -0.11979582666147053 0.11979582666147053 0.11979582666147053    Zr
H     -0.09439580954463427 -0.09439580954463427 -0.09439580954463427     H
H     -0.09439580954463427 -0.09439580954463427 0.2831874286339028     H
H     -0.09439580954463427 0.2831874286339028 -0.09439580954463427     H
C     -0.07574972047624005 0.4463037616166652 -0.45960615840697305     C
C     -0.07574972047624005 0.4463037616166652 0.08905211726654792     C
C     -0.07574972047624004 -0.4596061584069731 0.4463037616166652     C
C     -0.07574972047624004 0.08905211726654794 0.4463037616166652     C
C     -0.07574972047624003 0.08905211726654792 -0.4596061584069731     C
C     -0.07574972047624001 -0.4596061584069731 0.08905211726654794     C
O     -0.07472637229222977 0.07989233042936959 0.26208126393308806     O
O     -0.07472637229222977 0.26208126393308806 -0.2672472220702279     O
O     -0.07472637229222977 0.26208126393308806 0.07989233042936959     O
O     -0.07472637229222975 -0.2672472220702279 0.07989233042936958     O
O     -0.07472637229222975 -0.2672472220702279 0.26208126393308806     O
O     -0.07472637229222975 0.07989233042936958 -0.2672472220702279     O
O     -0.06730802701012736 -0.06730802701012736 -0.06730802701012736     O
O     -0.06730802701012736 -0.06730802701012736 0.2019240810303821     O
O     -0.06730802701012736 0.2019240810303821 -0.06730802701012736     O
C     0.004048148718604865 0.004048148718604872 0.3007202708326165     C
C     0.004048148718604868 0.3007202708326165 -0.30881656826982623     C
C     0.004048148718604868 0.3007202708326165 0.004048148718604875     C
C     0.004048148718604872 0.004048148718604865 -0.30881656826982623     C
C     0.004048148718604875 -0.30881656826982623 0.004048148718604868     C
C     0.004048148718604875 -0.30881656826982623 0.3007202708326165     C
C     0.0062127600904897315 0.006212760090489745 0.3994421266951267     C
C     0.0062127600904897315 0.3994421266951267 -0.41186764687610616     C
C     0.0062127600904897315 0.3994421266951267 0.006212760090489745     C
C     0.006212760090489745 -0.41186764687610616 0.0062127600904897315     C
C     0.006212760090489745 -0.41186764687610616 0.3994421266951267     C
C     0.006212760090489745 0.0062127600904897315 -0.4118676468761062     C
O     0.05041791836300205 0.05041791836300206 0.05041791836300206     O
O     0.05041791836300206 -0.15125375508900618 0.05041791836300205     O
O     0.05041791836300206 0.05041791836300205 -0.15125375508900618     O
O     0.07989233042936958 -0.07472637229222975 0.26208126393308806     O
O     0.07989233042936958 0.26208126393308806 -0.2672472220702279     O
O     0.07989233042936958 0.26208126393308806 -0.07472637229222975     O
O     0.07989233042936959 -0.2672472220702279 -0.07472637229222977     O
O     0.07989233042936959 -0.2672472220702279 0.26208126393308806     O
O     0.07989233042936959 -0.07472637229222977 -0.2672472220702279     O
C     0.08905211726654792 -0.45960615840697305 -0.07574972047624005     C
C     0.08905211726654792 -0.45960615840697305 0.4463037616166652     C
C     0.08905211726654792 -0.07574972047624003 0.44630376161666524     C
C     0.08905211726654794 -0.07574972047624004 -0.45960615840697305     C
C     0.08905211726654794 0.4463037616166652 -0.4596061584069731     C
C     0.08905211726654794 0.4463037616166652 -0.07574972047624001     C
Zr    0.11979582666147053 -0.11979582666147053 -0.11979582666147053    Zr
Zr    0.11979582666147053 -0.11979582666147053 0.11979582666147053    Zr
Zr    0.11979582666147053 0.11979582666147053 -0.11979582666147053    Zr
H     0.15237925664159976 -0.4203917654417524 -0.13921645142072733     H
H     0.15237925664159976 -0.4203917654417524 0.40722896022087995     H
H     0.15237925664159976 -0.13921645142072733 -0.4203917654417524     H
H     0.15237925664159976 -0.13921645142072733 0.40722896022088     H
H     0.15237925664159976 0.40722896022088 -0.42039176544175244     H
H     0.15237925664159976 0.40722896022088 -0.13921645142072733     H
O     0.2019240810303821 -0.06730802701012736 -0.06730802701012736     O
O     0.26208126393308806 -0.2672472220702279 -0.07472637229222977     O
O     0.26208126393308806 -0.2672472220702279 0.07989233042936958     O
O     0.26208126393308806 -0.07472637229222977 -0.2672472220702279     O
O     0.26208126393308806 -0.07472637229222977 0.07989233042936959     O
O     0.26208126393308806 0.07989233042936958 -0.2672472220702279     O
O     0.26208126393308806 0.07989233042936958 -0.07472637229222975     O
H     0.2831874286339028 -0.09439580954463427 -0.09439580954463427     H
C     0.3007202708326165 -0.30881656826982623 0.004048148718604865     C
C     0.3007202708326165 0.004048148718604868 -0.30881656826982623     C
C     0.3007202708326165 0.004048148718604868 0.004048148718604875     C
C     0.3994421266951267 -0.4118676468761062 0.0062127600904897315     C
C     0.3994421266951267 0.0062127600904897315 -0.41186764687610616     C
C     0.3994421266951267 0.0062127600904897315 0.006212760090489745     C
H     0.40722896022087995 -0.4203917654417524 -0.13921645142072733     H
H     0.40722896022087995 -0.13921645142072733 -0.4203917654417524     H
H     0.40722896022087995 -0.13921645142072733 0.15237925664159976     H
H     0.40722896022088 -0.42039176544175244 0.15237925664159976     H
H     0.40722896022088 0.15237925664159976 -0.42039176544175244     H
H     0.40722896022088 0.15237925664159976 -0.13921645142072733     H
C     0.4463037616166652 -0.45960615840697305 -0.07574972047624004     C
C     0.4463037616166652 -0.07574972047624005 -0.45960615840697305     C
C     0.4463037616166652 -0.07574972047624005 0.08905211726654792     C
C     0.4463037616166652 0.08905211726654794 -0.4596061584069731     C
C     0.4463037616166652 0.08905211726654794 -0.07574972047624004     C
C     0.44630376161666524 -0.4596061584069731 0.08905211726654792     C
