
#######################################################################
#
#                 Cambridge Crystallographic Data Centre
#                                CCDC 
#
#######################################################################
#
# If this CIF has been generated from an entry in the Cambridge 
# Structural Database, then it will include bibliographic, chemical, 
# crystal, experimental, refinement or atomic coordinate data resulting 
# from the CCDC's data processing and validation procedures.
#
#######################################################################

data_I
_symmetry_cell_setting           triclinic
_symmetry_space_group_name_H-M   'P 1'
_symmetry_Int_Tables_number      1
_space_group_name_Hall           'P 1'
loop_
_symmetry_equiv_pos_site_id
_symmetry_equiv_pos_as_xyz
1 x,y,z
_cell_length_a                   18.93165
_cell_length_b                   18.93165
_cell_length_c                   18.93165
_cell_angle_alpha                60.00000
_cell_angle_beta                 60.00000
_cell_angle_gamma                60.00000
_cell_volume                     4797.89
loop_
_atom_site_label
_atom_site_type_symbol
_atom_site_fract_x
_atom_site_fract_y
_atom_site_fract_z
O O -0.2048 0.9396 0.0604
O O -0.2048 0.9396 0.2048
O O -0.141 1.047 0.047
H H -0.135 0.3474 0.7074
H H -0.135 0.3474 1.0802
H H -0.135 0.7074 0.3474
H H -0.135 0.7074 1.0802
H H -0.1349 0.4795 0.5753
H H -0.1349 0.4795 1.0801
H H -0.1349 0.5753 0.4795
H H -0.1349 0.5753 1.0801
Zr Zr -0.09165 0.09165 0.90835
Zr Zr -0.09165 0.09165 1.09165
Zr Zr -0.09165 0.90835 0.09165
Zr Zr -0.09165 0.90835 1.09165
Zr Zr -0.09165 1.09165 -0.09165
Zr Zr -0.09165 1.09165 0.09165
Zr Zr -0.09165 1.09165 0.90835
C C -0.07616 0.43876 0.59224
C C -0.07616 0.43876 1.04516
C C -0.07616 0.59224 0.43876
C C -0.07616 0.59224 1.04516
C C -0.07613 0.36433 0.66667
C C -0.07613 0.36433 1.04513
C C -0.07613 0.66667 0.36433
C C -0.07613 0.66667 1.04513
O O -0.0604 0.2048 0.7952
O O -0.0604 0.2048 1.0604
O O -0.0604 0.7952 0.0604
O O -0.0604 0.7952 0.2048
O O -0.047 0.141 0.953
O O -0.047 0.953 -0.047
O O -0.047 0.953 0.141
C C 0.0 0.2302 0.7698
C C 0.0 0.2302 1.0
C C 0.0 0.3116 0.6884
C C 0.0 0.3116 1.0
C C 0.0 0.4605 0.5395
C C 0.0 0.4605 1.0
C C 0.0 0.5395 0.4605
C C 0.0 0.5395 1.0
C C 0.0 0.6884 0.3116
C C 0.0 0.6884 1.0
C C 0.0 0.7698 0.2302
C C 0.0 0.7698 1.0
O O 0.047 0.047 0.859
O O 0.047 0.047 1.047
O O 0.047 0.859 0.047
O O 0.0604 0.2048 0.7952
O O 0.0604 0.2048 0.9396
O O 0.0604 0.7952 0.2048
O O 0.0604 0.7952 0.9396
O O 0.0604 0.9396 0.2048
O O 0.0604 0.9396 0.7952
C C 0.07613 0.33333 0.63567
C C 0.07613 0.33333 0.95487
C C 0.07613 0.63567 0.33333
C C 0.07613 0.63567 0.95487
C N 0.07616 0.40776 0.56124
C N 0.07616 0.40776 0.95484
C N 0.07616 0.56124 0.40776
C N 0.07616 0.56124 0.95484
Zr Zr 0.09165 -0.09165 0.90835
Zr Zr 0.09165 -0.09165 1.09165
Zr Zr 0.09165 0.09165 0.90835
Zr Zr 0.09165 0.90835 -0.09165
Zr Zr 0.09165 0.90835 0.09165
Zr Zr 0.09165 0.90835 0.90835
Zr Zr 0.09165 0.90835 1.09165
Zr Zr 0.09165 1.09165 -0.09165
Zr Zr 0.09165 1.09165 0.90835
H H 0.135 0.2926 0.6526
H H 0.135 0.2926 0.9198
H H 0.135 0.6526 0.2926
H H 0.135 0.6526 0.9198
O O 0.141 -0.047 0.953
O O 0.2048 -0.0604 0.7952
O O 0.2048 -0.0604 1.0604
O O 0.2048 0.0604 0.7952
O O 0.2048 0.0604 0.9396
O O 0.2048 0.7952 -0.0604
O O 0.2048 0.7952 0.0604
C C 0.2302 0.0 0.7698
C C 0.2302 0.0 1.0
C C 0.2302 0.7698 0.0
H H 0.2926 0.135 0.6526
H H 0.2926 0.135 0.9198
H H 0.2926 0.6526 0.135
C C 0.3116 0.0 0.6884
C C 0.3116 0.0 1.0
C C 0.3116 0.6884 0.0
C C 0.33333 0.07613 0.63567
C C 0.33333 0.07613 0.95487
C C 0.33333 0.63567 0.07613
H H 0.3474 -0.135 0.7074
H H 0.3474 -0.135 1.0802
H H 0.3474 0.7074 -0.135
C C 0.36433 -0.07613 0.66667
C C 0.36433 -0.07613 1.04513
C C 0.36433 0.66667 -0.07613
C C 0.40776 0.07616 0.56124
C C 0.40776 0.07616 0.95484
C C 0.40776 0.56124 0.07616
H H 0.4247 0.1349 0.5205
H H 0.4247 0.1349 0.9199
H H 0.4247 0.5205 0.1349
C N 0.43876 -0.07616 0.59224
C N 0.43876 -0.07616 1.04516
C N 0.43876 0.59224 -0.07616
C C 0.4605 0.0 0.5395
C C 0.4605 0.0 1.0
C C 0.4605 0.5395 0.0
H H 0.5205 0.1349 0.4247
H H 0.5205 0.1349 0.9199
H H 0.5205 0.4247 0.1349
C C 0.5395 0.0 0.4605
C C 0.5395 0.0 1.0
C C 0.5395 0.4605 0.0
C C 0.56124 0.07616 0.40776
C C 0.56124 0.07616 0.95484
C C 0.56124 0.40776 0.07616
C N 0.59224 -0.07616 0.43876
C N 0.59224 -0.07616 1.04516
C N 0.59224 0.43876 -0.07616
C C 0.63567 0.07613 0.33333
C C 0.63567 0.07613 0.95487
C C 0.63567 0.33333 0.07613
H H 0.6526 0.135 0.2926
H H 0.6526 0.135 0.9198
H H 0.6526 0.2926 0.135
C C 0.66667 -0.07613 0.36433
C C 0.66667 -0.07613 1.04513
C C 0.66667 0.36433 -0.07613
C C 0.6884 0.0 0.3116
C C 0.6884 0.0 1.0
C C 0.6884 0.3116 0.0
H H 0.7074 -0.135 0.3474
H H 0.7074 -0.135 1.0802
H H 0.7074 0.3474 -0.135
C C 0.7698 0.0 0.2302
C C 0.7698 0.0 1.0
C C 0.7698 0.2302 0.0
O O 0.7952 0.0604 0.2048
O O 0.7952 0.0604 0.9396
O O 0.7952 0.2048 -0.0604
O O 0.7952 0.2048 0.0604
H H 0.865 0.0802 0.3474
H H 0.865 0.0802 0.7074
H H 0.8651 0.0801 0.4795
H H 0.8651 0.0801 0.5753
Zr Zr 0.90835 -0.09165 0.09165
Zr Zr 0.90835 -0.09165 1.09165
Zr Zr 0.90835 0.09165 -0.09165
Zr Zr 0.90835 0.09165 0.09165
Zr Zr 0.90835 0.09165 0.90835
Zr Zr 0.90835 0.09165 1.09165
C C 0.92384 0.04516 0.43876
C C 0.92384 0.04516 0.59224
C C 0.92387 0.04513 0.36433
C C 0.92387 0.04513 0.66667
O O 0.9396 0.0604 0.2048
O O 0.9396 0.0604 0.7952
C C 1.0 0.0 0.2302
C C 1.0 0.0 0.3116
C C 1.0 0.0 0.4605
C C 1.0 0.0 0.5395
C C 1.0 0.0 0.6884
C C 1.0 0.0 0.7698
C C 1.07613 -0.04513 0.33333
C C 1.07613 -0.04513 0.63567
C N 1.07616 -0.04516 0.40776
C N 1.07616 -0.04516 0.56124
Zr Zr 1.09165 -0.09165 0.09165
Zr Zr 1.09165 -0.09165 0.90835
Zr Zr 1.09165 0.09165 -0.09165
Zr Zr 1.09165 0.09165 0.90835
H H 1.135 -0.0802 0.2926
H H 1.135 -0.0802 0.6526

#END
