data_I
_chemical_name_common  'unctionalizedcif/functionalized_UiO-66_reordered_CO2H_index'
_cell_length_a 14.67267
_cell_length_b 14.67267
_cell_length_c 14.67267
_cell_angle_alpha 60.00000
_cell_angle_beta  60.00000
_cell_angle_gamma 60.00000
_space_group_name_H-M_alt      'P 1'


loop_
_space_group_symop_operation_xyz
  'x, y, z' 

loop_
_atom_site_label
_atom_site_fract_x
_atom_site_fract_y
_atom_site_fract_z
_atom_site_type_symbol
C     0.540393841593027 0.9242502795237599 0.08905211726654794     C
C     0.5403938415930268 0.92425027952376 0.4463037616166652     C
C     0.5403938415930267 0.44630376161666524 0.9242502795237599     C
C     0.540393841593027 0.08905211726654788 0.9242502795237599     C
C     0.5403938415930268 0.08905211726654794 0.4463037616166652     C
C     0.540393841593027 0.4463037616166652 0.08905211726654794     C
C     0.5881323531238939 0.39944212669512663 0.006212760090489745     C
C     0.5881323531238938 0.006212760090489745 0.0062127600904897315     C
C     0.5881323531238938 0.006212760090489738 0.39944212669512674     C
C     0.6911834317301737 0.004048148718604874 0.004048148718604868     C
C     0.6911834317301736 0.0040481487186048715 0.3007202708326165     C
C     0.6911834317301736 0.3007202708326165 0.004048148718604872     C
O     0.7327527779297719 0.9252736277077701 0.07989233042936958     O
O     0.732752777929772 0.9252736277077701 0.26208126393308806     O
O     0.7327527779297721 0.0798923304293696 0.9252736277077703     O
O     0.732752777929772 0.0798923304293696 0.26208126393308806     O
O     0.7327527779297721 0.26208126393308806 0.9252736277077703     O
O     0.732752777929772 0.26208126393308806 0.07989233042936959     O
O     0.8487462449109937 0.050417918363002065 0.05041791836300206     O
Zr    0.8802041733385293 0.8802041733385295 0.11979582666147053    Zr
Zr    0.8802041733385295 0.11979582666147048 0.8802041733385295    Zr
Zr    0.8802041733385295 0.11979582666147054 0.11979582666147053    Zr
C     0.9242502795237598 0.4463037616166652 0.540393841593027     C
C     0.9242502795237598 0.4463037616166652 0.08905211726654792     C
C     0.9242502795237598 0.5403938415930268 0.4463037616166652     C
C     0.92425027952376 0.08905211726654796 0.4463037616166652     C
C     0.9242502795237598 0.08905211726654788 0.540393841593027     C
C     0.9242502795237599 0.540393841593027 0.08905211726654794     C
O     0.9252736277077701 0.0798923304293696 0.26208126393308806     O
O     0.9252736277077702 0.262081263933088 0.7327527779297722     O
O     0.9252736277077702 0.26208126393308806 0.07989233042936959     O
O     0.9252736277077701 0.732752777929772 0.07989233042936958     O
O     0.9252736277077701 0.732752777929772 0.26208126393308806     O
O     0.9252736277077702 0.0798923304293695 0.7327527779297722     O
O     0.9326919729898726 0.9326919729898726 0.9326919729898727     O
O     0.9326919729898725 0.9326919729898726 0.2019240810303821     O
O     0.9326919729898726 0.201924081030382 0.9326919729898727     O
C     0.00404814871860483 0.0040481487186048715 0.3007202708326165     C
C     0.0040481487186048715 0.3007202708326165 0.6911834317301737     C
C     0.004048148718604842 0.3007202708326165 0.004048148718604875     C
C     0.0040481487186048715 0.004048148718604844 0.6911834317301737     C
C     0.004048148718604872 0.6911834317301738 0.004048148718604868     C
C     0.004048148718604913 0.6911834317301737 0.3007202708326165     C
C     0.006212760090489738 0.006212760090489738 0.39944212669512674     C
C     0.006212760090489766 0.39944212669512663 0.5881323531238938     C
C     0.006212760090489754 0.39944212669512663 0.006212760090489745     C
C     0.006212760090489815 0.5881323531238937 0.0062127600904897315     C
C     0.006212760090489822 0.5881323531238938 0.39944212669512674     C
C     0.006212760090489711 0.006212760090489711 0.5881323531238938     C
O     0.05041791836300205 0.050417918363002065 0.05041791836300206     O
O     0.05041791836300211 0.8487462449109938 0.05041791836300205     O
O     0.05041791836300208 0.05041791836300208 0.8487462449109938     O
O     0.07989233042936963 0.9252736277077701 0.26208126393308806     O
O     0.07989233042936955 0.262081263933088 0.7327527779297722     O
O     0.0798923304293696 0.26208126393308806 0.9252736277077703     O
O     0.0798923304293695 0.7327527779297721 0.9252736277077703     O
O     0.07989233042936975 0.732752777929772 0.26208126393308806     O
O     0.07989233042936955 0.92527362770777 0.7327527779297722     O
C     0.08905211726654794 0.540393841593027 0.9242502795237599     C
C     0.08905211726654802 0.5403938415930268 0.4463037616166652     C
C     0.08905211726654783 0.92425027952376 0.44630376161666524     C
C     0.08905211726654794 0.9242502795237598 0.540393841593027     C
C     0.08905211726654794 0.4463037616166652 0.540393841593027     C
C     0.08905211726654794 0.44630376161666513 0.9242502795237599     C
Zr    0.11979582666147048 0.8802041733385295 0.8802041733385295    Zr
Zr    0.1197958266614706 0.8802041733385295 0.11979582666147053    Zr
Zr    0.11979582666147054 0.11979582666147048 0.8802041733385295    Zr
O     0.201924081030382 0.9326919729898726 0.9326919729898727     O
O     0.26208126393308806 0.7327527779297721 0.9252736277077703     O
O     0.26208126393308817 0.732752777929772 0.07989233042936958     O
O     0.2620812639330879 0.92527362770777 0.7327527779297722     O
O     0.26208126393308806 0.9252736277077701 0.07989233042936959     O
O     0.2620812639330881 0.0798923304293695 0.7327527779297722     O
O     0.26208126393308806 0.07989233042936955 0.9252736277077703     O
H     0.2831874286339028 0.9056041904553657 0.9056041904553659     H
C     0.30072027083261643 0.6911834317301738 0.004048148718604865     C
C     0.3007202708326164 0.004048148718604844 0.6911834317301737     C
C     0.3007202708326165 0.004048148718604868 0.004048148718604875     C
C     0.3994421266951267 0.5881323531238937 0.0062127600904897315     C
C     0.39944212669512674 0.006212760090489711 0.5881323531238938     C
C     0.3994421266951267 0.0062127600904897315 0.006212760090489745     C
C     0.44630376161666535 0.540393841593027 0.9242502795237599     C
C     0.4463037616166652 0.9242502795237598 0.540393841593027     C
C     0.4463037616166652 0.9242502795237599 0.08905211726654792     C
C     0.4463037616166653 0.08905211726654788 0.540393841593027     C
C     0.44630376161666524 0.08905211726654788 0.9242502795237599     C
C     0.4463037616166653 0.540393841593027 0.08905211726654792     C
H     0.5796082345582475 0.8607835485792725 0.15237925664159976     H
H     0.5796082345582476 0.15237925664159974 0.8607835485792726     H
H     0.5796082345582476 0.15237925664159974 0.40722896022087995     H
H     0.5796082345582475 0.40722896022087995 0.15237925664159976     H
H     0.8607835485792726 0.5796082345582475 0.15237925664159976     H
H     0.8607835485792728 0.5796082345582476 0.40722896022088     H
H     0.8607835485792725 0.15237925664159974 0.40722896022087995     H
H     0.8607835485792726 0.40722896022087995 0.5796082345582476     H
H     0.9056041904553657 0.9056041904553657 0.9056041904553659     H
H     0.9056041904553656 0.9056041904553658 0.2831874286339028     H
H     0.9056041904553657 0.2831874286339028 0.9056041904553659     H
H     0.15237925664159974 0.5796082345582476 0.40722896022087995     H
H     0.15237925664159957 0.8607835485792726 0.5796082345582476     H
H     0.15237925664159968 0.40722896022088007 0.5796082345582476     H
H     0.15237925664159968 0.40722896022087995 0.8607835485792726     H
H     0.40722896022087984 0.5796082345582476 0.8607835485792726     H
H     0.40722896022087984 0.8607835485792726 0.5796082345582476     H
H     0.40722896022087995 0.8607835485792725 0.15237925664159976     H
H     0.40722896022088007 0.15237925664159974 0.8607835485792726     H
C     -0.417970483350683 -0.17485754045791152 0.4099653113523601     C
O     -0.47376489124122895 -0.17831985942426562 0.3732580627240843     O
O     -0.31973195119021647 -0.25295247858126935 0.41472869184126926     O
H     -0.2838317303054486 -0.23981160364626386 0.4469268985227228     H
C     0.37943145693677893 0.17517094489477034 -0.3999357396920086     C
O     0.3772279486293092 0.1470409326060859 -0.3059486266252539     O
O     0.32880438165245773 0.28003299059485465 -0.45315696358811014     O
H     0.337031750174844 0.2907975276084789 -0.5287367500454331     H
C     0.18911874919015564 -0.42429376753742565 -0.1684668613719704     C
O     0.1940940104965111 -0.388120727691784 -0.26487529481749383     O
O     0.2663917387153539 -0.4293342782966182 -0.14218362727145611     O
H     0.2520255499262801 -0.4610265057954563 -0.060731034603906775     H
C     -0.16105741128580292 0.38575491831101966 0.1689147677648387     C
O     -0.13176495932588958 0.29158396847013557 0.23177345964775115     O
O     -0.26644931215710493 0.4384070274136998 0.17159673892862717     O
H     -0.2781730897434971 0.5142268203608962 0.11548818593018557     H
C     0.18911867845436273 -0.1684669190617924 0.40364191569992136     C
O     0.19409388157489896 -0.26487533131695074 0.458902100079859     O
O     0.2663916683016417 -0.14218375627813304 0.30512617921866664     O
H     0.25202553106762404 -0.06073117291376194 0.2697319597916413     H
C     -0.16105724677031583 0.16891501365524794 -0.39361251544168113     C
O     -0.13176460871713316 0.23177371978049724 -0.391592971550211     O
O     -0.2664492081625275 0.1715971721899251 -0.3435546169498054     O
H     -0.27817314195596465 0.1154885824808068 -0.35154185835111973     H
C     -0.42421950712432177 0.4039833298903321 -0.16874403351831038     C
O     -0.3881316593572005 0.45948726671289336 -0.2650570666459009     O
O     -0.4291035545751107 0.3054937962887417 -0.14280199932131518     O
H     -0.46074152921477823 0.2698811577566289 -0.06138802624685991     H
C     0.3857548219457753 -0.3936123520365687 0.16891485297018602     C
O     0.2915838870676055 -0.3915926382443944 0.23177352497121453     O
O     0.4384068343835327 -0.3435544975196627 0.17159691671583197     O
H     0.5142266267931068 -0.35154188303815037 0.11548836912586383     H
