data_I
_chemical_name_common  '/Users/gianmarcoterrones/Downloads/UiO-66-F2'
_cell_length_a 14.67267
_cell_length_b 14.67267
_cell_length_c 14.67267
_cell_angle_alpha 60.00000
_cell_angle_beta  60.00000
_cell_angle_gamma 60.00000
_space_group_name_H-M_alt      'P 1'


loop_
_space_group_symop_operation_xyz
  'x, y, z' 

loop_
_atom_site_label
_atom_site_fract_x
_atom_site_fract_y
_atom_site_fract_z
_atom_site_type_symbol
O     0.06730802999999999 0.06730802999999999 0.06730803     O
O     0.06730802999999999 0.06730802999999999 0.79807592     O
O     0.06730802999999999 0.79807592 0.06730803     O
O     0.07472636999999993 0.26724722 0.73791874     O
O     0.07472636999999994 0.7379187399999999 0.92010767     O
O     0.07472636999999997 0.73791874 0.26724722     O
O     0.07472636999999999 0.92010767 0.73791874     O
O     0.07472637 0.26724721999999995 0.92010767     O
O     0.07472637000000003 0.9201076699999999 0.26724722     O
C     0.07574971999999998 0.45960615999999993 0.91094788     C
C     0.07574971999999998 0.91094788 0.55369624     C
C     0.07574972 0.55369624 0.45960616     C
C     0.07574972000000003 0.45960615999999993 0.55369624     C
C     0.07574972000000003 0.55369624 0.91094788     C
C     0.07574972000000003 0.9109478799999999 0.45960616     C
H     0.09439580999999993 0.71681257 0.09439581     H
H     0.09439580999999994 0.09439581 0.71681257     H
H     0.09439580999999996 0.09439580999999998 0.09439581     H
Zr    0.11979582999999991 0.88020417 0.88020417    Zr
Zr    0.11979582999999996 0.11979583000000002 0.88020417    Zr
Zr    0.11979583000000003 0.8802041699999997 0.11979583    Zr
H     0.13921644999999985 0.8476207399999999 0.59277104     H
H     0.1392164499999999 0.42039177 0.84762074     H
H     0.13921644999999996 0.59277104 0.42039177000000005     H
O     0.15125375999999985 0.9495820799999999 0.94958208     O
O     0.26724721999999995 0.07472636999999994 0.92010767     O
O     0.26724721999999995 0.7379187399999999 0.92010767     O
O     0.26724722 0.9201076699999999 0.07472637     O
O     0.26724722 0.92010767 0.73791874     O
O     0.26724722000000006 0.7379187399999999 0.07472637     O
O     0.2672472200000001 0.07472636999999999 0.73791874     O
C     0.30881657000000007 0.6992797299999999 0.99595185     C
C     0.30881657000000007 0.9959518499999999 0.6992797300000001     C
C     0.3088165700000002 0.9959518499999999 0.99595185     C
C     0.4118676499999998 0.60055787 0.9937872400000001     C
C     0.4118676499999998 0.99378724 0.60055787     C
C     0.4118676499999999 0.99378724 0.9937872400000001     C
F     0.41393444251372 -0.17067645002084367 0.6002319760217766     F
F     0.41393444251372 0.15651003148534712 0.8293235499791562     F
F     0.4139344425137208 0.6002319760217761 0.1565100314853472     F
H     0.4203917699999999 0.59277104 0.84762074     H
H     0.42039176999999994 0.84762074 0.13921645     H
H     0.42039177 0.13921644999999996 0.59277104     H
C     0.45960615999999993 0.07574971999999998 0.91094788     C
C     0.45960615999999993 0.91094788 0.55369624     C
C     0.45960616000000004 0.07574971999999998 0.55369624     C
C     0.45960616000000004 0.55369624 0.91094788     C
C     0.45960616000000004 0.9109478799999999 0.07574972     C
C     0.4596061600000001 0.5536962399999998 0.07574972     C
C     0.5536962399999998 0.9109478799999999 0.07574972     C
C     0.55369624 0.07574971999999998 0.91094788     C
C     0.55369624 0.07574972 0.45960616     C
C     0.55369624 0.45960615999999993 0.91094788     C
C     0.55369624 0.45960616 0.07574972     C
C     0.55369624 0.9109478799999999 0.45960616     C
H     0.5927710399999998 0.84762074 0.42039177000000005     H
H     0.5927710399999999 0.13921644999999996 0.84762074     H
H     0.59277104 0.42039177 0.13921645     H
F     0.6002319760217759 0.41393444251372 -0.17067645002084358     F
F     0.6002319760217765 -0.170676450020844 1.156510031485347     F
F     0.6002319760217766 0.15651003148534715 0.4139344425137201     F
C     0.6005578699999997 0.99378724 0.9937872400000001     C
C     0.6005578699999999 0.41186765000000003 0.9937872400000001     C
C     0.6005578699999999 0.99378724 0.41186765     C
C     0.6992797299999999 0.30881656999999996 0.99595185     C
C     0.6992797299999999 0.9959518499999999 0.99595185     C
C     0.6992797299999999 0.99595185 0.30881657     C
H     0.7168125700000001 0.09439580999999998 0.09439581     H
O     0.73791874 0.07472637 0.26724722     O
O     0.73791874 0.26724721999999995 0.07472637     O
O     0.73791874 0.9201076699999999 0.07472637     O
O     0.7379187400000001 0.07472636999999994 0.92010767     O
O     0.7379187400000001 0.26724721999999995 0.92010767     O
O     0.7379187400000001 0.9201076699999999 0.26724722     O
O     0.79807592 0.06730802999999999 0.06730803     O
F     0.8293235499791559 0.1565100314853471 0.6002319760217765     F
F     0.8293235499791559 0.6002319760217767 0.41393444251372025     F
F     0.8293235499791564 0.41393444251371986 0.15651003148534748     F
H     0.8476207399999998 0.59277104 0.13921645     H
H     0.8476207400000001 0.13921644999999996 0.42039177000000005     H
H     0.8476207400000001 0.42039177 0.59277104     H
Zr    0.8802041699999997 0.11979582999999998 0.11979583    Zr
Zr    0.8802041699999997 0.11979583000000002 0.88020417    Zr
Zr    0.8802041699999998 0.8802041699999997 0.11979583    Zr
C     0.9109478799999998 0.5536962399999998 0.07574972     C
C     0.9109478799999999 0.55369624 0.45960616     C
C     0.91094788 0.07574971999999998 0.55369624     C
C     0.91094788 0.45960616 0.07574972     C
C     0.9109478800000002 0.07574972 0.45960616     C
C     0.9109478800000003 0.45960615999999993 0.55369624     C
O     0.9201076699999998 0.07472636999999999 0.73791874     O
O     0.9201076699999999 0.7379187399999999 0.07472637     O
O     0.9201076699999999 0.73791874 0.26724722     O
O     0.92010767 0.26724721999999995 0.07472637     O
O     0.92010767 0.26724722 0.73791874     O
O     0.9201076700000002 0.07472637 0.26724722     O
O     0.9495820799999999 0.15125375999999996 0.94958208     O
O     0.9495820799999999 0.94958208 0.15125376     O
O     0.9495820800000001 0.9495820799999999 0.94958208     O
C     0.9937872399999997 0.41186765000000003 0.60055787     C
C     0.9937872399999997 0.41186765000000003 0.9937872400000001     C
C     0.9937872399999997 0.60055787 0.9937872400000001     C
C     0.99378724 0.6005578699999999 0.41186765     C
C     0.99378724 0.99378724 0.41186765     C
C     0.99378724 0.99378724 0.60055787     C
C     0.9959518499999996 0.30881656999999996 0.6992797300000001     C
C     0.9959518499999996 0.6992797299999999 0.99595185     C
C     0.9959518499999996 0.9959518499999999 0.6992797300000001     C
C     0.9959518499999999 0.30881656999999996 0.99595185     C
C     0.99595185 0.6992797299999999 0.30881657     C
C     0.99595185 0.99595185 0.30881657     C
F     1.1565100314853474 0.4139344425137199 0.6002319760217761     F
F     1.1565100314853476 -0.17067645002084375 0.4139344425137202     F
F     1.1565100314853476 0.6002319760217762 -0.17067645002084325     F
