# Generated by pormake.
# Topology fcu, (12)-cn, num edge types: 1
# Building blocks:
#     Node 0, Type 0, BuildingBlock: UiO-66_sbu_0, # of connection points: 12
#     Node 1, Type 0, BuildingBlock: UiO-66_sbu_0, # of connection points: 12
#     Node 2, Type 0, BuildingBlock: UiO-66_sbu_0, # of connection points: 12
#     Node 3, Type 0, BuildingBlock: UiO-66_sbu_0, # of connection points: 12
#     Edge 4, Type (0, 0), BuildingBlock: 1,4-NDC_final, # of connection points: 2
#     Edge 5, Type (0, 0), BuildingBlock: 1,4-NDC_final, # of connection points: 2
#     Edge 6, Type (0, 0), BuildingBlock: 1,4-NDC_final, # of connection points: 2
#     Edge 7, Type (0, 0), BuildingBlock: 1,4-NDC_final, # of connection points: 2
#     Edge 8, Type (0, 0), BuildingBlock: 1,4-NDC_final, # of connection points: 2
#     Edge 9, Type (0, 0), BuildingBlock: 1,4-NDC_final, # of connection points: 2
#     Edge 10, Type (0, 0), BuildingBlock: 1,4-NDC_final, # of connection points: 2
#     Edge 11, Type (0, 0), BuildingBlock: 1,4-NDC_final, # of connection points: 2
#     Edge 12, Type (0, 0), BuildingBlock: 1,4-NDC_final, # of connection points: 2
#     Edge 13, Type (0, 0), BuildingBlock: 1,4-NDC_final, # of connection points: 2
#     Edge 14, Type (0, 0), BuildingBlock: 1,4-NDC_final, # of connection points: 2
#     Edge 15, Type (0, 0), BuildingBlock: 1,4-NDC_final, # of connection points: 2
#     Edge 16, Type (0, 0), BuildingBlock: 1,4-NDC_final, # of connection points: 2
#     Edge 17, Type (0, 0), BuildingBlock: 1,4-NDC_final, # of connection points: 2
#     Edge 18, Type (0, 0), BuildingBlock: 1,4-NDC_final, # of connection points: 2
#     Edge 19, Type (0, 0), BuildingBlock: 1,4-NDC_final, # of connection points: 2
#     Edge 20, Type (0, 0), BuildingBlock: 1,4-NDC_final, # of connection points: 2
#     Edge 21, Type (0, 0), BuildingBlock: 1,4-NDC_final, # of connection points: 2
#     Edge 22, Type (0, 0), BuildingBlock: 1,4-NDC_final, # of connection points: 2
#     Edge 23, Type (0, 0), BuildingBlock: 1,4-NDC_final, # of connection points: 2
#     Edge 24, Type (0, 0), BuildingBlock: 1,4-NDC_final, # of connection points: 2
#     Edge 25, Type (0, 0), BuildingBlock: 1,4-NDC_final, # of connection points: 2
#     Edge 26, Type (0, 0), BuildingBlock: 1,4-NDC_final, # of connection points: 2
#     Edge 27, Type (0, 0), BuildingBlock: 1,4-NDC_final, # of connection points: 2
# Relax obj value: 0.001
# Max RMSD: 0.020
# Mean RMSD: 0.020
data_UiO-1,4-NDC
_symmetry_space_group_name_H-M    P1
_symmetry_Int_Tables_number       1
_symmetry_cell_setting            triclinic
loop_
_symmetry_equiv_pos_as_xyz
'x, y, z'
_cell_length_a     20.803
_cell_length_b     20.803
_cell_length_c     20.803
_cell_angle_alpha  90.000
_cell_angle_beta   90.000
_cell_angle_gamma  90.000
loop_
_atom_site_label
_atom_site_type_symbol
_atom_site_fract_x
_atom_site_fract_y
_atom_site_fract_z
_atom_type_partial_charge
Zr0 Zr 0.11959 0.00010 0.00010 0.0
O1 O 0.06724 0.93296 0.06724 0.0
Zr2 Zr 0.00010 0.88061 0.00010 0.0
O3 O 0.05039 0.05039 0.05039 0.0
Zr4 Zr 0.00010 0.00010 0.11959 0.0
Zr5 Zr 0.00010 0.00010 0.88061 0.0
Zr6 Zr 0.00010 0.11959 0.00010 0.0
H7 H 0.09426 0.09426 0.90594 0.0
H8 H 0.09426 0.90594 0.09426 0.0
O9 O 0.05039 0.94981 0.94981 0.0
O10 O 0.06724 0.06724 0.93296 0.0
O11 O 0.93296 0.93296 0.93296 0.0
O12 O 0.94981 0.94981 0.05039 0.0
O13 O 0.94981 0.05039 0.94981 0.0
Zr14 Zr 0.88061 0.00010 0.00010 0.0
O15 O 0.93296 0.06724 0.06724 0.0
H16 H 0.90594 0.90594 0.90594 0.0
H17 H 0.90594 0.09426 0.09426 0.0
C18 C 0.15210 0.99606 0.84810 0.0
C19 C 0.15210 0.84810 0.99606 0.0
C20 C 0.00414 0.84810 0.84810 0.0
C21 C 0.99606 0.84810 0.15210 0.0
C22 C 0.84810 0.00414 0.84810 0.0
C23 C 0.84810 0.84810 0.00414 0.0
C24 C 0.99606 0.15210 0.84810 0.0
C25 C 0.15210 0.15210 0.00414 0.0
C26 C 0.15210 0.00414 0.15210 0.0
C27 C 0.00414 0.15210 0.15210 0.0
C28 C 0.84810 0.15210 0.99606 0.0
C29 C 0.84810 0.99606 0.15210 0.0
O30 O 0.17065 0.99752 0.90666 0.0
O31 O 0.17065 0.90666 0.99752 0.0
O32 O 0.09354 0.99752 0.82955 0.0
O33 O 0.09354 0.82955 0.99752 0.0
O34 O 0.00268 0.90666 0.82955 0.0
O35 O 0.00268 0.82955 0.90666 0.0
O36 O 0.99752 0.82955 0.09354 0.0
O37 O 0.90666 0.00268 0.82955 0.0
O38 O 0.90666 0.82955 0.00268 0.0
O39 O 0.17065 0.09354 0.00268 0.0
O40 O 0.17065 0.00268 0.09354 0.0
O41 O 0.99752 0.09354 0.82955 0.0
O42 O 0.99752 0.90666 0.17065 0.0
O43 O 0.82955 0.00268 0.90666 0.0
O44 O 0.82955 0.90666 0.00268 0.0
O45 O 0.09354 0.17065 0.00268 0.0
O46 O 0.09354 0.00268 0.17065 0.0
O47 O 0.99752 0.17065 0.90666 0.0
O48 O 0.00268 0.17065 0.09354 0.0
O49 O 0.00268 0.09354 0.17065 0.0
O50 O 0.90666 0.17065 0.99752 0.0
O51 O 0.90666 0.99752 0.17065 0.0
O52 O 0.82955 0.09354 0.99752 0.0
O53 O 0.82955 0.99752 0.09354 0.0
Zr54 Zr 0.88061 0.50001 0.50000 0.0
O55 O 0.93296 0.56714 0.43287 0.0
Zr56 Zr 0.00010 0.50001 0.38051 0.0
O57 O 0.94981 0.55030 0.55029 0.0
Zr58 Zr 0.00010 0.61950 0.50000 0.0
Zr59 Zr 0.00010 0.38052 0.50000 0.0
Zr60 Zr 0.00010 0.50001 0.61949 0.0
H61 H 0.90594 0.40585 0.59416 0.0
H62 H 0.90594 0.59416 0.40585 0.0
O63 O 0.94981 0.44972 0.44971 0.0
O64 O 0.93296 0.43287 0.56714 0.0
O65 O 0.06724 0.43287 0.43287 0.0
O66 O 0.05039 0.55030 0.44971 0.0
O67 O 0.05039 0.44972 0.55029 0.0
Zr68 Zr 0.11959 0.50001 0.50000 0.0
O69 O 0.06724 0.56714 0.56714 0.0
H70 H 0.09426 0.40585 0.40585 0.0
H71 H 0.09426 0.59416 0.59416 0.0
C72 C 0.84810 0.34801 0.49596 0.0
C73 C 0.84810 0.49597 0.34801 0.0
C74 C 0.99606 0.34801 0.34801 0.0
C75 C 0.00414 0.65200 0.34801 0.0
C76 C 0.15210 0.34801 0.50404 0.0
C77 C 0.15210 0.50404 0.34801 0.0
C78 C 0.00414 0.34801 0.65200 0.0
C79 C 0.84810 0.50404 0.65200 0.0
C80 C 0.84810 0.65200 0.50404 0.0
C81 C 0.99606 0.65200 0.65200 0.0
C82 C 0.15210 0.49597 0.65200 0.0
C83 C 0.15210 0.65200 0.49596 0.0
O84 O 0.82955 0.40657 0.49743 0.0
O85 O 0.82955 0.49743 0.40656 0.0
O86 O 0.90666 0.32946 0.49743 0.0
O87 O 0.90666 0.49743 0.32945 0.0
O88 O 0.99752 0.32946 0.40656 0.0
O89 O 0.99752 0.40657 0.32945 0.0
O90 O 0.00268 0.59345 0.32945 0.0
O91 O 0.09354 0.32946 0.50258 0.0
O92 O 0.09354 0.50258 0.32945 0.0
O93 O 0.82955 0.50258 0.59344 0.0
O94 O 0.82955 0.59345 0.50258 0.0
O95 O 0.00268 0.32946 0.59344 0.0
O96 O 0.00268 0.67056 0.40656 0.0
O97 O 0.17065 0.40657 0.50258 0.0
O98 O 0.17065 0.50258 0.40656 0.0
O99 O 0.90666 0.50258 0.67055 0.0
O100 O 0.90666 0.67056 0.50258 0.0
O101 O 0.00268 0.40657 0.67055 0.0
O102 O 0.99752 0.59345 0.67055 0.0
O103 O 0.99752 0.67056 0.59344 0.0
O104 O 0.09354 0.49743 0.67055 0.0
O105 O 0.09354 0.67056 0.49743 0.0
O106 O 0.17065 0.49743 0.59344 0.0
O107 O 0.17065 0.59345 0.49743 0.0
Zr108 Zr 0.61949 0.00010 0.50000 0.0
O109 O 0.56714 0.93296 0.56714 0.0
Zr110 Zr 0.50000 0.88061 0.50000 0.0
O111 O 0.55029 0.05039 0.55029 0.0
Zr112 Zr 0.50000 0.00010 0.61949 0.0
Zr113 Zr 0.50000 0.00010 0.38051 0.0
Zr114 Zr 0.50000 0.11959 0.50000 0.0
H115 H 0.59416 0.09426 0.40584 0.0
H116 H 0.59416 0.90594 0.59415 0.0
O117 O 0.55029 0.94981 0.44971 0.0
O118 O 0.56714 0.06724 0.43286 0.0
O119 O 0.43286 0.93296 0.43286 0.0
O120 O 0.44971 0.94981 0.55029 0.0
O121 O 0.44971 0.05039 0.44971 0.0
Zr122 Zr 0.38051 0.00010 0.50000 0.0
O123 O 0.43286 0.06724 0.56714 0.0
H124 H 0.40584 0.90594 0.40584 0.0
H125 H 0.40584 0.09426 0.59415 0.0
C126 C 0.65200 0.99606 0.34800 0.0
C127 C 0.65200 0.84810 0.49596 0.0
C128 C 0.50404 0.84810 0.34800 0.0
C129 C 0.49596 0.84810 0.65200 0.0
C130 C 0.34800 0.00414 0.34800 0.0
C131 C 0.34800 0.84810 0.50404 0.0
C132 C 0.49596 0.15210 0.34800 0.0
C133 C 0.65200 0.15210 0.50404 0.0
C134 C 0.65200 0.00414 0.65200 0.0
C135 C 0.50404 0.15210 0.65200 0.0
C136 C 0.34800 0.15210 0.49596 0.0
C137 C 0.34800 0.99606 0.65200 0.0
O138 O 0.67055 0.99752 0.40656 0.0
O139 O 0.67055 0.90666 0.49742 0.0
O140 O 0.59344 0.99752 0.32945 0.0
O141 O 0.59344 0.82955 0.49742 0.0
O142 O 0.50258 0.90666 0.32945 0.0
O143 O 0.50258 0.82955 0.40656 0.0
O144 O 0.49742 0.82955 0.59344 0.0
O145 O 0.40656 0.00268 0.32945 0.0
O146 O 0.40656 0.82955 0.50258 0.0
O147 O 0.67055 0.09354 0.50258 0.0
O148 O 0.67055 0.00268 0.59344 0.0
O149 O 0.49742 0.09354 0.32945 0.0
O150 O 0.49742 0.90666 0.67055 0.0
O151 O 0.32945 0.00268 0.40656 0.0
O152 O 0.32945 0.90666 0.50258 0.0
O153 O 0.59344 0.17065 0.50258 0.0
O154 O 0.59344 0.00268 0.67055 0.0
O155 O 0.49742 0.17065 0.40656 0.0
O156 O 0.50258 0.17065 0.59344 0.0
O157 O 0.50258 0.09354 0.67055 0.0
O158 O 0.40656 0.17065 0.49742 0.0
O159 O 0.40656 0.99752 0.67055 0.0
O160 O 0.32945 0.09354 0.49742 0.0
O161 O 0.32945 0.99752 0.59344 0.0
Zr162 Zr 0.61949 0.50000 0.00010 0.0
O163 O 0.56714 0.43286 0.06724 0.0
Zr164 Zr 0.50000 0.38051 0.00010 0.0
O165 O 0.55029 0.55029 0.05039 0.0
Zr166 Zr 0.50000 0.50000 0.11959 0.0
Zr167 Zr 0.50000 0.50000 0.88061 0.0
Zr168 Zr 0.50000 0.61949 0.00010 0.0
H169 H 0.59416 0.59415 0.90594 0.0
H170 H 0.59416 0.40584 0.09426 0.0
O171 O 0.55029 0.44971 0.94981 0.0
O172 O 0.56714 0.56713 0.93296 0.0
O173 O 0.43286 0.43286 0.93296 0.0
O174 O 0.44971 0.44971 0.05039 0.0
O175 O 0.44971 0.55029 0.94981 0.0
Zr176 Zr 0.38051 0.50000 0.00010 0.0
O177 O 0.43286 0.56713 0.06724 0.0
H178 H 0.40584 0.40584 0.90594 0.0
H179 H 0.40584 0.59415 0.09426 0.0
C180 C 0.65200 0.49596 0.84810 0.0
C181 C 0.65200 0.34800 0.99606 0.0
C182 C 0.50404 0.34800 0.84810 0.0
C183 C 0.49596 0.34800 0.15210 0.0
C184 C 0.34800 0.50404 0.84810 0.0
C185 C 0.34800 0.34800 0.00414 0.0
C186 C 0.49596 0.65199 0.84810 0.0
C187 C 0.65200 0.65199 0.00414 0.0
C188 C 0.65200 0.50404 0.15210 0.0
C189 C 0.50404 0.65199 0.15210 0.0
C190 C 0.34800 0.65199 0.99606 0.0
C191 C 0.34800 0.49596 0.15210 0.0
O192 O 0.67055 0.49742 0.90666 0.0
O193 O 0.67055 0.40656 0.99752 0.0
O194 O 0.59344 0.49742 0.82955 0.0
O195 O 0.59344 0.32945 0.99752 0.0
O196 O 0.50258 0.40656 0.82955 0.0
O197 O 0.50258 0.32945 0.90666 0.0
O198 O 0.49742 0.32945 0.09354 0.0
O199 O 0.40656 0.50257 0.82955 0.0
O200 O 0.40656 0.32945 0.00268 0.0
O201 O 0.67055 0.59344 0.00268 0.0
O202 O 0.67055 0.50257 0.09354 0.0
O203 O 0.49742 0.59344 0.82955 0.0
O204 O 0.49742 0.40656 0.17065 0.0
O205 O 0.32945 0.50257 0.90666 0.0
O206 O 0.32945 0.40656 0.00268 0.0
O207 O 0.59344 0.67055 0.00268 0.0
O208 O 0.59344 0.50257 0.17065 0.0
O209 O 0.49742 0.67055 0.90666 0.0
O210 O 0.50258 0.67055 0.09354 0.0
O211 O 0.50258 0.59344 0.17065 0.0
O212 O 0.40656 0.67055 0.99752 0.0
O213 O 0.40656 0.49742 0.17065 0.0
O214 O 0.32945 0.59344 0.99752 0.0
O215 O 0.32945 0.49742 0.09354 0.0
C216 C 0.04138 0.25328 0.20199 0.0
C217 C 0.00010 0.20031 0.20202 0.0
C218 C 0.95225 0.19635 0.25105 0.0
C219 C 0.94916 0.24484 0.30055 0.0
C220 C 0.03856 0.30014 0.24907 0.0
C221 C 0.99387 0.29782 0.29973 0.0
C222 C 0.90575 0.14661 0.25115 0.0
C223 C 0.85904 0.14251 0.29863 0.0
C224 C 0.85672 0.18789 0.34707 0.0
C225 C 0.90051 0.23838 0.34814 0.0
H226 H 0.07815 0.25825 0.16540 0.0
H227 H 0.07369 0.33783 0.24456 0.0
H228 H 0.82000 0.18448 0.38382 0.0
H229 H 0.89334 0.27122 0.38705 0.0
H230 H 0.90291 0.11057 0.21435 0.0
H231 H 0.82406 0.10399 0.29755 0.0
C232 C 0.76622 0.04756 0.21842 0.0
C233 C 0.79847 0.99139 0.20072 0.0
C234 C 0.78042 0.93253 0.23106 0.0
C235 C 0.73194 0.93249 0.28067 0.0
C236 C 0.71948 0.04792 0.26571 0.0
C237 C 0.70109 0.99189 0.29876 0.0
C238 C 0.80764 0.87310 0.21199 0.0
C239 C 0.79026 0.81570 0.24124 0.0
C240 C 0.74500 0.81545 0.28984 0.0
C241 C 0.71596 0.87247 0.30920 0.0
H242 H 0.77826 0.09317 0.19628 0.0
H243 H 0.69906 0.09431 0.27595 0.0
H244 H 0.73155 0.77044 0.31228 0.0
H245 H 0.68082 0.86629 0.34623 0.0
H246 H 0.84164 0.86872 0.17344 0.0
H247 H 0.81181 0.77094 0.22570 0.0
C248 C 0.00570 0.73659 0.18834 0.0
C249 C 0.99760 0.80144 0.20374 0.0
C250 C 0.99477 0.81906 0.27001 0.0
C251 C 0.99743 0.77012 0.31909 0.0
C252 C 0.00861 0.68939 0.23507 0.0
C253 C 0.00402 0.70351 0.30102 0.0
C254 C 0.99154 0.88432 0.28916 0.0
C255 C 0.98883 0.90179 0.35350 0.0
C256 C 0.98981 0.85513 0.40075 0.0
C257 C 0.99436 0.79051 0.38427 0.0
H258 H 0.00843 0.72127 0.13860 0.0
H259 H 0.01363 0.64114 0.21716 0.0
H260 H 0.98789 0.86916 0.45084 0.0
H261 H 0.99601 0.75886 0.42476 0.0
H262 H 0.99249 0.92361 0.25573 0.0
H263 H 0.98640 0.95206 0.36680 0.0
C264 C 0.27622 0.95160 0.27158 0.0
C265 C 0.29772 0.00850 0.30003 0.0
C266 C 0.26846 0.06755 0.28090 0.0
C267 C 0.21995 0.06781 0.23132 0.0
C268 C 0.22954 0.95136 0.22423 0.0
C269 C 0.20042 0.00814 0.20191 0.0
C270 C 0.28443 0.12640 0.31122 0.0
C271 C 0.25611 0.18398 0.29291 0.0
C272 C 0.21075 0.18484 0.24441 0.0
C273 C 0.19253 0.12804 0.21423 0.0
H274 H 0.29696 0.90573 0.28502 0.0
H275 H 0.21797 0.90471 0.20514 0.0
H276 H 0.18873 0.22993 0.23054 0.0
H277 H 0.15620 0.13436 0.17839 0.0
H278 H 0.31769 0.12977 0.35051 0.0
H279 H 0.26920 0.22827 0.31691 0.0
C280 C 0.99851 0.81201 0.73616 0.0
C281 C 0.00518 0.79655 0.80117 0.0
C282 C 0.01064 0.73037 0.81851 0.0
C283 C 0.00640 0.68124 0.76973 0.0
C284 C 0.99472 0.76524 0.68906 0.0
C285 C 0.99771 0.69924 0.70334 0.0
C286 C 0.02240 0.71152 0.88287 0.0
C287 C 0.02781 0.64727 0.90005 0.0
C288 C 0.02228 0.59986 0.85387 0.0
C289 C 0.01213 0.61615 0.78983 0.0
H290 H 0.99457 0.86170 0.72098 0.0
H291 H 0.98833 0.78311 0.64095 0.0
H292 H 0.02677 0.54986 0.86762 0.0
H293 H 0.00992 0.57564 0.75825 0.0
H294 H 0.02922 0.74521 0.92134 0.0
H295 H 0.03683 0.63420 0.94962 0.0
C296 C 0.22852 0.94134 0.77632 0.0
C297 C 0.20007 0.99823 0.79782 0.0
C298 C 0.21920 0.05729 0.76855 0.0
C299 C 0.26878 0.05754 0.72005 0.0
C300 C 0.27587 0.94110 0.72964 0.0
C301 C 0.29819 0.99787 0.70052 0.0
C302 C 0.18888 0.11613 0.78453 0.0
C303 C 0.20719 0.17371 0.75621 0.0
C304 C 0.25569 0.17458 0.71085 0.0
C305 C 0.28587 0.11778 0.69263 0.0
H306 H 0.21508 0.89547 0.79706 0.0
H307 H 0.29496 0.89445 0.71807 0.0
H308 H 0.26956 0.21967 0.68883 0.0
H309 H 0.32171 0.12409 0.65630 0.0
H310 H 0.14959 0.11951 0.81779 0.0
H311 H 0.18319 0.21801 0.76930 0.0
C312 C 0.99219 0.31159 0.76317 0.0
C313 C 0.00275 0.29633 0.69864 0.0
C314 C 0.00816 0.23015 0.68129 0.0
C315 C 0.00550 0.18109 0.73026 0.0
C316 C 0.98926 0.26487 0.81039 0.0
C317 C 0.99632 0.19907 0.79659 0.0
C318 C 0.01398 0.21100 0.61621 0.0
C319 C 0.01920 0.14674 0.59900 0.0
C320 C 0.01824 0.09957 0.64574 0.0
C321 C 0.01120 0.11601 0.71015 0.0
H322 H 0.98747 0.36124 0.77827 0.0
H323 H 0.98222 0.28270 0.85841 0.0
H324 H 0.02213 0.04953 0.63191 0.0
H325 H 0.00982 0.07554 0.74183 0.0
H326 H 0.01322 0.24431 0.57682 0.0
H327 H 0.02359 0.13344 0.54887 0.0
C328 C 0.76409 0.00618 0.68812 0.0
C329 C 0.69873 0.00660 0.70352 0.0
C330 C 0.68090 0.00910 0.76974 0.0
C331 C 0.72981 0.00832 0.81892 0.0
C332 C 0.81130 0.00573 0.73493 0.0
C333 C 0.79673 0.00606 0.80094 0.0
C334 C 0.61571 0.01459 0.78864 0.0
C335 C 0.59804 0.01711 0.85294 0.0
C336 C 0.64449 0.01483 0.90035 0.0
C337 C 0.70920 0.01087 0.88405 0.0
H338 H 0.77962 0.00464 0.63840 0.0
H339 H 0.85980 0.00410 0.71708 0.0
H340 H 0.63033 0.01703 0.95040 0.0
H341 H 0.74081 0.01071 0.92460 0.0
H342 H 0.57682 0.01857 0.75498 0.0
H343 H 0.54784 0.02131 0.86604 0.0
C344 C 0.27323 0.27457 0.05895 0.0
C345 C 0.29791 0.29984 0.00185 0.0
C346 C 0.27194 0.27742 0.94241 0.0
C347 C 0.22345 0.22782 0.94222 0.0
C348 C 0.22653 0.22724 0.05923 0.0
C349 C 0.20058 0.20175 0.00225 0.0
C350 C 0.29121 0.30444 0.88295 0.0
C351 C 0.26611 0.28291 0.82499 0.0
C352 C 0.22079 0.23437 0.82431 0.0
C353 C 0.19939 0.20736 0.88159 0.0
H354 H 0.29141 0.29057 0.10509 0.0
H355 H 0.21236 0.21076 0.10615 0.0
H356 H 0.20129 0.21798 0.77890 0.0
H357 H 0.16342 0.17117 0.87527 0.0
H358 H 0.32467 0.34353 0.87925 0.0
H359 H 0.28168 0.30443 0.78023 0.0
C360 C 0.27622 0.72842 0.94134 0.0
C361 C 0.29772 0.69997 0.99823 0.0
C362 C 0.26845 0.71909 0.05729 0.0
C363 C 0.21995 0.76868 0.05754 0.0
C364 C 0.22954 0.77577 0.94110 0.0
C365 C 0.20042 0.79809 0.99787 0.0
C366 C 0.28443 0.68878 0.11613 0.0
C367 C 0.25611 0.70709 0.17371 0.0
C368 C 0.21075 0.75559 0.17458 0.0
C369 C 0.19253 0.78577 0.11778 0.0
H370 H 0.29696 0.71498 0.89547 0.0
H371 H 0.21797 0.79485 0.89445 0.0
H372 H 0.18873 0.76946 0.21967 0.0
H373 H 0.15620 0.82161 0.12409 0.0
H374 H 0.31769 0.64949 0.11951 0.0
H375 H 0.26920 0.68309 0.21801 0.0
C376 C 0.68812 0.23591 0.99402 0.0
C377 C 0.70352 0.30127 0.99360 0.0
C378 C 0.76974 0.31910 0.99110 0.0
C379 C 0.81892 0.27019 0.99188 0.0
C380 C 0.73493 0.18870 0.99447 0.0
C381 C 0.80094 0.20327 0.99414 0.0
C382 C 0.78864 0.38429 0.98561 0.0
C383 C 0.85294 0.40196 0.98309 0.0
C384 C 0.90035 0.35551 0.98537 0.0
C385 C 0.88405 0.29080 0.98933 0.0
H386 H 0.63840 0.22038 0.99556 0.0
H387 H 0.71708 0.14019 0.99610 0.0
H388 H 0.95040 0.36967 0.98317 0.0
H389 H 0.92460 0.25919 0.98949 0.0
H390 H 0.75498 0.42318 0.98163 0.0
H391 H 0.86604 0.45216 0.97889 0.0
C392 C 0.73681 0.81118 0.99423 0.0
C393 C 0.80151 0.79644 0.00452 0.0
C394 C 0.81893 0.73063 0.01321 0.0
C395 C 0.76991 0.68156 0.01401 0.0
C396 C 0.68955 0.76442 0.99462 0.0
C397 C 0.70344 0.69908 0.00498 0.0
C398 C 0.88410 0.71175 0.01897 0.0
C399 C 0.90137 0.64785 0.02736 0.0
C400 C 0.85462 0.60074 0.02973 0.0
C401 C 0.79010 0.61685 0.02288 0.0
H402 H 0.72165 0.86052 0.98709 0.0
H403 H 0.64141 0.78190 0.98742 0.0
H404 H 0.86850 0.55097 0.03608 0.0
H405 H 0.75839 0.57640 0.02421 0.0
H406 H 0.92347 0.74493 0.01575 0.0
H407 H 0.95157 0.63474 0.03162 0.0
C408 C 0.68830 0.49538 0.73593 0.0
C409 C 0.70345 0.49815 0.80129 0.0
C410 C 0.76916 0.50664 0.81916 0.0
C411 C 0.81835 0.50934 0.77032 0.0
C412 C 0.73510 0.49824 0.68879 0.0
C413 C 0.80080 0.50449 0.70342 0.0
C414 C 0.78736 0.51475 0.88427 0.0
C415 C 0.85115 0.52309 0.90197 0.0
C416 C 0.89870 0.52419 0.85562 0.0
C417 C 0.88296 0.51782 0.79096 0.0
H418 H 0.63894 0.48932 0.72037 0.0
H419 H 0.71758 0.49432 0.64029 0.0
H420 H 0.94834 0.53092 0.86980 0.0
H421 H 0.92345 0.52068 0.75940 0.0
H422 H 0.75338 0.51642 0.92306 0.0
H423 H 0.86372 0.52919 0.95211 0.0
C424 C 0.23143 0.55104 0.71721 0.0
C425 C 0.19996 0.49352 0.70273 0.0
C426 C 0.21589 0.43761 0.73920 0.0
C427 C 0.26540 0.44073 0.78768 0.0
C428 C 0.27873 0.55454 0.76381 0.0
C429 C 0.29797 0.50070 0.79987 0.0
C430 C 0.18245 0.37894 0.73044 0.0
C431 C 0.19765 0.32442 0.76578 0.0
C432 C 0.24604 0.32660 0.81121 0.0
C433 C 0.27924 0.38353 0.82246 0.0
H434 H 0.22047 0.59464 0.69086 0.0
H435 H 0.30030 0.60118 0.76963 0.0
H436 H 0.25747 0.28391 0.83873 0.0
H437 H 0.31469 0.37986 0.85952 0.0
H438 H 0.14303 0.37357 0.69760 0.0
H439 H 0.17130 0.28019 0.75812 0.0
C440 C 0.26425 0.50630 0.31156 0.0
C441 C 0.19895 0.50175 0.29660 0.0
C442 C 0.18118 0.49141 0.23112 0.0
C443 C 0.23000 0.48870 0.18191 0.0
C444 C 0.31138 0.50345 0.26475 0.0
C445 C 0.29680 0.49542 0.19923 0.0
C446 C 0.11624 0.48146 0.21322 0.0
C447 C 0.09865 0.47132 0.14966 0.0
C448 C 0.14495 0.47019 0.10206 0.0
C449 C 0.20947 0.47833 0.11754 0.0
H450 H 0.27974 0.51380 0.36074 0.0
H451 H 0.35980 0.50883 0.28209 0.0
H452 H 0.13085 0.46205 0.05261 0.0
H453 H 0.24103 0.47528 0.07707 0.0
H454 H 0.07754 0.47969 0.24730 0.0
H455 H 0.04864 0.46383 0.13732 0.0
C456 C 0.73113 0.55517 0.22502 0.0
C457 C 0.69987 0.50023 0.20237 0.0
C458 C 0.71602 0.43969 0.23039 0.0
C459 C 0.76554 0.43596 0.27883 0.0
C460 C 0.77842 0.55208 0.27165 0.0
C461 C 0.79788 0.49367 0.29956 0.0
C462 C 0.68281 0.38278 0.21324 0.0
C463 C 0.69822 0.32379 0.24034 0.0
C464 C 0.74662 0.31956 0.28563 0.0
C465 C 0.77960 0.37439 0.30499 0.0
H466 H 0.71999 0.60208 0.20524 0.0
H467 H 0.79982 0.59747 0.28416 0.0
H468 H 0.75822 0.27339 0.30669 0.0
H469 H 0.81508 0.36555 0.34113 0.0
H470 H 0.64340 0.38206 0.17995 0.0
H471 H 0.67204 0.28103 0.22636 0.0
C472 C 0.28415 0.76739 0.44937 0.0
C473 C 0.29914 0.79833 0.50704 0.0
C474 C 0.26603 0.77897 0.56395 0.0
C475 C 0.21648 0.73056 0.56051 0.0
C476 C 0.23694 0.72072 0.44568 0.0
C477 C 0.20125 0.70108 0.49963 0.0
C478 C 0.28224 0.80480 0.62483 0.0
C479 C 0.25028 0.78615 0.68036 0.0
C480 C 0.20172 0.74094 0.67725 0.0
C481 C 0.18511 0.71323 0.61873 0.0
H482 H 0.30845 0.78044 0.40516 0.0
H483 H 0.22893 0.70138 0.39840 0.0
H484 H 0.17716 0.72649 0.72081 0.0
H485 H 0.14784 0.67800 0.62232 0.0
H486 H 0.32053 0.83866 0.63183 0.0
H487 H 0.26365 0.80666 0.72629 0.0
C488 C 0.18821 0.23593 0.50058 0.0
C489 C 0.20363 0.30126 0.50210 0.0
C490 C 0.26975 0.31921 0.49807 0.0
C491 C 0.31890 0.27033 0.49539 0.0
C492 C 0.23498 0.18876 0.49770 0.0
C493 C 0.30095 0.20337 0.49573 0.0
C494 C 0.28851 0.38457 0.49441 0.0
C495 C 0.35270 0.40235 0.49043 0.0
C496 C 0.40013 0.35588 0.48939 0.0
C497 C 0.38392 0.29106 0.49146 0.0
H498 H 0.13856 0.22032 0.50318 0.0
H499 H 0.21716 0.14022 0.49811 0.0
H500 H 0.45009 0.37014 0.48606 0.0
H501 H 0.42443 0.25949 0.48908 0.0
H502 H 0.25476 0.42357 0.49301 0.0
H503 H 0.36569 0.45268 0.48767 0.0
C504 C 0.73593 0.68835 0.50517 0.0
C505 C 0.80131 0.70367 0.50466 0.0
C506 C 0.81922 0.76989 0.50264 0.0
C507 C 0.77037 0.81895 0.49838 0.0
C508 C 0.68878 0.73507 0.50142 0.0
C509 C 0.70343 0.80093 0.49723 0.0
C510 C 0.88442 0.78905 0.50694 0.0
C511 C 0.90216 0.85335 0.50507 0.0
C512 C 0.85578 0.90055 0.49945 0.0
C513 C 0.79106 0.88408 0.49649 0.0
H514 H 0.72034 0.63866 0.50703 0.0
H515 H 0.64026 0.71721 0.50092 0.0
H516 H 0.87000 0.95061 0.49823 0.0
H517 H 0.75950 0.92456 0.49348 0.0
H518 H 0.92326 0.75570 0.51330 0.0
H519 H 0.95237 0.86666 0.50846 0.0
C520 C 0.72948 0.22668 0.55531 0.0
C521 C 0.70198 0.20025 0.50005 0.0
C522 C 0.72495 0.22141 0.43893 0.0
C523 C 0.77337 0.27095 0.43529 0.0
C524 C 0.77614 0.27395 0.55228 0.0
C525 C 0.79921 0.29823 0.49356 0.0
C526 C 0.70274 0.19319 0.38108 0.0
C527 C 0.72490 0.21349 0.32151 0.0
C528 C 0.77013 0.26196 0.31756 0.0
C529 C 0.79437 0.29012 0.37313 0.0
H530 H 0.71364 0.21165 0.60262 0.0
H531 H 0.79264 0.29139 0.59808 0.0
H532 H 0.78734 0.27739 0.27091 0.0
H533 H 0.82998 0.32614 0.36427 0.0
H534 H 0.66913 0.15406 0.37987 0.0
H535 H 0.70712 0.19107 0.27804 0.0
C536 C 0.46953 0.24544 0.80245 0.0
C537 C 0.50629 0.30132 0.79653 0.0
C538 C 0.54298 0.31024 0.73922 0.0
C539 C 0.54370 0.26094 0.69043 0.0
C540 C 0.46969 0.19807 0.75579 0.0
C541 C 0.50644 0.20315 0.69928 0.0
C542 C 0.57741 0.36788 0.72787 0.0
C543 C 0.61313 0.37689 0.67223 0.0
C544 C 0.61531 0.32928 0.62598 0.0
C545 C 0.58112 0.27245 0.63440 0.0
H546 H 0.44074 0.23701 0.84506 0.0
H547 H 0.44047 0.15676 0.76645 0.0
H548 H 0.64311 0.33677 0.58261 0.0
H549 H 0.58535 0.23970 0.59499 0.0
H550 H 0.57679 0.40797 0.76033 0.0
H551 H 0.63899 0.42144 0.66477 0.0
C552 C 0.51239 0.80991 0.76202 0.0
C553 C 0.49243 0.79706 0.69921 0.0
C554 C 0.46970 0.73398 0.68453 0.0
C555 C 0.47038 0.68462 0.73325 0.0
C556 C 0.51290 0.76298 0.80911 0.0
C557 C 0.49307 0.69948 0.79706 0.0
C558 C 0.44418 0.71896 0.62321 0.0
C559 C 0.42196 0.65775 0.60863 0.0
C560 C 0.42386 0.60982 0.65456 0.0
C561 C 0.44721 0.62271 0.71585 0.0
H562 H 0.52964 0.85728 0.77521 0.0
H563 H 0.53051 0.77842 0.85521 0.0
H564 H 0.40624 0.56224 0.64287 0.0
H565 H 0.44519 0.58239 0.74770 0.0
H566 H 0.43917 0.75374 0.58544 0.0
H567 H 0.40267 0.64758 0.56137 0.0
C568 C 0.54891 0.70407 0.24823 0.0
C569 C 0.50322 0.70332 0.19903 0.0
C570 C 0.45690 0.75391 0.19682 0.0
C571 C 0.45628 0.80259 0.24623 0.0
C572 C 0.54886 0.75071 0.29562 0.0
C573 C 0.50322 0.80056 0.29721 0.0
C574 C 0.41233 0.75887 0.14558 0.0
C575 C 0.36721 0.80796 0.14311 0.0
C576 C 0.36530 0.85389 0.19105 0.0
C577 C 0.40903 0.85177 0.24157 0.0
H578 H 0.58510 0.66672 0.25140 0.0
H579 H 0.58563 0.74540 0.33158 0.0
H580 H 0.33009 0.89216 0.18867 0.0
H581 H 0.40385 0.89042 0.27509 0.0
H582 H 0.41172 0.72641 0.10549 0.0
H583 H 0.33370 0.81062 0.10337 0.0
C584 C 0.54848 0.22366 0.27136 0.0
C585 C 0.49142 0.20038 0.29803 0.0
C586 C 0.43193 0.22487 0.27413 0.0
C587 C 0.43178 0.27448 0.22565 0.0
C588 C 0.54878 0.27098 0.22465 0.0
C589 C 0.49185 0.29845 0.20068 0.0
C590 C 0.37228 0.19993 0.29548 0.0
C591 C 0.31426 0.22348 0.27240 0.0
C592 C 0.31369 0.27204 0.22710 0.0
C593 C 0.37110 0.29705 0.20370 0.0
H594 H 0.59463 0.20605 0.28793 0.0
H595 H 0.59572 0.28583 0.20884 0.0
H596 H 0.26824 0.29002 0.20919 0.0
H597 H 0.36480 0.33346 0.16795 0.0
H598 H 0.36838 0.16097 0.32907 0.0
H599 H 0.26935 0.20352 0.28953 0.0
loop_
_geom_bond_atom_site_label_1
_geom_bond_atom_site_label_2
_geom_bond_distance
_geom_bond_site_symmetry_2
_ccdc_geom_bond_type
Zr0 O1 2.256 1_545 S
Zr0 O3 2.064 . S
Zr0 O9 2.064 1_544 S
Zr0 O10 2.256 1_554 S
Zr0 O30 2.216 1_544 S
Zr0 O31 2.216 1_544 S
Zr0 O39 2.216 . S
Zr0 O40 2.216 . S
O1 Zr0 2.256 1_565 S
O1 Zr2 2.256 . S
O1 Zr4 2.256 1_565 S
O1 H8 0.974 . S
Zr2 O1 2.256 . S
Zr2 O9 2.064 1_554 S
Zr2 O11 2.256 1_454 S
Zr2 O12 2.064 1_455 S
Zr2 O33 2.216 1_554 S
Zr2 O35 2.216 1_554 S
Zr2 O36 2.216 1_455 S
Zr2 O38 2.216 1_455 S
O3 Zr0 2.064 . S
O3 Zr4 2.064 . S
O3 Zr6 2.064 . S
Zr4 O1 2.256 1_545 S
Zr4 O3 2.064 . S
Zr4 O12 2.064 1_445 S
Zr4 O15 2.256 1_455 S
Zr4 O42 2.216 1_445 S
Zr4 O46 2.216 . S
Zr4 O49 2.216 . S
Zr4 O51 2.216 1_445 S
Zr5 O9 2.064 1_545 S
Zr5 O10 2.256 . S
Zr5 O11 2.256 1_445 S
Zr5 O13 2.064 1_455 S
Zr5 O32 2.216 1_545 S
Zr5 O34 2.216 1_545 S
Zr5 O37 2.216 1_455 S
Zr5 O41 2.216 1_455 S
Zr6 O3 2.064 . S
Zr6 O10 2.256 1_554 S
Zr6 O13 2.064 1_454 S
Zr6 O15 2.256 1_455 S
Zr6 O45 2.216 . S
Zr6 O47 2.216 1_454 S
Zr6 O48 2.216 . S
Zr6 O50 2.216 1_454 S
H7 O10 0.974 . S
H8 O1 0.974 . S
O9 Zr0 2.064 1_566 S
O9 Zr2 2.064 1_556 S
O9 Zr5 2.064 1_565 S
O10 Zr0 2.256 1_556 S
O10 Zr5 2.256 . S
O10 Zr6 2.256 1_556 S
O10 H7 0.974 . S
O11 Zr2 2.256 1_656 S
O11 Zr5 2.256 1_665 S
O11 Zr14 2.256 1_566 S
O11 H16 0.974 . S
O12 Zr2 2.064 1_655 S
O12 Zr4 2.064 1_665 S
O12 Zr14 2.064 1_565 S
O13 Zr5 2.064 1_655 S
O13 Zr6 2.064 1_656 S
O13 Zr14 2.064 1_556 S
Zr14 O11 2.256 1_544 S
Zr14 O12 2.064 1_545 S
Zr14 O13 2.064 1_554 S
Zr14 O15 2.256 . S
Zr14 O43 2.216 1_554 S
Zr14 O44 2.216 1_545 S
Zr14 O52 2.216 1_554 S
Zr14 O53 2.216 1_545 S
O15 Zr4 2.256 1_655 S
O15 Zr6 2.256 1_655 S
O15 Zr14 2.256 . S
O15 H17 0.974 . S
H16 O11 0.974 . S
H17 O15 0.974 . S
C18 O30 1.278 . S
C18 O32 1.278 . S
C19 O31 1.278 . S
C19 O33 1.278 . S
C20 O34 1.278 . S
C20 O35 1.278 . S
C21 O36 1.278 . S
C21 O42 1.278 . S
C22 O37 1.278 . S
C22 O43 1.278 . S
C23 O38 1.278 . S
C23 O44 1.278 . S
C24 O41 1.278 . S
C24 O47 1.278 . S
C25 O39 1.278 . S
C25 O45 1.278 . S
C26 O40 1.278 . S
C26 O46 1.278 . S
C27 O48 1.278 . S
C27 O49 1.278 . S
C28 O50 1.278 . S
C28 O52 1.278 . S
C29 O51 1.278 . S
C29 O53 1.278 . S
O30 Zr0 2.216 1_566 S
O30 C18 1.278 . S
O31 Zr0 2.216 1_566 S
O31 C19 1.278 . S
O32 Zr5 2.216 1_565 S
O32 C18 1.278 . S
O33 Zr2 2.216 1_556 S
O33 C19 1.278 . S
O34 Zr5 2.216 1_565 S
O34 C20 1.278 . S
O35 Zr2 2.216 1_556 S
O35 C20 1.278 . S
O36 Zr2 2.216 1_655 S
O36 C21 1.278 . S
O37 Zr5 2.216 1_655 S
O37 C22 1.278 . S
O38 Zr2 2.216 1_655 S
O38 C23 1.278 . S
O39 Zr0 2.216 . S
O39 C25 1.278 . S
O40 Zr0 2.216 . S
O40 C26 1.278 . S
O41 Zr5 2.216 1_655 S
O41 C24 1.278 . S
O42 Zr4 2.216 1_665 S
O42 C21 1.278 . S
O43 Zr14 2.216 1_556 S
O43 C22 1.278 . S
O44 Zr14 2.216 1_565 S
O44 C23 1.278 . S
O45 Zr6 2.216 . S
O45 C25 1.278 . S
O46 Zr4 2.216 . S
O46 C26 1.278 . S
O47 Zr6 2.216 1_656 S
O47 C24 1.278 . S
O48 Zr6 2.216 . S
O48 C27 1.278 . S
O49 Zr4 2.216 . S
O49 C27 1.278 . S
O50 Zr6 2.216 1_656 S
O50 C28 1.278 . S
O51 Zr4 2.216 1_665 S
O51 C29 1.278 . S
O52 Zr14 2.216 1_556 S
O52 C28 1.278 . S
O53 Zr14 2.216 1_565 S
O53 C29 1.278 . S
Zr54 O55 2.256 . S
Zr54 O57 2.064 . S
Zr54 O63 2.064 . S
Zr54 O64 2.256 . S
Zr54 O84 2.216 . S
Zr54 O85 2.216 . S
Zr54 O93 2.216 . S
Zr54 O94 2.216 . S
O55 Zr54 2.256 . S
O55 Zr56 2.256 1_655 S
O55 Zr58 2.256 1_655 S
O55 H62 0.974 . S
Zr56 O55 2.256 1_455 S
Zr56 O63 2.064 1_455 S
Zr56 O65 2.256 . S
Zr56 O66 2.064 . S
Zr56 O87 2.216 1_455 S
Zr56 O89 2.216 1_455 S
Zr56 O90 2.216 . S
Zr56 O92 2.216 . S
O57 Zr54 2.064 . S
O57 Zr58 2.064 1_655 S
O57 Zr60 2.064 1_655 S
Zr58 O55 2.256 1_455 S
Zr58 O57 2.064 1_455 S
Zr58 O66 2.064 . S
Zr58 O69 2.256 . S
Zr58 O96 2.216 . S
Zr58 O100 2.216 1_455 S
Zr58 O103 2.216 1_455 S
Zr58 O105 2.216 . S
Zr59 O63 2.064 1_455 S
Zr59 O64 2.256 1_455 S
Zr59 O65 2.256 . S
Zr59 O67 2.064 . S
Zr59 O86 2.216 1_455 S
Zr59 O88 2.216 1_455 S
Zr59 O91 2.216 . S
Zr59 O95 2.216 . S
Zr60 O57 2.064 1_455 S
Zr60 O64 2.256 1_455 S
Zr60 O67 2.064 . S
Zr60 O69 2.256 . S
Zr60 O99 2.216 1_455 S
Zr60 O101 2.216 . S
Zr60 O102 2.216 1_455 S
Zr60 O104 2.216 . S
H61 O64 0.974 . S
H62 O55 0.974 . S
O63 Zr54 2.064 . S
O63 Zr56 2.064 1_655 S
O63 Zr59 2.064 1_655 S
O64 Zr54 2.256 . S
O64 Zr59 2.256 1_655 S
O64 Zr60 2.256 1_655 S
O64 H61 0.974 . S
O65 Zr56 2.256 . S
O65 Zr59 2.256 . S
O65 Zr68 2.256 . S
O65 H70 0.974 . S
O66 Zr56 2.064 . S
O66 Zr58 2.064 . S
O66 Zr68 2.064 . S
O67 Zr59 2.064 . S
O67 Zr60 2.064 . S
O67 Zr68 2.064 . S
Zr68 O65 2.256 . S
Zr68 O66 2.064 . S
Zr68 O67 2.064 . S
Zr68 O69 2.256 . S
Zr68 O97 2.216 . S
Zr68 O98 2.216 . S
Zr68 O106 2.216 . S
Zr68 O107 2.216 . S
O69 Zr58 2.256 . S
O69 Zr60 2.256 . S
O69 Zr68 2.256 . S
O69 H71 0.974 . S
H70 O65 0.974 . S
H71 O69 0.974 . S
C72 O84 1.278 . S
C72 O86 1.278 . S
C73 O85 1.278 . S
C73 O87 1.278 . S
C74 O88 1.278 . S
C74 O89 1.278 . S
C75 O90 1.278 . S
C75 O96 1.278 . S
C76 O91 1.278 . S
C76 O97 1.278 . S
C77 O92 1.278 . S
C77 O98 1.278 . S
C78 O95 1.278 . S
C78 O101 1.278 . S
C79 O93 1.278 . S
C79 O99 1.278 . S
C80 O94 1.278 . S
C80 O100 1.278 . S
C81 O102 1.278 . S
C81 O103 1.278 . S
C82 O104 1.278 . S
C82 O106 1.278 . S
C83 O105 1.278 . S
C83 O107 1.278 . S
O84 Zr54 2.216 . S
O84 C72 1.278 . S
O85 Zr54 2.216 . S
O85 C73 1.278 . S
O86 Zr59 2.216 1_655 S
O86 C72 1.278 . S
O87 Zr56 2.216 1_655 S
O87 C73 1.278 . S
O88 Zr59 2.216 1_655 S
O88 C74 1.278 . S
O89 Zr56 2.216 1_655 S
O89 C74 1.278 . S
O90 Zr56 2.216 . S
O90 C75 1.278 . S
O91 Zr59 2.216 . S
O91 C76 1.278 . S
O92 Zr56 2.216 . S
O92 C77 1.278 . S
O93 Zr54 2.216 . S
O93 C79 1.278 . S
O94 Zr54 2.216 . S
O94 C80 1.278 . S
O95 Zr59 2.216 . S
O95 C78 1.278 . S
O96 Zr58 2.216 . S
O96 C75 1.278 . S
O97 Zr68 2.216 . S
O97 C76 1.278 . S
O98 Zr68 2.216 . S
O98 C77 1.278 . S
O99 Zr60 2.216 1_655 S
O99 C79 1.278 . S
O100 Zr58 2.216 1_655 S
O100 C80 1.278 . S
O101 Zr60 2.216 . S
O101 C78 1.278 . S
O102 Zr60 2.216 1_655 S
O102 C81 1.278 . S
O103 Zr58 2.216 1_655 S
O103 C81 1.278 . S
O104 Zr60 2.216 . S
O104 C82 1.278 . S
O105 Zr58 2.216 . S
O105 C83 1.278 . S
O106 Zr68 2.216 . S
O106 C82 1.278 . S
O107 Zr68 2.216 . S
O107 C83 1.278 . S
Zr108 O109 2.256 1_545 S
Zr108 O111 2.064 . S
Zr108 O117 2.064 1_545 S
Zr108 O118 2.256 . S
Zr108 O138 2.216 1_545 S
Zr108 O139 2.216 1_545 S
Zr108 O147 2.216 . S
Zr108 O148 2.216 . S
O109 Zr108 2.256 1_565 S
O109 Zr110 2.256 . S
O109 Zr112 2.256 1_565 S
O109 H116 0.974 . S
Zr110 O109 2.256 . S
Zr110 O117 2.064 . S
Zr110 O119 2.256 . S
Zr110 O120 2.064 . S
Zr110 O141 2.216 . S
Zr110 O143 2.216 . S
Zr110 O144 2.216 . S
Zr110 O146 2.216 . S
O111 Zr108 2.064 . S
O111 Zr112 2.064 . S
O111 Zr114 2.064 . S
Zr112 O109 2.256 1_545 S
Zr112 O111 2.064 . S
Zr112 O120 2.064 1_545 S
Zr112 O123 2.256 . S
Zr112 O150 2.216 1_545 S
Zr112 O154 2.216 . S
Zr112 O157 2.216 . S
Zr112 O159 2.216 1_545 S
Zr113 O117 2.064 1_545 S
Zr113 O118 2.256 . S
Zr113 O119 2.256 1_545 S
Zr113 O121 2.064 . S
Zr113 O140 2.216 1_545 S
Zr113 O142 2.216 1_545 S
Zr113 O145 2.216 . S
Zr113 O149 2.216 . S
Zr114 O111 2.064 . S
Zr114 O118 2.256 . S
Zr114 O121 2.064 . S
Zr114 O123 2.256 . S
Zr114 O153 2.216 . S
Zr114 O155 2.216 . S
Zr114 O156 2.216 . S
Zr114 O158 2.216 . S
H115 O118 0.974 . S
H116 O109 0.974 . S
O117 Zr108 2.064 1_565 S
O117 Zr110 2.064 . S
O117 Zr113 2.064 1_565 S
O118 Zr108 2.256 . S
O118 Zr113 2.256 . S
O118 Zr114 2.256 . S
O118 H115 0.974 . S
O119 Zr110 2.256 . S
O119 Zr113 2.256 1_565 S
O119 Zr122 2.256 1_565 S
O119 H124 0.974 . S
O120 Zr110 2.064 . S
O120 Zr112 2.064 1_565 S
O120 Zr122 2.064 1_565 S
O121 Zr113 2.064 . S
O121 Zr114 2.064 . S
O121 Zr122 2.064 . S
Zr122 O119 2.256 1_545 S
Zr122 O120 2.064 1_545 S
Zr122 O121 2.064 . S
Zr122 O123 2.256 . S
Zr122 O151 2.216 . S
Zr122 O152 2.216 1_545 S
Zr122 O160 2.216 . S
Zr122 O161 2.216 1_545 S
O123 Zr112 2.256 . S
O123 Zr114 2.256 . S
O123 Zr122 2.256 . S
O123 H125 0.974 . S
H124 O119 0.974 . S
H125 O123 0.974 . S
C126 O138 1.278 . S
C126 O140 1.278 . S
C127 O139 1.278 . S
C127 O141 1.278 . S
C128 O142 1.278 . S
C128 O143 1.278 . S
C129 O144 1.278 . S
C129 O150 1.278 . S
C130 O145 1.278 . S
C130 O151 1.278 . S
C131 O146 1.278 . S
C131 O152 1.278 . S
C132 O149 1.278 . S
C132 O155 1.278 . S
C133 O147 1.278 . S
C133 O153 1.278 . S
C134 O148 1.278 . S
C134 O154 1.278 . S
C135 O156 1.278 . S
C135 O157 1.278 . S
C136 O158 1.278 . S
C136 O160 1.278 . S
C137 O159 1.278 . S
C137 O161 1.278 . S
O138 Zr108 2.216 1_565 S
O138 C126 1.278 . S
O139 Zr108 2.216 1_565 S
O139 C127 1.278 . S
O140 Zr113 2.216 1_565 S
O140 C126 1.278 . S
O141 Zr110 2.216 . S
O141 C127 1.278 . S
O142 Zr113 2.216 1_565 S
O142 C128 1.278 . S
O143 Zr110 2.216 . S
O143 C128 1.278 . S
O144 Zr110 2.216 . S
O144 C129 1.278 . S
O145 Zr113 2.216 . S
O145 C130 1.278 . S
O146 Zr110 2.216 . S
O146 C131 1.278 . S
O147 Zr108 2.216 . S
O147 C133 1.278 . S
O148 Zr108 2.216 . S
O148 C134 1.278 . S
O149 Zr113 2.216 . S
O149 C132 1.278 . S
O150 Zr112 2.216 1_565 S
O150 C129 1.278 . S
O151 Zr122 2.216 . S
O151 C130 1.278 . S
O152 Zr122 2.216 1_565 S
O152 C131 1.278 . S
O153 Zr114 2.216 . S
O153 C133 1.278 . S
O154 Zr112 2.216 . S
O154 C134 1.278 . S
O155 Zr114 2.216 . S
O155 C132 1.278 . S
O156 Zr114 2.216 . S
O156 C135 1.278 . S
O157 Zr112 2.216 . S
O157 C135 1.278 . S
O158 Zr114 2.216 . S
O158 C136 1.278 . S
O159 Zr112 2.216 1_565 S
O159 C137 1.278 . S
O160 Zr122 2.216 . S
O160 C136 1.278 . S
O161 Zr122 2.216 1_565 S
O161 C137 1.278 . S
Zr162 O163 2.256 . S
Zr162 O165 2.064 . S
Zr162 O171 2.064 1_554 S
Zr162 O172 2.256 1_554 S
Zr162 O192 2.216 1_554 S
Zr162 O193 2.216 1_554 S
Zr162 O201 2.216 . S
Zr162 O202 2.216 . S
O163 Zr162 2.256 . S
O163 Zr164 2.256 . S
O163 Zr166 2.256 . S
O163 H170 0.974 . S
Zr164 O163 2.256 . S
Zr164 O171 2.064 1_554 S
Zr164 O173 2.256 1_554 S
Zr164 O174 2.064 . S
Zr164 O195 2.216 1_554 S
Zr164 O197 2.216 1_554 S
Zr164 O198 2.216 . S
Zr164 O200 2.216 . S
O165 Zr162 2.064 . S
O165 Zr166 2.064 . S
O165 Zr168 2.064 . S
Zr166 O163 2.256 . S
Zr166 O165 2.064 . S
Zr166 O174 2.064 . S
Zr166 O177 2.256 . S
Zr166 O204 2.216 . S
Zr166 O208 2.216 . S
Zr166 O211 2.216 . S
Zr166 O213 2.216 . S
Zr167 O171 2.064 . S
Zr167 O172 2.256 . S
Zr167 O173 2.256 . S
Zr167 O175 2.064 . S
Zr167 O194 2.216 . S
Zr167 O196 2.216 . S
Zr167 O199 2.216 . S
Zr167 O203 2.216 . S
Zr168 O165 2.064 . S
Zr168 O172 2.256 1_554 S
Zr168 O175 2.064 1_554 S
Zr168 O177 2.256 . S
Zr168 O207 2.216 . S
Zr168 O209 2.216 1_554 S
Zr168 O210 2.216 . S
Zr168 O212 2.216 1_554 S
H169 O172 0.974 . S
H170 O163 0.974 . S
O171 Zr162 2.064 1_556 S
O171 Zr164 2.064 1_556 S
O171 Zr167 2.064 . S
O172 Zr162 2.256 1_556 S
O172 Zr167 2.256 . S
O172 Zr168 2.256 1_556 S
O172 H169 0.974 . S
O173 Zr164 2.256 1_556 S
O173 Zr167 2.256 . S
O173 Zr176 2.256 1_556 S
O173 H178 0.974 . S
O174 Zr164 2.064 . S
O174 Zr166 2.064 . S
O174 Zr176 2.064 . S
O175 Zr167 2.064 . S
O175 Zr168 2.064 1_556 S
O175 Zr176 2.064 1_556 S
Zr176 O173 2.256 1_554 S
Zr176 O174 2.064 . S
Zr176 O175 2.064 1_554 S
Zr176 O177 2.256 . S
Zr176 O205 2.216 1_554 S
Zr176 O206 2.216 . S
Zr176 O214 2.216 1_554 S
Zr176 O215 2.216 . S
O177 Zr166 2.256 . S
O177 Zr168 2.256 . S
O177 Zr176 2.256 . S
O177 H179 0.974 . S
H178 O173 0.974 . S
H179 O177 0.974 . S
C180 O192 1.278 . S
C180 O194 1.278 . S
C181 O193 1.278 . S
C181 O195 1.278 . S
C182 O196 1.278 . S
C182 O197 1.278 . S
C183 O198 1.278 . S
C183 O204 1.278 . S
C184 O199 1.278 . S
C184 O205 1.278 . S
C185 O200 1.278 . S
C185 O206 1.278 . S
C186 O203 1.278 . S
C186 O209 1.278 . S
C187 O201 1.278 . S
C187 O207 1.278 . S
C188 O202 1.278 . S
C188 O208 1.278 . S
C189 O210 1.278 . S
C189 O211 1.278 . S
C190 O212 1.278 . S
C190 O214 1.278 . S
C191 O213 1.278 . S
C191 O215 1.278 . S
O192 Zr162 2.216 1_556 S
O192 C180 1.278 . S
O193 Zr162 2.216 1_556 S
O193 C181 1.278 . S
O194 Zr167 2.216 . S
O194 C180 1.278 . S
O195 Zr164 2.216 1_556 S
O195 C181 1.278 . S
O196 Zr167 2.216 . S
O196 C182 1.278 . S
O197 Zr164 2.216 1_556 S
O197 C182 1.278 . S
O198 Zr164 2.216 . S
O198 C183 1.278 . S
O199 Zr167 2.216 . S
O199 C184 1.278 . S
O200 Zr164 2.216 . S
O200 C185 1.278 . S
O201 Zr162 2.216 . S
O201 C187 1.278 . S
O202 Zr162 2.216 . S
O202 C188 1.278 . S
O203 Zr167 2.216 . S
O203 C186 1.278 . S
O204 Zr166 2.216 . S
O204 C183 1.278 . S
O205 Zr176 2.216 1_556 S
O205 C184 1.278 . S
O206 Zr176 2.216 . S
O206 C185 1.278 . S
O207 Zr168 2.216 . S
O207 C187 1.278 . S
O208 Zr166 2.216 . S
O208 C188 1.278 . S
O209 Zr168 2.216 1_556 S
O209 C186 1.278 . S
O210 Zr168 2.216 . S
O210 C189 1.278 . S
O211 Zr166 2.216 . S
O211 C189 1.278 . S
O212 Zr168 2.216 1_556 S
O212 C190 1.278 . S
O213 Zr166 2.216 . S
O213 C191 1.278 . S
O214 Zr176 2.216 1_556 S
O214 C190 1.278 . S
O215 Zr176 2.216 . S
O215 C191 1.278 . S
C216 C217 1.397 . S
C216 C220 1.383 . S
C216 H226 1.084 . S
C217 C218 1.427 1_455 S
C218 C219 1.443 . S
C218 C222 1.417 . S
C219 C221 1.442 . S
C219 C225 1.422 . S
C220 C221 1.406 1_455 S
C220 H227 1.076 . S
C222 C223 1.388 . S
C222 H230 1.073 . S
C223 C224 1.382 . S
C223 H231 1.083 . S
C224 C225 1.391 . S
C224 H228 1.083 . S
C225 H229 1.070 . S
C232 C233 1.397 1_545 S
C232 C236 1.383 . S
C232 H242 1.084 . S
C233 C234 1.428 . S
C234 C235 1.443 . S
C234 C238 1.417 . S
C235 C237 1.442 . S
C235 C241 1.422 . S
C236 C237 1.406 1_545 S
C236 H243 1.076 . S
C238 C239 1.388 . S
C238 H246 1.073 . S
C239 C240 1.382 . S
C239 H247 1.083 . S
C240 C241 1.391 . S
C240 H244 1.083 . S
C241 H245 1.070 . S
C248 C249 1.397 1_455 S
C248 C252 1.383 . S
C248 H258 1.084 . S
C249 C250 1.428 . S
C250 C251 1.443 . S
C250 C254 1.417 . S
C251 C253 1.442 1_655 S
C251 C257 1.422 . S
C252 C253 1.406 . S
C252 H259 1.076 . S
C254 C255 1.388 . S
C254 H262 1.073 . S
C255 C256 1.382 . S
C255 H263 1.083 . S
C256 C257 1.391 . S
C256 H260 1.083 . S
C257 H261 1.070 . S
C264 C265 1.397 1_565 S
C264 C268 1.383 . S
C264 H274 1.084 . S
C265 C266 1.428 . S
C266 C267 1.443 . S
C266 C270 1.417 . S
C267 C269 1.442 . S
C267 C273 1.422 . S
C268 C269 1.406 1_565 S
C268 H275 1.076 . S
C270 C271 1.388 . S
C270 H278 1.073 . S
C271 C272 1.382 . S
C271 H279 1.083 . S
C272 C273 1.391 . S
C272 H276 1.083 . S
C273 H277 1.070 . S
C280 C281 1.397 1_655 S
C280 C284 1.383 . S
C280 H290 1.084 . S
C281 C282 1.428 . S
C282 C283 1.443 . S
C282 C286 1.417 . S
C283 C285 1.442 1_455 S
C283 C289 1.422 . S
C284 C285 1.406 . S
C284 H291 1.076 . S
C286 C287 1.388 . S
C286 H294 1.073 . S
C287 C288 1.382 . S
C287 H295 1.083 . S
C288 C289 1.391 . S
C288 H292 1.083 . S
C289 H293 1.070 . S
C296 C297 1.397 . S
C296 C300 1.383 . S
C296 H306 1.084 . S
C297 C298 1.428 1_565 S
C298 C299 1.443 . S
C298 C302 1.417 . S
C299 C301 1.442 1_545 S
C299 C305 1.422 . S
C300 C301 1.406 . S
C300 H307 1.076 . S
C302 C303 1.388 . S
C302 H310 1.073 . S
C303 C304 1.382 . S
C303 H311 1.083 . S
C304 C305 1.391 . S
C304 H308 1.083 . S
C305 H309 1.070 . S
C312 C313 1.397 1_655 S
C312 C316 1.383 . S
C312 H322 1.084 . S
C313 C314 1.428 . S
C314 C315 1.443 . S
C314 C318 1.417 . S
C315 C317 1.442 1_455 S
C315 C321 1.422 . S
C316 C317 1.406 . S
C316 H323 1.076 . S
C318 C319 1.388 . S
C318 H326 1.073 . S
C319 C320 1.382 . S
C319 H327 1.083 . S
C320 C321 1.391 . S
C320 H324 1.083 . S
C321 H325 1.070 . S
C328 C329 1.397 . S
C328 C332 1.383 . S
C328 H338 1.084 . S
C329 C330 1.428 . S
C330 C331 1.443 . S
C330 C334 1.417 . S
C331 C333 1.442 . S
C331 C337 1.422 . S
C332 C333 1.406 . S
C332 H339 1.076 . S
C334 C335 1.388 . S
C334 H342 1.073 . S
C335 C336 1.382 . S
C335 H343 1.083 . S
C336 C337 1.391 . S
C336 H340 1.083 . S
C337 H341 1.070 . S
C344 C345 1.397 . S
C344 C348 1.383 . S
C344 H354 1.084 . S
C345 C346 1.428 1_554 S
C346 C347 1.443 . S
C346 C350 1.417 . S
C347 C349 1.442 1_556 S
C347 C353 1.422 . S
C348 C349 1.406 . S
C348 H355 1.076 . S
C350 C351 1.388 . S
C350 H358 1.073 . S
C351 C352 1.382 . S
C351 H359 1.083 . S
C352 C353 1.391 . S
C352 H356 1.083 . S
C353 H357 1.070 . S
C360 C361 1.397 . S
C360 C364 1.383 . S
C360 H370 1.084 . S
C361 C362 1.428 1_556 S
C362 C363 1.443 . S
C362 C366 1.417 . S
C363 C365 1.442 1_554 S
C363 C369 1.422 . S
C364 C365 1.406 . S
C364 H371 1.076 . S
C366 C367 1.388 . S
C366 H374 1.073 . S
C367 C368 1.382 . S
C367 H375 1.083 . S
C368 C369 1.391 . S
C368 H372 1.083 . S
C369 H373 1.070 . S
C376 C377 1.397 . S
C376 C380 1.383 . S
C376 H386 1.084 . S
C377 C378 1.428 . S
C378 C379 1.443 . S
C378 C382 1.417 . S
C379 C381 1.442 . S
C379 C385 1.422 . S
C380 C381 1.406 . S
C380 H387 1.076 . S
C382 C383 1.388 . S
C382 H390 1.073 . S
C383 C384 1.382 . S
C383 H391 1.083 . S
C384 C385 1.391 . S
C384 H388 1.083 . S
C385 H389 1.070 . S
C392 C393 1.397 1_556 S
C392 C396 1.383 . S
C392 H402 1.084 . S
C393 C394 1.428 . S
C394 C395 1.443 . S
C394 C398 1.417 . S
C395 C397 1.442 . S
C395 C401 1.422 . S
C396 C397 1.406 1_556 S
C396 H403 1.076 . S
C398 C399 1.388 . S
C398 H406 1.073 . S
C399 C400 1.382 . S
C399 H407 1.083 . S
C400 C401 1.391 . S
C400 H404 1.083 . S
C401 H405 1.070 . S
C408 C409 1.397 . S
C408 C412 1.383 . S
C408 H418 1.084 . S
C409 C410 1.428 . S
C410 C411 1.443 . S
C410 C414 1.417 . S
C411 C413 1.442 . S
C411 C417 1.422 . S
C412 C413 1.406 . S
C412 H419 1.076 . S
C414 C415 1.388 . S
C414 H422 1.073 . S
C415 C416 1.382 . S
C415 H423 1.083 . S
C416 C417 1.391 . S
C416 H420 1.083 . S
C417 H421 1.070 . S
C424 C425 1.397 . S
C424 C428 1.383 . S
C424 H434 1.084 . S
C425 C426 1.428 . S
C426 C427 1.443 . S
C426 C430 1.417 . S
C427 C429 1.442 . S
C427 C433 1.422 . S
C428 C429 1.406 . S
C428 H435 1.076 . S
C430 C431 1.388 . S
C430 H438 1.073 . S
C431 C432 1.382 . S
C431 H439 1.083 . S
C432 C433 1.391 . S
C432 H436 1.083 . S
C433 H437 1.070 . S
C440 C441 1.397 . S
C440 C444 1.383 . S
C440 H450 1.084 . S
C441 C442 1.428 . S
C442 C443 1.443 . S
C442 C446 1.417 . S
C443 C445 1.442 . S
C443 C449 1.422 . S
C444 C445 1.406 . S
C444 H451 1.076 . S
C446 C447 1.388 . S
C446 H454 1.073 . S
C447 C448 1.382 . S
C447 H455 1.083 . S
C448 C449 1.391 . S
C448 H452 1.083 . S
C449 H453 1.070 . S
C456 C457 1.397 . S
C456 C460 1.383 . S
C456 H466 1.084 . S
C457 C458 1.428 . S
C458 C459 1.443 . S
C458 C462 1.417 . S
C459 C461 1.442 . S
C459 C465 1.422 . S
C460 C461 1.406 . S
C460 H467 1.076 . S
C462 C463 1.388 . S
C462 H470 1.073 . S
C463 C464 1.382 . S
C463 H471 1.083 . S
C464 C465 1.391 . S
C464 H468 1.083 . S
C465 H469 1.070 . S
C472 C473 1.397 . S
C472 C476 1.383 . S
C472 H482 1.084 . S
C473 C474 1.428 . S
C474 C475 1.443 . S
C474 C478 1.417 . S
C475 C477 1.442 . S
C475 C481 1.422 . S
C476 C477 1.406 . S
C476 H483 1.076 . S
C478 C479 1.388 . S
C478 H486 1.073 . S
C479 C480 1.382 . S
C479 H487 1.083 . S
C480 C481 1.391 . S
C480 H484 1.083 . S
C481 H485 1.070 . S
C488 C489 1.397 . S
C488 C492 1.383 . S
C488 H498 1.084 . S
C489 C490 1.428 . S
C490 C491 1.443 . S
C490 C494 1.417 . S
C491 C493 1.442 . S
C491 C497 1.422 . S
C492 C493 1.406 . S
C492 H499 1.076 . S
C494 C495 1.388 . S
C494 H502 1.073 . S
C495 C496 1.382 . S
C495 H503 1.083 . S
C496 C497 1.391 . S
C496 H500 1.083 . S
C497 H501 1.070 . S
C504 C505 1.397 . S
C504 C508 1.383 . S
C504 H514 1.084 . S
C505 C506 1.428 . S
C506 C507 1.443 . S
C506 C510 1.417 . S
C507 C509 1.442 . S
C507 C513 1.422 . S
C508 C509 1.406 . S
C508 H515 1.076 . S
C510 C511 1.388 . S
C510 H518 1.073 . S
C511 C512 1.382 . S
C511 H519 1.083 . S
C512 C513 1.391 . S
C512 H516 1.083 . S
C513 H517 1.070 . S
C520 C521 1.397 . S
C520 C524 1.383 . S
C520 H530 1.084 . S
C521 C522 1.428 . S
C522 C523 1.443 . S
C522 C526 1.417 . S
C523 C525 1.442 . S
C523 C529 1.422 . S
C524 C525 1.406 . S
C524 H531 1.076 . S
C526 C527 1.388 . S
C526 H534 1.073 . S
C527 C528 1.382 . S
C527 H535 1.083 . S
C528 C529 1.391 . S
C528 H532 1.083 . S
C529 H533 1.070 . S
C536 C537 1.397 . S
C536 C540 1.383 . S
C536 H546 1.084 . S
C537 C538 1.428 . S
C538 C539 1.443 . S
C538 C542 1.417 . S
C539 C541 1.442 . S
C539 C545 1.422 . S
C540 C541 1.406 . S
C540 H547 1.076 . S
C542 C543 1.388 . S
C542 H550 1.073 . S
C543 C544 1.382 . S
C543 H551 1.083 . S
C544 C545 1.391 . S
C544 H548 1.083 . S
C545 H549 1.070 . S
C552 C553 1.397 . S
C552 C556 1.383 . S
C552 H562 1.084 . S
C553 C554 1.428 . S
C554 C555 1.443 . S
C554 C558 1.417 . S
C555 C557 1.442 . S
C555 C561 1.422 . S
C556 C557 1.406 . S
C556 H563 1.076 . S
C558 C559 1.388 . S
C558 H566 1.073 . S
C559 C560 1.382 . S
C559 H567 1.083 . S
C560 C561 1.391 . S
C560 H564 1.083 . S
C561 H565 1.070 . S
C568 C569 1.397 . S
C568 C572 1.383 . S
C568 H578 1.084 . S
C569 C570 1.428 . S
C570 C571 1.443 . S
C570 C574 1.417 . S
C571 C573 1.442 . S
C571 C577 1.422 . S
C572 C573 1.406 . S
C572 H579 1.076 . S
C574 C575 1.388 . S
C574 H582 1.073 . S
C575 C576 1.382 . S
C575 H583 1.083 . S
C576 C577 1.391 . S
C576 H580 1.083 . S
C577 H581 1.070 . S
C584 C585 1.397 . S
C584 C588 1.383 . S
C584 H594 1.084 . S
C585 C586 1.428 . S
C586 C587 1.443 . S
C586 C590 1.417 . S
C587 C589 1.442 . S
C587 C593 1.422 . S
C588 C589 1.406 . S
C588 H595 1.076 . S
C590 C591 1.388 . S
C590 H598 1.073 . S
C591 C592 1.382 . S
C591 H599 1.083 . S
C592 C593 1.391 . S
C592 H596 1.083 . S
C593 H597 1.070 . S
C217 C27 1.446 . S
C221 C74 1.449 . S
C233 C29 1.449 . S
C237 C126 1.449 . S
C249 C21 1.448 . S
C253 C75 1.450 . S
C265 C130 1.449 . S
C269 C26 1.446 . S
C281 C20 1.451 . S
C285 C81 1.452 . S
C297 C18 1.446 . S
C301 C137 1.447 . S
C313 C78 1.449 . S
C317 C24 1.450 . S
C329 C134 1.448 . S
C333 C22 1.451 . S
C345 C185 1.446 . S
C349 C25 1.444 . S
C361 C190 1.447 . S
C365 C19 1.447 . S
C377 C181 1.448 . S
C381 C28 1.448 . S
C393 C23 1.447 . S
C397 C187 1.451 . S
C409 C180 1.448 . S
C413 C79 1.454 . S
C425 C82 1.452 . S
C429 C184 1.447 . S
C441 C77 1.448 . S
C445 C191 1.448 . S
C457 C188 1.446 . S
C461 C73 1.452 . S
C473 C131 1.452 . S
C477 C83 1.447 . S
C489 C76 1.448 . S
C493 C136 1.448 . S
C505 C80 1.450 . S
C509 C127 1.452 . S
C521 C133 1.446 . S
C525 C72 1.452 . S
C537 C182 1.448 . S
C541 C135 1.448 . S
C553 C129 1.448 . S
C557 C186 1.452 . S
C569 C189 1.447 . S
C573 C128 1.447 . S
C585 C132 1.449 . S
C589 C183 1.446 . S
