data_image0
_cell_length_a       33.3694
_cell_length_b       33.3694
_cell_length_c       33.3694
_cell_angle_alpha    90
_cell_angle_beta     90
_cell_angle_gamma    90

_symmetry_space_group_name_H-M    "P 1"
_symmetry_int_tables_number       1

loop_
  _symmetry_equiv_pos_as_xyz
  'x, y, z'

loop_
  _atom_site_label
  _atom_site_occupancy
  _atom_site_fract_x
  _atom_site_fract_y
  _atom_site_fract_z
  _atom_site_thermal_displace_type
  _atom_site_B_iso_or_equiv
  _atom_site_type_symbol
  Zr1      1.0000 0.50000  0.00000  0.07270  Biso   1.000  Zr
  Zr2      1.0000 0.50000  0.50000  0.57270  Biso   1.000  Zr
  Zr3      1.0000 0.00000  0.00000  0.57270  Biso   1.000  Zr
  Zr4      1.0000 0.50000  0.00000  0.92730  Biso   1.000  Zr
  Zr5      1.0000 0.50000  0.50000  0.42730  Biso   1.000  Zr
  Zr6      1.0000 0.00000  0.50000  0.92730  Biso   1.000  Zr
  Zr7      1.0000 0.07270  0.50000  0.00000  Biso   1.000  Zr
  Zr8      1.0000 0.57270  0.50000  0.50000  Biso   1.000  Zr
  Zr9      1.0000 0.57270  0.00000  0.00000  Biso   1.000  Zr
  Zr10     1.0000 0.92730  0.50000  0.00000  Biso   1.000  Zr
  Zr11     1.0000 0.92730  0.00000  0.50000  Biso   1.000  Zr
  Zr12     1.0000 0.42730  0.50000  0.50000  Biso   1.000  Zr
  Zr13     1.0000 0.00000  0.07270  0.50000  Biso   1.000  Zr
  Zr14     1.0000 0.00000  0.57270  0.00000  Biso   1.000  Zr
  Zr15     1.0000 0.50000  0.57270  0.50000  Biso   1.000  Zr
  Zr16     1.0000 0.50000  0.07270  0.00000  Biso   1.000  Zr
  Zr17     1.0000 0.00000  0.92730  0.50000  Biso   1.000  Zr
  Zr18     1.0000 0.00000  0.42730  0.00000  Biso   1.000  Zr
  Zr19     1.0000 0.00000  0.00000  0.42730  Biso   1.000  Zr
  Zr20     1.0000 0.00000  0.50000  0.07270  Biso   1.000  Zr
  Zr21     1.0000 0.50000  0.92730  0.00000  Biso   1.000  Zr
  Zr22     1.0000 0.50000  0.42730  0.50000  Biso   1.000  Zr
  Zr23     1.0000 0.07270  0.00000  0.50000  Biso   1.000  Zr
  Zr24     1.0000 0.42730  0.00000  0.00000  Biso   1.000  Zr
  O1       1.0000 0.50000  0.06020  0.10820  Biso   1.000  O
  C1       1.0000 0.50000  0.11060  0.15960  Biso   1.000  C
  H1       1.0000 0.50000  0.08360  0.16680  Biso   1.000  H
  C2       1.0000 0.50000  0.13910  0.18810  Biso   1.000  C
  H2       1.0000 0.50000  0.13200  0.21500  Biso   1.000  H
  O2       1.0000 0.50000  0.56020  0.60820  Biso   1.000  O
  C3       1.0000 0.50000  0.61060  0.65960  Biso   1.000  C
  H3       1.0000 0.50000  0.58360  0.66680  Biso   1.000  H
  C4       1.0000 0.50000  0.63910  0.68810  Biso   1.000  C
  H4       1.0000 0.50000  0.63200  0.71500  Biso   1.000  H
  O3       1.0000 0.00000  0.06020  0.60820  Biso   1.000  O
  C5       1.0000 0.00000  0.11060  0.65960  Biso   1.000  C
  H5       1.0000 0.00000  0.08360  0.66680  Biso   1.000  H
  C6       1.0000 0.00000  0.13910  0.68810  Biso   1.000  C
  H6       1.0000 0.00000  0.13200  0.71500  Biso   1.000  H
  O4       1.0000 0.00000  0.56020  0.10820  Biso   1.000  O
  C7       1.0000 0.00000  0.61060  0.15960  Biso   1.000  C
  H7       1.0000 0.00000  0.58360  0.16680  Biso   1.000  H
  C8       1.0000 0.00000  0.63910  0.18810  Biso   1.000  C
  H8       1.0000 0.00000  0.63200  0.21500  Biso   1.000  H
  O5       1.0000 0.50000  0.93980  0.10820  Biso   1.000  O
  C9       1.0000 0.50000  0.88940  0.15960  Biso   1.000  C
  H9       1.0000 0.50000  0.91640  0.16680  Biso   1.000  H
  C10      1.0000 0.50000  0.86090  0.18810  Biso   1.000  C
  H10      1.0000 0.50000  0.86800  0.21500  Biso   1.000  H
  O6       1.0000 0.50000  0.43980  0.60820  Biso   1.000  O
  C11      1.0000 0.50000  0.38940  0.65960  Biso   1.000  C
  H11      1.0000 0.50000  0.41640  0.66680  Biso   1.000  H
  C12      1.0000 0.50000  0.36090  0.68810  Biso   1.000  C
  H12      1.0000 0.50000  0.36800  0.71500  Biso   1.000  H
  O7       1.0000 0.00000  0.93980  0.60820  Biso   1.000  O
  C13      1.0000 0.00000  0.88940  0.65960  Biso   1.000  C
  H13      1.0000 0.00000  0.91640  0.66680  Biso   1.000  H
  C14      1.0000 0.00000  0.86090  0.68810  Biso   1.000  C
  H14      1.0000 0.00000  0.86800  0.71500  Biso   1.000  H
  O8       1.0000 0.00000  0.43980  0.10820  Biso   1.000  O
  C15      1.0000 0.00000  0.38940  0.15960  Biso   1.000  C
  H15      1.0000 0.00000  0.41640  0.16680  Biso   1.000  H
  C16      1.0000 0.00000  0.36090  0.18810  Biso   1.000  C
  H16      1.0000 0.00000  0.36800  0.21500  Biso   1.000  H
  O9       1.0000 0.50000  0.06020  0.89180  Biso   1.000  O
  C17      1.0000 0.50000  0.11060  0.84040  Biso   1.000  C
  H17      1.0000 0.50000  0.08360  0.83320  Biso   1.000  H
  C18      1.0000 0.50000  0.13910  0.81190  Biso   1.000  C
  H18      1.0000 0.50000  0.13200  0.78500  Biso   1.000  H
  O10      1.0000 0.50000  0.56020  0.39180  Biso   1.000  O
  C19      1.0000 0.50000  0.61060  0.34040  Biso   1.000  C
  H19      1.0000 0.50000  0.58360  0.33320  Biso   1.000  H
  C20      1.0000 0.50000  0.63910  0.31190  Biso   1.000  C
  H20      1.0000 0.50000  0.63200  0.28500  Biso   1.000  H
  O11      1.0000 0.00000  0.06020  0.39180  Biso   1.000  O
  C21      1.0000 0.00000  0.11060  0.34040  Biso   1.000  C
  H21      1.0000 0.00000  0.08360  0.33320  Biso   1.000  H
  C22      1.0000 0.00000  0.13910  0.31190  Biso   1.000  C
  H22      1.0000 0.00000  0.13200  0.28500  Biso   1.000  H
  O12      1.0000 0.00000  0.56020  0.89180  Biso   1.000  O
  C23      1.0000 0.00000  0.61060  0.84040  Biso   1.000  C
  H23      1.0000 0.00000  0.58360  0.83320  Biso   1.000  H
  C24      1.0000 0.00000  0.63910  0.81190  Biso   1.000  C
  H24      1.0000 0.00000  0.63200  0.78500  Biso   1.000  H
  O13      1.0000 0.50000  0.93980  0.89180  Biso   1.000  O
  C25      1.0000 0.50000  0.88940  0.84040  Biso   1.000  C
  H25      1.0000 0.50000  0.91640  0.83320  Biso   1.000  H
  C26      1.0000 0.50000  0.86090  0.81190  Biso   1.000  C
  H26      1.0000 0.50000  0.86800  0.78500  Biso   1.000  H
  O14      1.0000 0.50000  0.43980  0.39180  Biso   1.000  O
  C27      1.0000 0.50000  0.38940  0.34040  Biso   1.000  C
  H27      1.0000 0.50000  0.41640  0.33320  Biso   1.000  H
  C28      1.0000 0.50000  0.36090  0.31190  Biso   1.000  C
  H28      1.0000 0.50000  0.36800  0.28500  Biso   1.000  H
  O15      1.0000 0.00000  0.93980  0.39180  Biso   1.000  O
  C29      1.0000 0.00000  0.88940  0.34040  Biso   1.000  C
  H29      1.0000 0.00000  0.91640  0.33320  Biso   1.000  H
  C30      1.0000 0.00000  0.86090  0.31190  Biso   1.000  C
  H30      1.0000 0.00000  0.86800  0.28500  Biso   1.000  H
  O16      1.0000 0.00000  0.43980  0.89180  Biso   1.000  O
  C31      1.0000 0.00000  0.38940  0.84040  Biso   1.000  C
  H31      1.0000 0.00000  0.41640  0.83320  Biso   1.000  H
  C32      1.0000 0.00000  0.36090  0.81190  Biso   1.000  C
  H32      1.0000 0.00000  0.36800  0.78500  Biso   1.000  H
  O17      1.0000 0.10820  0.50000  0.06020  Biso   1.000  O
  C33      1.0000 0.15960  0.50000  0.11060  Biso   1.000  C
  H33      1.0000 0.16680  0.50000  0.08360  Biso   1.000  H
  C34      1.0000 0.18810  0.50000  0.13910  Biso   1.000  C
  H34      1.0000 0.21500  0.50000  0.13200  Biso   1.000  H
  O18      1.0000 0.10820  0.00000  0.56020  Biso   1.000  O
  C35      1.0000 0.15960  0.00000  0.61060  Biso   1.000  C
  H35      1.0000 0.16680  0.00000  0.58360  Biso   1.000  H
  C36      1.0000 0.18810  0.00000  0.63910  Biso   1.000  C
  H36      1.0000 0.21500  0.00000  0.63200  Biso   1.000  H
  O19      1.0000 0.60820  0.50000  0.56020  Biso   1.000  O
  C37      1.0000 0.65960  0.50000  0.61060  Biso   1.000  C
  H37      1.0000 0.66680  0.50000  0.58360  Biso   1.000  H
  C38      1.0000 0.68810  0.50000  0.63910  Biso   1.000  C
  H38      1.0000 0.71500  0.50000  0.63200  Biso   1.000  H
  O20      1.0000 0.60820  0.00000  0.06020  Biso   1.000  O
  C39      1.0000 0.65960  0.00000  0.11060  Biso   1.000  C
  H39      1.0000 0.66680  0.00000  0.08360  Biso   1.000  H
  C40      1.0000 0.68810  0.00000  0.13910  Biso   1.000  C
  H40      1.0000 0.71500  0.00000  0.13200  Biso   1.000  H
  O21      1.0000 0.10820  0.50000  0.93980  Biso   1.000  O
  C41      1.0000 0.15960  0.50000  0.88940  Biso   1.000  C
  H41      1.0000 0.16680  0.50000  0.91640  Biso   1.000  H
  C42      1.0000 0.18810  0.50000  0.86090  Biso   1.000  C
  H42      1.0000 0.21500  0.50000  0.86800  Biso   1.000  H
  O22      1.0000 0.10820  0.00000  0.43980  Biso   1.000  O
  C43      1.0000 0.15960  0.00000  0.38940  Biso   1.000  C
  H43      1.0000 0.16680  0.00000  0.41640  Biso   1.000  H
  C44      1.0000 0.18810  0.00000  0.36090  Biso   1.000  C
  H44      1.0000 0.21500  0.00000  0.36800  Biso   1.000  H
  O23      1.0000 0.60820  0.50000  0.43980  Biso   1.000  O
  C45      1.0000 0.65960  0.50000  0.38940  Biso   1.000  C
  H45      1.0000 0.66680  0.50000  0.41640  Biso   1.000  H
  C46      1.0000 0.68810  0.50000  0.36090  Biso   1.000  C
  H46      1.0000 0.71500  0.50000  0.36800  Biso   1.000  H
  O24      1.0000 0.60820  0.00000  0.93980  Biso   1.000  O
  C47      1.0000 0.65960  0.00000  0.88940  Biso   1.000  C
  H47      1.0000 0.66680  0.00000  0.91640  Biso   1.000  H
  C48      1.0000 0.68810  0.00000  0.86090  Biso   1.000  C
  H48      1.0000 0.71500  0.00000  0.86800  Biso   1.000  H
  O25      1.0000 0.89180  0.50000  0.06020  Biso   1.000  O
  C49      1.0000 0.84040  0.50000  0.11060  Biso   1.000  C
  H49      1.0000 0.83320  0.50000  0.08360  Biso   1.000  H
  C50      1.0000 0.81190  0.50000  0.13910  Biso   1.000  C
  H50      1.0000 0.78500  0.50000  0.13200  Biso   1.000  H
  O26      1.0000 0.89180  0.00000  0.56020  Biso   1.000  O
  C51      1.0000 0.84040  0.00000  0.61060  Biso   1.000  C
  H51      1.0000 0.83320  0.00000  0.58360  Biso   1.000  H
  C52      1.0000 0.81190  0.00000  0.63910  Biso   1.000  C
  H52      1.0000 0.78500  0.00000  0.63200  Biso   1.000  H
  O27      1.0000 0.39180  0.50000  0.56020  Biso   1.000  O
  C53      1.0000 0.34040  0.50000  0.61060  Biso   1.000  C
  H53      1.0000 0.33320  0.50000  0.58360  Biso   1.000  H
  C54      1.0000 0.31190  0.50000  0.63910  Biso   1.000  C
  H54      1.0000 0.28500  0.50000  0.63200  Biso   1.000  H
  O28      1.0000 0.39180  0.00000  0.06020  Biso   1.000  O
  C55      1.0000 0.34040  0.00000  0.11060  Biso   1.000  C
  H55      1.0000 0.33320  0.00000  0.08360  Biso   1.000  H
  C56      1.0000 0.31190  0.00000  0.13910  Biso   1.000  C
  H56      1.0000 0.28500  0.00000  0.13200  Biso   1.000  H
  O29      1.0000 0.89180  0.50000  0.93980  Biso   1.000  O
  C57      1.0000 0.84040  0.50000  0.88940  Biso   1.000  C
  H57      1.0000 0.83320  0.50000  0.91640  Biso   1.000  H
  C58      1.0000 0.81190  0.50000  0.86090  Biso   1.000  C
  H58      1.0000 0.78500  0.50000  0.86800  Biso   1.000  H
  O30      1.0000 0.89180  0.00000  0.43980  Biso   1.000  O
  C59      1.0000 0.84040  0.00000  0.38940  Biso   1.000  C
  H59      1.0000 0.83320  0.00000  0.41640  Biso   1.000  H
  C60      1.0000 0.81190  0.00000  0.36090  Biso   1.000  C
  H60      1.0000 0.78500  0.00000  0.36800  Biso   1.000  H
  O31      1.0000 0.39180  0.50000  0.43980  Biso   1.000  O
  C61      1.0000 0.34040  0.50000  0.38940  Biso   1.000  C
  H61      1.0000 0.33320  0.50000  0.41640  Biso   1.000  H
  C62      1.0000 0.31190  0.50000  0.36090  Biso   1.000  C
  H62      1.0000 0.28500  0.50000  0.36800  Biso   1.000  H
  O32      1.0000 0.39180  0.00000  0.93980  Biso   1.000  O
  C63      1.0000 0.34040  0.00000  0.88940  Biso   1.000  C
  H63      1.0000 0.33320  0.00000  0.91640  Biso   1.000  H
  C64      1.0000 0.31190  0.00000  0.86090  Biso   1.000  C
  H64      1.0000 0.28500  0.00000  0.86800  Biso   1.000  H
  O33      1.0000 0.06020  0.10820  0.50000  Biso   1.000  O
  C65      1.0000 0.11060  0.15960  0.50000  Biso   1.000  C
  H65      1.0000 0.08360  0.16680  0.50000  Biso   1.000  H
  C66      1.0000 0.13910  0.18810  0.50000  Biso   1.000  C
  H66      1.0000 0.13200  0.21500  0.50000  Biso   1.000  H
  O34      1.0000 0.06020  0.60820  0.00000  Biso   1.000  O
  C67      1.0000 0.11060  0.65960  0.00000  Biso   1.000  C
  H67      1.0000 0.08360  0.66680  0.00000  Biso   1.000  H
  C68      1.0000 0.13910  0.68810  0.00000  Biso   1.000  C
  H68      1.0000 0.13200  0.71500  0.00000  Biso   1.000  H
  O35      1.0000 0.56020  0.10820  0.00000  Biso   1.000  O
  C69      1.0000 0.61060  0.15960  0.00000  Biso   1.000  C
  H69      1.0000 0.58360  0.16680  0.00000  Biso   1.000  H
  C70      1.0000 0.63910  0.18810  0.00000  Biso   1.000  C
  H70      1.0000 0.63200  0.21500  0.00000  Biso   1.000  H
  O36      1.0000 0.56020  0.60820  0.50000  Biso   1.000  O
  C71      1.0000 0.61060  0.65960  0.50000  Biso   1.000  C
  H71      1.0000 0.58360  0.66680  0.50000  Biso   1.000  H
  C72      1.0000 0.63910  0.68810  0.50000  Biso   1.000  C
  H72      1.0000 0.63200  0.71500  0.50000  Biso   1.000  H
  O37      1.0000 0.93980  0.10820  0.50000  Biso   1.000  O
  C73      1.0000 0.88940  0.15960  0.50000  Biso   1.000  C
  H73      1.0000 0.91640  0.16680  0.50000  Biso   1.000  H
  C74      1.0000 0.86090  0.18810  0.50000  Biso   1.000  C
  H74      1.0000 0.86800  0.21500  0.50000  Biso   1.000  H
  O38      1.0000 0.93980  0.60820  0.00000  Biso   1.000  O
  C75      1.0000 0.88940  0.65960  0.00000  Biso   1.000  C
  H75      1.0000 0.91640  0.66680  0.00000  Biso   1.000  H
  C76      1.0000 0.86090  0.68810  0.00000  Biso   1.000  C
  H76      1.0000 0.86800  0.71500  0.00000  Biso   1.000  H
  O39      1.0000 0.43980  0.10820  0.00000  Biso   1.000  O
  C77      1.0000 0.38940  0.15960  0.00000  Biso   1.000  C
  H77      1.0000 0.41640  0.16680  0.00000  Biso   1.000  H
  C78      1.0000 0.36090  0.18810  0.00000  Biso   1.000  C
  H78      1.0000 0.36800  0.21500  0.00000  Biso   1.000  H
  O40      1.0000 0.43980  0.60820  0.50000  Biso   1.000  O
  C79      1.0000 0.38940  0.65960  0.50000  Biso   1.000  C
  H79      1.0000 0.41640  0.66680  0.50000  Biso   1.000  H
  C80      1.0000 0.36090  0.68810  0.50000  Biso   1.000  C
  H80      1.0000 0.36800  0.71500  0.50000  Biso   1.000  H
  O41      1.0000 0.06020  0.89180  0.50000  Biso   1.000  O
  C81      1.0000 0.11060  0.84040  0.50000  Biso   1.000  C
  H81      1.0000 0.08360  0.83320  0.50000  Biso   1.000  H
  C82      1.0000 0.13910  0.81190  0.50000  Biso   1.000  C
  H82      1.0000 0.13200  0.78500  0.50000  Biso   1.000  H
  O42      1.0000 0.06020  0.39180  0.00000  Biso   1.000  O
  C83      1.0000 0.11060  0.34040  0.00000  Biso   1.000  C
  H83      1.0000 0.08360  0.33320  0.00000  Biso   1.000  H
  C84      1.0000 0.13910  0.31190  0.00000  Biso   1.000  C
  H84      1.0000 0.13200  0.28500  0.00000  Biso   1.000  H
  O43      1.0000 0.56020  0.89180  0.00000  Biso   1.000  O
  C85      1.0000 0.61060  0.84040  0.00000  Biso   1.000  C
  H85      1.0000 0.58360  0.83320  0.00000  Biso   1.000  H
  C86      1.0000 0.63910  0.81190  0.00000  Biso   1.000  C
  H86      1.0000 0.63200  0.78500  0.00000  Biso   1.000  H
  O44      1.0000 0.56020  0.39180  0.50000  Biso   1.000  O
  C87      1.0000 0.61060  0.34040  0.50000  Biso   1.000  C
  H87      1.0000 0.58360  0.33320  0.50000  Biso   1.000  H
  C88      1.0000 0.63910  0.31190  0.50000  Biso   1.000  C
  H88      1.0000 0.63200  0.28500  0.50000  Biso   1.000  H
  O45      1.0000 0.93980  0.89180  0.50000  Biso   1.000  O
  C89      1.0000 0.88940  0.84040  0.50000  Biso   1.000  C
  H89      1.0000 0.91640  0.83320  0.50000  Biso   1.000  H
  C90      1.0000 0.86090  0.81190  0.50000  Biso   1.000  C
  H90      1.0000 0.86800  0.78500  0.50000  Biso   1.000  H
  O46      1.0000 0.93980  0.39180  0.00000  Biso   1.000  O
  C91      1.0000 0.88940  0.34040  0.00000  Biso   1.000  C
  H91      1.0000 0.91640  0.33320  0.00000  Biso   1.000  H
  C92      1.0000 0.86090  0.31190  0.00000  Biso   1.000  C
  H92      1.0000 0.86800  0.28500  0.00000  Biso   1.000  H
  O47      1.0000 0.43980  0.89180  0.00000  Biso   1.000  O
  C93      1.0000 0.38940  0.84040  0.00000  Biso   1.000  C
  H93      1.0000 0.41640  0.83320  0.00000  Biso   1.000  H
  C94      1.0000 0.36090  0.81190  0.00000  Biso   1.000  C
  H94      1.0000 0.36800  0.78500  0.00000  Biso   1.000  H
  O48      1.0000 0.43980  0.39180  0.50000  Biso   1.000  O
  C95      1.0000 0.38940  0.34040  0.50000  Biso   1.000  C
  H95      1.0000 0.41640  0.33320  0.50000  Biso   1.000  H
  C96      1.0000 0.36090  0.31190  0.50000  Biso   1.000  C
  H96      1.0000 0.36800  0.28500  0.50000  Biso   1.000  H
  O49      1.0000 0.06020  0.50000  0.89180  Biso   1.000  O
  C97      1.0000 0.11060  0.50000  0.84040  Biso   1.000  C
  H97      1.0000 0.08360  0.50000  0.83320  Biso   1.000  H
  C98      1.0000 0.13910  0.50000  0.81190  Biso   1.000  C
  H98      1.0000 0.13200  0.50000  0.78500  Biso   1.000  H
  O50      1.0000 0.06020  0.00000  0.39180  Biso   1.000  O
  C99      1.0000 0.11060  0.00000  0.34040  Biso   1.000  C
  H99      1.0000 0.08360  0.00000  0.33320  Biso   1.000  H
  C100     1.0000 0.13910  0.00000  0.31190  Biso   1.000  C
  H100     1.0000 0.13200  0.00000  0.28500  Biso   1.000  H
  O51      1.0000 0.56020  0.50000  0.39180  Biso   1.000  O
  C101     1.0000 0.61060  0.50000  0.34040  Biso   1.000  C
  H101     1.0000 0.58360  0.50000  0.33320  Biso   1.000  H
  C102     1.0000 0.63910  0.50000  0.31190  Biso   1.000  C
  H102     1.0000 0.63200  0.50000  0.28500  Biso   1.000  H
  O52      1.0000 0.56020  0.00000  0.89180  Biso   1.000  O
  C103     1.0000 0.61060  0.00000  0.84040  Biso   1.000  C
  H103     1.0000 0.58360  0.00000  0.83320  Biso   1.000  H
  C104     1.0000 0.63910  0.00000  0.81190  Biso   1.000  C
  H104     1.0000 0.63200  0.00000  0.78500  Biso   1.000  H
  O53      1.0000 0.93980  0.50000  0.89180  Biso   1.000  O
  C105     1.0000 0.88940  0.50000  0.84040  Biso   1.000  C
  H105     1.0000 0.91640  0.50000  0.83320  Biso   1.000  H
  C106     1.0000 0.86090  0.50000  0.81190  Biso   1.000  C
  H106     1.0000 0.86800  0.50000  0.78500  Biso   1.000  H
  O54      1.0000 0.93980  0.00000  0.39180  Biso   1.000  O
  C107     1.0000 0.88940  0.00000  0.34040  Biso   1.000  C
  H107     1.0000 0.91640  0.00000  0.33320  Biso   1.000  H
  C108     1.0000 0.86090  0.00000  0.31190  Biso   1.000  C
  H108     1.0000 0.86800  0.00000  0.28500  Biso   1.000  H
  O55      1.0000 0.43980  0.50000  0.39180  Biso   1.000  O
  C109     1.0000 0.38940  0.50000  0.34040  Biso   1.000  C
  H109     1.0000 0.41640  0.50000  0.33320  Biso   1.000  H
  C110     1.0000 0.36090  0.50000  0.31190  Biso   1.000  C
  H110     1.0000 0.36800  0.50000  0.28500  Biso   1.000  H
  O56      1.0000 0.43980  0.00000  0.89180  Biso   1.000  O
  C111     1.0000 0.38940  0.00000  0.84040  Biso   1.000  C
  H111     1.0000 0.41640  0.00000  0.83320  Biso   1.000  H
  C112     1.0000 0.36090  0.00000  0.81190  Biso   1.000  C
  H112     1.0000 0.36800  0.00000  0.78500  Biso   1.000  H
  O57      1.0000 0.06020  0.50000  0.10820  Biso   1.000  O
  C113     1.0000 0.11060  0.50000  0.15960  Biso   1.000  C
  H113     1.0000 0.08360  0.50000  0.16680  Biso   1.000  H
  C114     1.0000 0.13910  0.50000  0.18810  Biso   1.000  C
  H114     1.0000 0.13200  0.50000  0.21500  Biso   1.000  H
  O58      1.0000 0.06020  0.00000  0.60820  Biso   1.000  O
  C115     1.0000 0.11060  0.00000  0.65960  Biso   1.000  C
  H115     1.0000 0.08360  0.00000  0.66680  Biso   1.000  H
  C116     1.0000 0.13910  0.00000  0.68810  Biso   1.000  C
  H116     1.0000 0.13200  0.00000  0.71500  Biso   1.000  H
  O59      1.0000 0.56020  0.50000  0.60820  Biso   1.000  O
  C117     1.0000 0.61060  0.50000  0.65960  Biso   1.000  C
  H117     1.0000 0.58360  0.50000  0.66680  Biso   1.000  H
  C118     1.0000 0.63910  0.50000  0.68810  Biso   1.000  C
  H118     1.0000 0.63200  0.50000  0.71500  Biso   1.000  H
  O60      1.0000 0.56020  0.00000  0.10820  Biso   1.000  O
  C119     1.0000 0.61060  0.00000  0.15960  Biso   1.000  C
  H119     1.0000 0.58360  0.00000  0.16680  Biso   1.000  H
  C120     1.0000 0.63910  0.00000  0.18810  Biso   1.000  C
  H120     1.0000 0.63200  0.00000  0.21500  Biso   1.000  H
  O61      1.0000 0.93980  0.50000  0.10820  Biso   1.000  O
  C121     1.0000 0.88940  0.50000  0.15960  Biso   1.000  C
  H121     1.0000 0.91640  0.50000  0.16680  Biso   1.000  H
  C122     1.0000 0.86090  0.50000  0.18810  Biso   1.000  C
  H122     1.0000 0.86800  0.50000  0.21500  Biso   1.000  H
  O62      1.0000 0.93980  0.00000  0.60820  Biso   1.000  O
  C123     1.0000 0.88940  0.00000  0.65960  Biso   1.000  C
  H123     1.0000 0.91640  0.00000  0.66680  Biso   1.000  H
  C124     1.0000 0.86090  0.00000  0.68810  Biso   1.000  C
  H124     1.0000 0.86800  0.00000  0.71500  Biso   1.000  H
  O63      1.0000 0.43980  0.50000  0.60820  Biso   1.000  O
  C125     1.0000 0.38940  0.50000  0.65960  Biso   1.000  C
  H125     1.0000 0.41640  0.50000  0.66680  Biso   1.000  H
  C126     1.0000 0.36090  0.50000  0.68810  Biso   1.000  C
  H126     1.0000 0.36800  0.50000  0.71500  Biso   1.000  H
  O64      1.0000 0.43980  0.00000  0.10820  Biso   1.000  O
  C127     1.0000 0.38940  0.00000  0.15960  Biso   1.000  C
  H127     1.0000 0.41640  0.00000  0.16680  Biso   1.000  H
  C128     1.0000 0.36090  0.00000  0.18810  Biso   1.000  C
  H128     1.0000 0.36800  0.00000  0.21500  Biso   1.000  H
  O65      1.0000 0.50000  0.10820  0.93980  Biso   1.000  O
  C129     1.0000 0.50000  0.15960  0.88940  Biso   1.000  C
  H129     1.0000 0.50000  0.16680  0.91640  Biso   1.000  H
  C130     1.0000 0.50000  0.18810  0.86090  Biso   1.000  C
  H130     1.0000 0.50000  0.21500  0.86800  Biso   1.000  H
  O66      1.0000 0.50000  0.60820  0.43980  Biso   1.000  O
  C131     1.0000 0.50000  0.65960  0.38940  Biso   1.000  C
  H131     1.0000 0.50000  0.66680  0.41640  Biso   1.000  H
  C132     1.0000 0.50000  0.68810  0.36090  Biso   1.000  C
  H132     1.0000 0.50000  0.71500  0.36800  Biso   1.000  H
  O67      1.0000 0.00000  0.10820  0.43980  Biso   1.000  O
  C133     1.0000 0.00000  0.15960  0.38940  Biso   1.000  C
  H133     1.0000 0.00000  0.16680  0.41640  Biso   1.000  H
  C134     1.0000 0.00000  0.18810  0.36090  Biso   1.000  C
  H134     1.0000 0.00000  0.21500  0.36800  Biso   1.000  H
  O68      1.0000 0.00000  0.60820  0.93980  Biso   1.000  O
  C135     1.0000 0.00000  0.65960  0.88940  Biso   1.000  C
  H135     1.0000 0.00000  0.66680  0.91640  Biso   1.000  H
  C136     1.0000 0.00000  0.68810  0.86090  Biso   1.000  C
  H136     1.0000 0.00000  0.71500  0.86800  Biso   1.000  H
  O69      1.0000 0.50000  0.10820  0.06020  Biso   1.000  O
  C137     1.0000 0.50000  0.15960  0.11060  Biso   1.000  C
  H137     1.0000 0.50000  0.16680  0.08360  Biso   1.000  H
  C138     1.0000 0.50000  0.18810  0.13910  Biso   1.000  C
  H138     1.0000 0.50000  0.21500  0.13200  Biso   1.000  H
  O70      1.0000 0.50000  0.60820  0.56020  Biso   1.000  O
  C139     1.0000 0.50000  0.65960  0.61060  Biso   1.000  C
  H139     1.0000 0.50000  0.66680  0.58360  Biso   1.000  H
  C140     1.0000 0.50000  0.68810  0.63910  Biso   1.000  C
  H140     1.0000 0.50000  0.71500  0.63200  Biso   1.000  H
  O71      1.0000 0.00000  0.10820  0.56020  Biso   1.000  O
  C141     1.0000 0.00000  0.15960  0.61060  Biso   1.000  C
  H141     1.0000 0.00000  0.16680  0.58360  Biso   1.000  H
  C142     1.0000 0.00000  0.18810  0.63910  Biso   1.000  C
  H142     1.0000 0.00000  0.21500  0.63200  Biso   1.000  H
  O72      1.0000 0.00000  0.60820  0.06020  Biso   1.000  O
  C143     1.0000 0.00000  0.65960  0.11060  Biso   1.000  C
  H143     1.0000 0.00000  0.66680  0.08360  Biso   1.000  H
  C144     1.0000 0.00000  0.68810  0.13910  Biso   1.000  C
  H144     1.0000 0.00000  0.71500  0.13200  Biso   1.000  H
  O73      1.0000 0.50000  0.89180  0.93980  Biso   1.000  O
  C145     1.0000 0.50000  0.84040  0.88940  Biso   1.000  C
  H145     1.0000 0.50000  0.83320  0.91640  Biso   1.000  H
  C146     1.0000 0.50000  0.81190  0.86090  Biso   1.000  C
  H146     1.0000 0.50000  0.78500  0.86800  Biso   1.000  H
  O74      1.0000 0.50000  0.39180  0.43980  Biso   1.000  O
  C147     1.0000 0.50000  0.34040  0.38940  Biso   1.000  C
  H147     1.0000 0.50000  0.33320  0.41640  Biso   1.000  H
  C148     1.0000 0.50000  0.31190  0.36090  Biso   1.000  C
  H148     1.0000 0.50000  0.28500  0.36800  Biso   1.000  H
  O75      1.0000 0.00000  0.89180  0.43980  Biso   1.000  O
  C149     1.0000 0.00000  0.84040  0.38940  Biso   1.000  C
  H149     1.0000 0.00000  0.83320  0.41640  Biso   1.000  H
  C150     1.0000 0.00000  0.81190  0.36090  Biso   1.000  C
  H150     1.0000 0.00000  0.78500  0.36800  Biso   1.000  H
  O76      1.0000 0.00000  0.39180  0.93980  Biso   1.000  O
  C151     1.0000 0.00000  0.34040  0.88940  Biso   1.000  C
  H151     1.0000 0.00000  0.33320  0.91640  Biso   1.000  H
  C152     1.0000 0.00000  0.31190  0.86090  Biso   1.000  C
  H152     1.0000 0.00000  0.28500  0.86800  Biso   1.000  H
  O77      1.0000 0.50000  0.89180  0.06020  Biso   1.000  O
  C153     1.0000 0.50000  0.84040  0.11060  Biso   1.000  C
  H153     1.0000 0.50000  0.83320  0.08360  Biso   1.000  H
  C154     1.0000 0.50000  0.81190  0.13910  Biso   1.000  C
  H154     1.0000 0.50000  0.78500  0.13200  Biso   1.000  H
  O78      1.0000 0.50000  0.39180  0.56020  Biso   1.000  O
  C155     1.0000 0.50000  0.34040  0.61060  Biso   1.000  C
  H155     1.0000 0.50000  0.33320  0.58360  Biso   1.000  H
  C156     1.0000 0.50000  0.31190  0.63910  Biso   1.000  C
  H156     1.0000 0.50000  0.28500  0.63200  Biso   1.000  H
  O79      1.0000 0.00000  0.89180  0.56020  Biso   1.000  O
  C157     1.0000 0.00000  0.84040  0.61060  Biso   1.000  C
  H157     1.0000 0.00000  0.83320  0.58360  Biso   1.000  H
  C158     1.0000 0.00000  0.81190  0.63910  Biso   1.000  C
  H158     1.0000 0.00000  0.78500  0.63200  Biso   1.000  H
  O80      1.0000 0.00000  0.39180  0.06020  Biso   1.000  O
  C159     1.0000 0.00000  0.34040  0.11060  Biso   1.000  C
  H159     1.0000 0.00000  0.33320  0.08360  Biso   1.000  H
  C160     1.0000 0.00000  0.31190  0.13910  Biso   1.000  C
  H160     1.0000 0.00000  0.28500  0.13200  Biso   1.000  H
  O81      1.0000 0.10820  0.06020  0.50000  Biso   1.000  O
  C161     1.0000 0.15960  0.11060  0.50000  Biso   1.000  C
  H161     1.0000 0.16680  0.08360  0.50000  Biso   1.000  H
  C162     1.0000 0.18810  0.13910  0.50000  Biso   1.000  C
  H162     1.0000 0.21500  0.13200  0.50000  Biso   1.000  H
  O82      1.0000 0.10820  0.56020  0.00000  Biso   1.000  O
  C163     1.0000 0.15960  0.61060  0.00000  Biso   1.000  C
  H163     1.0000 0.16680  0.58360  0.00000  Biso   1.000  H
  C164     1.0000 0.18810  0.63910  0.00000  Biso   1.000  C
  H164     1.0000 0.21500  0.63200  0.00000  Biso   1.000  H
  O83      1.0000 0.60820  0.06020  0.00000  Biso   1.000  O
  C165     1.0000 0.65960  0.11060  0.00000  Biso   1.000  C
  H165     1.0000 0.66680  0.08360  0.00000  Biso   1.000  H
  C166     1.0000 0.68810  0.13910  0.00000  Biso   1.000  C
  H166     1.0000 0.71500  0.13200  0.00000  Biso   1.000  H
  O84      1.0000 0.60820  0.56020  0.50000  Biso   1.000  O
  C167     1.0000 0.65960  0.61060  0.50000  Biso   1.000  C
  H167     1.0000 0.66680  0.58360  0.50000  Biso   1.000  H
  C168     1.0000 0.68810  0.63910  0.50000  Biso   1.000  C
  H168     1.0000 0.71500  0.63200  0.50000  Biso   1.000  H
  O85      1.0000 0.10820  0.93980  0.50000  Biso   1.000  O
  C169     1.0000 0.15960  0.88940  0.50000  Biso   1.000  C
  H169     1.0000 0.16680  0.91640  0.50000  Biso   1.000  H
  C170     1.0000 0.18810  0.86090  0.50000  Biso   1.000  C
  H170     1.0000 0.21500  0.86800  0.50000  Biso   1.000  H
  O86      1.0000 0.10820  0.43980  0.00000  Biso   1.000  O
  C171     1.0000 0.15960  0.38940  0.00000  Biso   1.000  C
  H171     1.0000 0.16680  0.41640  0.00000  Biso   1.000  H
  C172     1.0000 0.18810  0.36090  0.00000  Biso   1.000  C
  H172     1.0000 0.21500  0.36800  0.00000  Biso   1.000  H
  O87      1.0000 0.60820  0.93980  0.00000  Biso   1.000  O
  C173     1.0000 0.65960  0.88940  0.00000  Biso   1.000  C
  H173     1.0000 0.66680  0.91640  0.00000  Biso   1.000  H
  C174     1.0000 0.68810  0.86090  0.00000  Biso   1.000  C
  H174     1.0000 0.71500  0.86800  0.00000  Biso   1.000  H
  O88      1.0000 0.60820  0.43980  0.50000  Biso   1.000  O
  C175     1.0000 0.65960  0.38940  0.50000  Biso   1.000  C
  H175     1.0000 0.66680  0.41640  0.50000  Biso   1.000  H
  C176     1.0000 0.68810  0.36090  0.50000  Biso   1.000  C
  H176     1.0000 0.71500  0.36800  0.50000  Biso   1.000  H
  O89      1.0000 0.89180  0.06020  0.50000  Biso   1.000  O
  C177     1.0000 0.84040  0.11060  0.50000  Biso   1.000  C
  H177     1.0000 0.83320  0.08360  0.50000  Biso   1.000  H
  C178     1.0000 0.81190  0.13910  0.50000  Biso   1.000  C
  H178     1.0000 0.78500  0.13200  0.50000  Biso   1.000  H
  O90      1.0000 0.89180  0.56020  0.00000  Biso   1.000  O
  C179     1.0000 0.84040  0.61060  0.00000  Biso   1.000  C
  H179     1.0000 0.83320  0.58360  0.00000  Biso   1.000  H
  C180     1.0000 0.81190  0.63910  0.00000  Biso   1.000  C
  H180     1.0000 0.78500  0.63200  0.00000  Biso   1.000  H
  O91      1.0000 0.39180  0.06020  0.00000  Biso   1.000  O
  C181     1.0000 0.34040  0.11060  0.00000  Biso   1.000  C
  H181     1.0000 0.33320  0.08360  0.00000  Biso   1.000  H
  C182     1.0000 0.31190  0.13910  0.00000  Biso   1.000  C
  H182     1.0000 0.28500  0.13200  0.00000  Biso   1.000  H
  O92      1.0000 0.39180  0.56020  0.50000  Biso   1.000  O
  C183     1.0000 0.34040  0.61060  0.50000  Biso   1.000  C
  H183     1.0000 0.33320  0.58360  0.50000  Biso   1.000  H
  C184     1.0000 0.31190  0.63910  0.50000  Biso   1.000  C
  H184     1.0000 0.28500  0.63200  0.50000  Biso   1.000  H
  O93      1.0000 0.89180  0.93980  0.50000  Biso   1.000  O
  C185     1.0000 0.84040  0.88940  0.50000  Biso   1.000  C
  H185     1.0000 0.83320  0.91640  0.50000  Biso   1.000  H
  C186     1.0000 0.81190  0.86090  0.50000  Biso   1.000  C
  H186     1.0000 0.78500  0.86800  0.50000  Biso   1.000  H
  O94      1.0000 0.89180  0.43980  0.00000  Biso   1.000  O
  C187     1.0000 0.84040  0.38940  0.00000  Biso   1.000  C
  H187     1.0000 0.83320  0.41640  0.00000  Biso   1.000  H
  C188     1.0000 0.81190  0.36090  0.00000  Biso   1.000  C
  H188     1.0000 0.78500  0.36800  0.00000  Biso   1.000  H
  O95      1.0000 0.39180  0.93980  0.00000  Biso   1.000  O
  C189     1.0000 0.34040  0.88940  0.00000  Biso   1.000  C
  H189     1.0000 0.33320  0.91640  0.00000  Biso   1.000  H
  C190     1.0000 0.31190  0.86090  0.00000  Biso   1.000  C
  H190     1.0000 0.28500  0.86800  0.00000  Biso   1.000  H
  O96      1.0000 0.39180  0.43980  0.50000  Biso   1.000  O
  C191     1.0000 0.34040  0.38940  0.50000  Biso   1.000  C
  H191     1.0000 0.33320  0.41640  0.50000  Biso   1.000  H
  C192     1.0000 0.31190  0.36090  0.50000  Biso   1.000  C
  H192     1.0000 0.28500  0.36800  0.50000  Biso   1.000  H
  O97      1.0000 0.46770  0.03230  0.03230  Biso   1.000  O
  O98      1.0000 0.46770  0.53230  0.53230  Biso   1.000  O
  O99      1.0000 0.53230  0.96770  0.03230  Biso   1.000  O
  O100     1.0000 0.53230  0.46770  0.53230  Biso   1.000  O
  O101     1.0000 0.03230  0.46770  0.03230  Biso   1.000  O
  O102     1.0000 0.53230  0.03230  0.96770  Biso   1.000  O
  O103     1.0000 0.53230  0.53230  0.46770  Biso   1.000  O
  O104     1.0000 0.03230  0.03230  0.46770  Biso   1.000  O
  O105     1.0000 0.46770  0.96770  0.96770  Biso   1.000  O
  O106     1.0000 0.46770  0.46770  0.46770  Biso   1.000  O
  O107     1.0000 0.03230  0.53230  0.96770  Biso   1.000  O
  O108     1.0000 0.96770  0.53230  0.03230  Biso   1.000  O
  O109     1.0000 0.96770  0.46770  0.96770  Biso   1.000  O
  O110     1.0000 0.96770  0.03230  0.53230  Biso   1.000  O
  O111     1.0000 0.03230  0.96770  0.53230  Biso   1.000  O
  O112     1.0000 0.96770  0.96770  0.46770  Biso   1.000  O
  O113     1.0000 0.03230  0.46770  0.96770  Biso   1.000  O
  O114     1.0000 0.96770  0.53230  0.96770  Biso   1.000  O
  O115     1.0000 0.96770  0.03230  0.46770  Biso   1.000  O
  O116     1.0000 0.46770  0.03230  0.96770  Biso   1.000  O
  O117     1.0000 0.03230  0.53230  0.03230  Biso   1.000  O
  O118     1.0000 0.96770  0.46770  0.03230  Biso   1.000  O
  O119     1.0000 0.46770  0.46770  0.53230  Biso   1.000  O
  O120     1.0000 0.46770  0.53230  0.46770  Biso   1.000  O
  O121     1.0000 0.53230  0.03230  0.03230  Biso   1.000  O
  O122     1.0000 0.53230  0.53230  0.53230  Biso   1.000  O
  O123     1.0000 0.53230  0.96770  0.96770  Biso   1.000  O
  O124     1.0000 0.53230  0.46770  0.46770  Biso   1.000  O
  O125     1.0000 0.03230  0.96770  0.46770  Biso   1.000  O
  O126     1.0000 0.46770  0.96770  0.03230  Biso   1.000  O
  O127     1.0000 0.03230  0.03230  0.53230  Biso   1.000  O
  O128     1.0000 0.96770  0.96770  0.53230  Biso   1.000  O
  C193     1.0000 0.50000  0.08970  0.08970  Biso   1.000  C
  C194     1.0000 0.50000  0.12110  0.12110  Biso   1.000  C
  C195     1.0000 0.50000  0.17770  0.17770  Biso   1.000  C
  C196     1.0000 0.50000  0.20920  0.20920  Biso   1.000  C
  C197     1.0000 0.50000  0.23430  0.23430  Biso   1.000  C
  C198     1.0000 0.50000  0.58970  0.58970  Biso   1.000  C
  C199     1.0000 0.50000  0.62110  0.62110  Biso   1.000  C
  C200     1.0000 0.50000  0.67770  0.67770  Biso   1.000  C
  C201     1.0000 0.50000  0.70920  0.70920  Biso   1.000  C
  C202     1.0000 0.50000  0.73430  0.73430  Biso   1.000  C
  C203     1.0000 0.00000  0.08970  0.58970  Biso   1.000  C
  C204     1.0000 0.00000  0.12110  0.62110  Biso   1.000  C
  C205     1.0000 0.00000  0.17770  0.67770  Biso   1.000  C
  C206     1.0000 0.00000  0.20920  0.70920  Biso   1.000  C
  C207     1.0000 0.00000  0.23430  0.73430  Biso   1.000  C
  C208     1.0000 0.00000  0.58970  0.08970  Biso   1.000  C
  C209     1.0000 0.00000  0.62110  0.12110  Biso   1.000  C
  C210     1.0000 0.00000  0.67770  0.17770  Biso   1.000  C
  C211     1.0000 0.00000  0.70920  0.20920  Biso   1.000  C
  C212     1.0000 0.00000  0.73430  0.23430  Biso   1.000  C
  C213     1.0000 0.50000  0.91030  0.08970  Biso   1.000  C
  C214     1.0000 0.50000  0.87890  0.12110  Biso   1.000  C
  C215     1.0000 0.50000  0.82230  0.17770  Biso   1.000  C
  C216     1.0000 0.50000  0.79080  0.20920  Biso   1.000  C
  C217     1.0000 0.50000  0.76570  0.23430  Biso   1.000  C
  C218     1.0000 0.50000  0.41030  0.58970  Biso   1.000  C
  C219     1.0000 0.50000  0.37890  0.62110  Biso   1.000  C
  C220     1.0000 0.50000  0.32230  0.67770  Biso   1.000  C
  C221     1.0000 0.50000  0.29080  0.70920  Biso   1.000  C
  C222     1.0000 0.50000  0.26570  0.73430  Biso   1.000  C
  C223     1.0000 0.00000  0.91030  0.58970  Biso   1.000  C
  C224     1.0000 0.00000  0.87890  0.62110  Biso   1.000  C
  C225     1.0000 0.00000  0.82230  0.67770  Biso   1.000  C
  C226     1.0000 0.00000  0.79080  0.70920  Biso   1.000  C
  C227     1.0000 0.00000  0.76570  0.73430  Biso   1.000  C
  C228     1.0000 0.00000  0.41030  0.08970  Biso   1.000  C
  C229     1.0000 0.00000  0.37890  0.12110  Biso   1.000  C
  C230     1.0000 0.00000  0.32230  0.17770  Biso   1.000  C
  C231     1.0000 0.00000  0.29080  0.20920  Biso   1.000  C
  C232     1.0000 0.00000  0.26570  0.23430  Biso   1.000  C
  C233     1.0000 0.50000  0.08970  0.91030  Biso   1.000  C
  C234     1.0000 0.50000  0.12110  0.87890  Biso   1.000  C
  C235     1.0000 0.50000  0.17770  0.82230  Biso   1.000  C
  C236     1.0000 0.50000  0.20920  0.79080  Biso   1.000  C
  C237     1.0000 0.50000  0.23430  0.76570  Biso   1.000  C
  C238     1.0000 0.50000  0.58970  0.41030  Biso   1.000  C
  C239     1.0000 0.50000  0.62110  0.37890  Biso   1.000  C
  C240     1.0000 0.50000  0.67770  0.32230  Biso   1.000  C
  C241     1.0000 0.50000  0.70920  0.29080  Biso   1.000  C
  C242     1.0000 0.50000  0.73430  0.26570  Biso   1.000  C
  C243     1.0000 0.00000  0.08970  0.41030  Biso   1.000  C
  C244     1.0000 0.00000  0.12110  0.37890  Biso   1.000  C
  C245     1.0000 0.00000  0.17770  0.32230  Biso   1.000  C
  C246     1.0000 0.00000  0.20920  0.29080  Biso   1.000  C
  C247     1.0000 0.00000  0.23430  0.26570  Biso   1.000  C
  C248     1.0000 0.00000  0.58970  0.91030  Biso   1.000  C
  C249     1.0000 0.00000  0.62110  0.87890  Biso   1.000  C
  C250     1.0000 0.00000  0.67770  0.82230  Biso   1.000  C
  C251     1.0000 0.00000  0.70920  0.79080  Biso   1.000  C
  C252     1.0000 0.00000  0.73430  0.76570  Biso   1.000  C
  C253     1.0000 0.50000  0.91030  0.91030  Biso   1.000  C
  C254     1.0000 0.50000  0.87890  0.87890  Biso   1.000  C
  C255     1.0000 0.50000  0.82230  0.82230  Biso   1.000  C
  C256     1.0000 0.50000  0.79080  0.79080  Biso   1.000  C
  C257     1.0000 0.50000  0.76570  0.76570  Biso   1.000  C
  C258     1.0000 0.50000  0.41030  0.41030  Biso   1.000  C
  C259     1.0000 0.50000  0.37890  0.37890  Biso   1.000  C
  C260     1.0000 0.50000  0.32230  0.32230  Biso   1.000  C
  C261     1.0000 0.50000  0.29080  0.29080  Biso   1.000  C
  C262     1.0000 0.50000  0.26570  0.26570  Biso   1.000  C
  C263     1.0000 0.00000  0.91030  0.41030  Biso   1.000  C
  C264     1.0000 0.00000  0.87890  0.37890  Biso   1.000  C
  C265     1.0000 0.00000  0.82230  0.32230  Biso   1.000  C
  C266     1.0000 0.00000  0.79080  0.29080  Biso   1.000  C
  C267     1.0000 0.00000  0.76570  0.26570  Biso   1.000  C
  C268     1.0000 0.00000  0.41030  0.91030  Biso   1.000  C
  C269     1.0000 0.00000  0.37890  0.87890  Biso   1.000  C
  C270     1.0000 0.00000  0.32230  0.82230  Biso   1.000  C
  C271     1.0000 0.00000  0.29080  0.79080  Biso   1.000  C
  C272     1.0000 0.00000  0.26570  0.76570  Biso   1.000  C
  C273     1.0000 0.08970  0.50000  0.08970  Biso   1.000  C
  C274     1.0000 0.12110  0.50000  0.12110  Biso   1.000  C
  C275     1.0000 0.17770  0.50000  0.17770  Biso   1.000  C
  C276     1.0000 0.20920  0.50000  0.20920  Biso   1.000  C
  C277     1.0000 0.23430  0.50000  0.23430  Biso   1.000  C
  C278     1.0000 0.08970  0.00000  0.58970  Biso   1.000  C
  C279     1.0000 0.12110  0.00000  0.62110  Biso   1.000  C
  C280     1.0000 0.17770  0.00000  0.67770  Biso   1.000  C
  C281     1.0000 0.20920  0.00000  0.70920  Biso   1.000  C
  C282     1.0000 0.23430  0.00000  0.73430  Biso   1.000  C
  C283     1.0000 0.58970  0.50000  0.58970  Biso   1.000  C
  C284     1.0000 0.62110  0.50000  0.62110  Biso   1.000  C
  C285     1.0000 0.67770  0.50000  0.67770  Biso   1.000  C
  C286     1.0000 0.70920  0.50000  0.70920  Biso   1.000  C
  C287     1.0000 0.73430  0.50000  0.73430  Biso   1.000  C
  C288     1.0000 0.58970  0.00000  0.08970  Biso   1.000  C
  C289     1.0000 0.62110  0.00000  0.12110  Biso   1.000  C
  C290     1.0000 0.67770  0.00000  0.17770  Biso   1.000  C
  C291     1.0000 0.70920  0.00000  0.20920  Biso   1.000  C
  C292     1.0000 0.73430  0.00000  0.23430  Biso   1.000  C
  C293     1.0000 0.08970  0.50000  0.91030  Biso   1.000  C
  C294     1.0000 0.12110  0.50000  0.87890  Biso   1.000  C
  C295     1.0000 0.17770  0.50000  0.82230  Biso   1.000  C
  C296     1.0000 0.20920  0.50000  0.79080  Biso   1.000  C
  C297     1.0000 0.23430  0.50000  0.76570  Biso   1.000  C
  C298     1.0000 0.08970  0.00000  0.41030  Biso   1.000  C
  C299     1.0000 0.12110  0.00000  0.37890  Biso   1.000  C
  C300     1.0000 0.17770  0.00000  0.32230  Biso   1.000  C
  C301     1.0000 0.20920  0.00000  0.29080  Biso   1.000  C
  C302     1.0000 0.23430  0.00000  0.26570  Biso   1.000  C
  C303     1.0000 0.58970  0.50000  0.41030  Biso   1.000  C
  C304     1.0000 0.62110  0.50000  0.37890  Biso   1.000  C
  C305     1.0000 0.67770  0.50000  0.32230  Biso   1.000  C
  C306     1.0000 0.70920  0.50000  0.29080  Biso   1.000  C
  C307     1.0000 0.73430  0.50000  0.26570  Biso   1.000  C
  C308     1.0000 0.58970  0.00000  0.91030  Biso   1.000  C
  C309     1.0000 0.62110  0.00000  0.87890  Biso   1.000  C
  C310     1.0000 0.67770  0.00000  0.82230  Biso   1.000  C
  C311     1.0000 0.70920  0.00000  0.79080  Biso   1.000  C
  C312     1.0000 0.73430  0.00000  0.76570  Biso   1.000  C
  C313     1.0000 0.91030  0.50000  0.08970  Biso   1.000  C
  C314     1.0000 0.87890  0.50000  0.12110  Biso   1.000  C
  C315     1.0000 0.82230  0.50000  0.17770  Biso   1.000  C
  C316     1.0000 0.79080  0.50000  0.20920  Biso   1.000  C
  C317     1.0000 0.76570  0.50000  0.23430  Biso   1.000  C
  C318     1.0000 0.91030  0.00000  0.58970  Biso   1.000  C
  C319     1.0000 0.87890  0.00000  0.62110  Biso   1.000  C
  C320     1.0000 0.82230  0.00000  0.67770  Biso   1.000  C
  C321     1.0000 0.79080  0.00000  0.70920  Biso   1.000  C
  C322     1.0000 0.76570  0.00000  0.73430  Biso   1.000  C
  C323     1.0000 0.41030  0.50000  0.58970  Biso   1.000  C
  C324     1.0000 0.37890  0.50000  0.62110  Biso   1.000  C
  C325     1.0000 0.32230  0.50000  0.67770  Biso   1.000  C
  C326     1.0000 0.29080  0.50000  0.70920  Biso   1.000  C
  C327     1.0000 0.26570  0.50000  0.73430  Biso   1.000  C
  C328     1.0000 0.41030  0.00000  0.08970  Biso   1.000  C
  C329     1.0000 0.37890  0.00000  0.12110  Biso   1.000  C
  C330     1.0000 0.32230  0.00000  0.17770  Biso   1.000  C
  C331     1.0000 0.29080  0.00000  0.20920  Biso   1.000  C
  C332     1.0000 0.26570  0.00000  0.23430  Biso   1.000  C
  C333     1.0000 0.91030  0.50000  0.91030  Biso   1.000  C
  C334     1.0000 0.87890  0.50000  0.87890  Biso   1.000  C
  C335     1.0000 0.82230  0.50000  0.82230  Biso   1.000  C
  C336     1.0000 0.79080  0.50000  0.79080  Biso   1.000  C
  C337     1.0000 0.76570  0.50000  0.76570  Biso   1.000  C
  C338     1.0000 0.91030  0.00000  0.41030  Biso   1.000  C
  C339     1.0000 0.87890  0.00000  0.37890  Biso   1.000  C
  C340     1.0000 0.82230  0.00000  0.32230  Biso   1.000  C
  C341     1.0000 0.79080  0.00000  0.29080  Biso   1.000  C
  C342     1.0000 0.76570  0.00000  0.26570  Biso   1.000  C
  C343     1.0000 0.41030  0.50000  0.41030  Biso   1.000  C
  C344     1.0000 0.37890  0.50000  0.37890  Biso   1.000  C
  C345     1.0000 0.32230  0.50000  0.32230  Biso   1.000  C
  C346     1.0000 0.29080  0.50000  0.29080  Biso   1.000  C
  C347     1.0000 0.26570  0.50000  0.26570  Biso   1.000  C
  C348     1.0000 0.41030  0.00000  0.91030  Biso   1.000  C
  C349     1.0000 0.37890  0.00000  0.87890  Biso   1.000  C
  C350     1.0000 0.32230  0.00000  0.82230  Biso   1.000  C
  C351     1.0000 0.29080  0.00000  0.79080  Biso   1.000  C
  C352     1.0000 0.26570  0.00000  0.76570  Biso   1.000  C
  C353     1.0000 0.08970  0.08970  0.50000  Biso   1.000  C
  C354     1.0000 0.12110  0.12110  0.50000  Biso   1.000  C
  C355     1.0000 0.17770  0.17770  0.50000  Biso   1.000  C
  C356     1.0000 0.20920  0.20920  0.50000  Biso   1.000  C
  C357     1.0000 0.23430  0.23430  0.50000  Biso   1.000  C
  C358     1.0000 0.08970  0.58970  0.00000  Biso   1.000  C
  C359     1.0000 0.12110  0.62110  0.00000  Biso   1.000  C
  C360     1.0000 0.17770  0.67770  0.00000  Biso   1.000  C
  C361     1.0000 0.20920  0.70920  0.00000  Biso   1.000  C
  C362     1.0000 0.23430  0.73430  0.00000  Biso   1.000  C
  C363     1.0000 0.58970  0.08970  0.00000  Biso   1.000  C
  C364     1.0000 0.62110  0.12110  0.00000  Biso   1.000  C
  C365     1.0000 0.67770  0.17770  0.00000  Biso   1.000  C
  C366     1.0000 0.70920  0.20920  0.00000  Biso   1.000  C
  C367     1.0000 0.73430  0.23430  0.00000  Biso   1.000  C
  C368     1.0000 0.58970  0.58970  0.50000  Biso   1.000  C
  C369     1.0000 0.62110  0.62110  0.50000  Biso   1.000  C
  C370     1.0000 0.67770  0.67770  0.50000  Biso   1.000  C
  C371     1.0000 0.70920  0.70920  0.50000  Biso   1.000  C
  C372     1.0000 0.73430  0.73430  0.50000  Biso   1.000  C
  C373     1.0000 0.91030  0.08970  0.50000  Biso   1.000  C
  C374     1.0000 0.87890  0.12110  0.50000  Biso   1.000  C
  C375     1.0000 0.82230  0.17770  0.50000  Biso   1.000  C
  C376     1.0000 0.79080  0.20920  0.50000  Biso   1.000  C
  C377     1.0000 0.76570  0.23430  0.50000  Biso   1.000  C
  C378     1.0000 0.91030  0.58970  0.00000  Biso   1.000  C
  C379     1.0000 0.87890  0.62110  0.00000  Biso   1.000  C
  C380     1.0000 0.82230  0.67770  0.00000  Biso   1.000  C
  C381     1.0000 0.79080  0.70920  0.00000  Biso   1.000  C
  C382     1.0000 0.76570  0.73430  0.00000  Biso   1.000  C
  C383     1.0000 0.41030  0.08970  0.00000  Biso   1.000  C
  C384     1.0000 0.37890  0.12110  0.00000  Biso   1.000  C
  C385     1.0000 0.32230  0.17770  0.00000  Biso   1.000  C
  C386     1.0000 0.29080  0.20920  0.00000  Biso   1.000  C
  C387     1.0000 0.26570  0.23430  0.00000  Biso   1.000  C
  C388     1.0000 0.41030  0.58970  0.50000  Biso   1.000  C
  C389     1.0000 0.37890  0.62110  0.50000  Biso   1.000  C
  C390     1.0000 0.32230  0.67770  0.50000  Biso   1.000  C
  C391     1.0000 0.29080  0.70920  0.50000  Biso   1.000  C
  C392     1.0000 0.26570  0.73430  0.50000  Biso   1.000  C
  C393     1.0000 0.08970  0.91030  0.50000  Biso   1.000  C
  C394     1.0000 0.12110  0.87890  0.50000  Biso   1.000  C
  C395     1.0000 0.17770  0.82230  0.50000  Biso   1.000  C
  C396     1.0000 0.20920  0.79080  0.50000  Biso   1.000  C
  C397     1.0000 0.23430  0.76570  0.50000  Biso   1.000  C
  C398     1.0000 0.08970  0.41030  0.00000  Biso   1.000  C
  C399     1.0000 0.12110  0.37890  0.00000  Biso   1.000  C
  C400     1.0000 0.17770  0.32230  0.00000  Biso   1.000  C
  C401     1.0000 0.20920  0.29080  0.00000  Biso   1.000  C
  C402     1.0000 0.23430  0.26570  0.00000  Biso   1.000  C
  C403     1.0000 0.58970  0.91030  0.00000  Biso   1.000  C
  C404     1.0000 0.62110  0.87890  0.00000  Biso   1.000  C
  C405     1.0000 0.67770  0.82230  0.00000  Biso   1.000  C
  C406     1.0000 0.70920  0.79080  0.00000  Biso   1.000  C
  C407     1.0000 0.73430  0.76570  0.00000  Biso   1.000  C
  C408     1.0000 0.58970  0.41030  0.50000  Biso   1.000  C
  C409     1.0000 0.62110  0.37890  0.50000  Biso   1.000  C
  C410     1.0000 0.67770  0.32230  0.50000  Biso   1.000  C
  C411     1.0000 0.70920  0.29080  0.50000  Biso   1.000  C
  C412     1.0000 0.73430  0.26570  0.50000  Biso   1.000  C
  C413     1.0000 0.91030  0.91030  0.50000  Biso   1.000  C
  C414     1.0000 0.87890  0.87890  0.50000  Biso   1.000  C
  C415     1.0000 0.82230  0.82230  0.50000  Biso   1.000  C
  C416     1.0000 0.79080  0.79080  0.50000  Biso   1.000  C
  C417     1.0000 0.76570  0.76570  0.50000  Biso   1.000  C
  C418     1.0000 0.91030  0.41030  0.00000  Biso   1.000  C
  C419     1.0000 0.87890  0.37890  0.00000  Biso   1.000  C
  C420     1.0000 0.82230  0.32230  0.00000  Biso   1.000  C
  C421     1.0000 0.79080  0.29080  0.00000  Biso   1.000  C
  C422     1.0000 0.76570  0.26570  0.00000  Biso   1.000  C
  C423     1.0000 0.41030  0.91030  0.00000  Biso   1.000  C
  C424     1.0000 0.37890  0.87890  0.00000  Biso   1.000  C
  C425     1.0000 0.32230  0.82230  0.00000  Biso   1.000  C
  C426     1.0000 0.29080  0.79080  0.00000  Biso   1.000  C
  C427     1.0000 0.26570  0.76570  0.00000  Biso   1.000  C
  C428     1.0000 0.41030  0.41030  0.50000  Biso   1.000  C
  C429     1.0000 0.37890  0.37890  0.50000  Biso   1.000  C
  C430     1.0000 0.32230  0.32230  0.50000  Biso   1.000  C
  C431     1.0000 0.29080  0.29080  0.50000  Biso   1.000  C
  C432     1.0000 0.26570  0.26570  0.50000  Biso   1.000  C
