data_I
_chemical_name_common  '/Users/gianmarcoterrones/Research/MOFs/MOF_structures/water_stability_work_extra_structs/cleaned_from_CCDC/VEMHOL'
_cell_length_a 13.11980
_cell_length_b 13.11980
_cell_length_c 13.60070
_cell_angle_alpha 90.00000
_cell_angle_beta  90.00000
_cell_angle_gamma 120.00000
_space_group_name_H-M_alt      'P 1'


loop_
_space_group_symop_operation_xyz
  'x, y, z' 

loop_
_atom_site_label
_atom_site_fract_x
_atom_site_fract_y
_atom_site_fract_z
_atom_site_type_symbol
Cd         0.0  0.51275      0.5    Cd
Cd         0.0  0.51275      1.0    Cd
C       0.0134    0.517     0.75     C
H       0.0203   0.7362   0.1295     H
H       0.0203   0.7362   0.3705     H
N       0.0451   0.7815   0.6299     N
N       0.0451   0.7815   0.8701     N
H       0.0505    0.841   0.6611     H
H       0.0505    0.841   0.8389     H
N        0.053    0.538   0.1693     N
N        0.053    0.538   0.3307     N
N       0.1124   0.3589   0.5877     N
N       0.1124   0.3589   0.9123     N
N       0.1347   0.5752     0.75     N
N       0.1384   0.4542   0.5335     N
N       0.1384   0.4542   0.9665     N
C       0.1388   0.7911   0.5816     C
C       0.1388   0.7911   0.9184     C
N       0.1433   0.7075   0.5308     N
N       0.1433   0.7075   0.9692     N
H       0.1567   0.5864    0.698     H
H       0.1567   0.5864    0.802     H
H        0.159   0.2095   0.6611     H
H        0.159   0.2095   0.8389     H
N       0.1645   0.5929    0.202     N
N       0.1645   0.5929    0.298     N
C       0.2089   0.3477   0.5816     C
C       0.2089   0.3477   0.9184     C
H       0.2095    0.159   0.1611     H
H       0.2095    0.159   0.3389     H
N       0.2185   0.2636   0.6299     N
N       0.2185   0.2636   0.8701     N
N       0.2456   0.5012   0.5009     N
N       0.2456   0.5012   0.9991     N
N       0.2465   0.8876   0.5877     N
N       0.2465   0.8876   0.9123     N
N       0.2556   0.7544   0.5009     N
N       0.2556   0.7544   0.9991     N
N       0.2636   0.2185   0.1299     N
N       0.2636   0.2185   0.3701     N
H       0.2638   0.2841   0.1295     H
H       0.2638   0.2841   0.3705     H
H       0.2841   0.2638   0.6295     H
H       0.2841   0.2638   0.8705     H
N       0.2925   0.4358   0.5308     N
N       0.2925   0.4358   0.9692     N
N       0.3158   0.8616   0.5335     N
N       0.3158   0.8616   0.9665     N
Cd    0.33333333 0.66666667  0.10206    Cd
Cd    0.33333333 0.66666667  0.39794    Cd
C       0.3477   0.2089   0.0816     C
C       0.3477   0.2089   0.4184     C
N       0.3589   0.1124   0.0877     N
N       0.3589   0.1124   0.4123     N
N       0.4071   0.5716    0.202     N
N       0.4071   0.5716    0.298     N
H       0.4136   0.5703    0.698     H
H       0.4136   0.5703    0.802     H
N       0.4248   0.5595     0.75     N
N       0.4284   0.8355    0.202     N
N       0.4284   0.8355    0.298     N
H       0.4297   0.8433    0.698     H
H       0.4297   0.8433    0.802     H
N       0.4358   0.2925   0.0308     N
N       0.4358   0.2925   0.4692     N
N       0.4405   0.8653     0.75     N
N       0.4542   0.1384   0.0335     N
N       0.4542   0.1384   0.4665     N
N        0.462    0.515   0.1693     N
N        0.462    0.515   0.3307     N
C        0.483   0.4964     0.75     C
N        0.485    0.947   0.1693     N
N        0.485    0.947   0.3307     N
Cd     0.48725  0.48725      0.0    Cd
Cd     0.48725  0.48725      0.5    Cd
C       0.4964    0.483     0.25     C
N       0.4988   0.7444   0.5009     N
N       0.4988   0.7444   0.9991     N
N       0.5012   0.2456   0.0009     N
N       0.5012   0.2456   0.4991     N
C       0.5036   0.9866     0.75     C
Cd     0.51275      0.0      0.0    Cd
Cd     0.51275      0.0      0.5    Cd
N        0.515    0.462   0.6693     N
N        0.515    0.462   0.8307     N
C        0.517   0.0134     0.25     C
N        0.538    0.053   0.6693     N
N        0.538    0.053   0.8307     N
N       0.5458   0.6842   0.5335     N
N       0.5458   0.6842   0.9665     N
N       0.5595   0.4248     0.25     N
N       0.5642   0.8567   0.5308     N
N       0.5642   0.8567   0.9692     N
H       0.5703   0.4136    0.198     H
H       0.5703   0.4136    0.302     H
N       0.5716   0.4071    0.702     N
N       0.5716   0.4071    0.798     N
N       0.5752   0.1347     0.25     N
H       0.5864   0.1567    0.198     H
H       0.5864   0.1567    0.302     H
N       0.5929   0.1645    0.702     N
N       0.5929   0.1645    0.798     N
N       0.6411   0.7535   0.5877     N
N       0.6411   0.7535   0.9123     N
C       0.6523   0.8612   0.5816     C
C       0.6523   0.8612   0.9184     C
Cd    0.66666667 0.33333333  0.60206    Cd
Cd    0.66666667 0.33333333  0.89794    Cd
N       0.6842   0.5458   0.0335     N
N       0.6842   0.5458   0.4665     N
N       0.7075   0.1433   0.0308     N
N       0.7075   0.1433   0.4692     N
H       0.7159   0.9797   0.1295     H
H       0.7159   0.9797   0.3705     H
H       0.7362   0.0203   0.6295     H
H       0.7362   0.0203   0.8705     H
N       0.7364   0.9549   0.6299     N
N       0.7364   0.9549   0.8701     N
N       0.7444   0.4988   0.0009     N
N       0.7444   0.4988   0.4991     N
N       0.7535   0.6411   0.0877     N
N       0.7535   0.6411   0.4123     N
N       0.7544   0.2556   0.0009     N
N       0.7544   0.2556   0.4991     N
N       0.7815   0.0451   0.1299     N
N       0.7815   0.0451   0.3701     N
H       0.7905   0.9495   0.6611     H
H       0.7905   0.9495   0.8389     H
C       0.7911   0.1388   0.0816     C
C       0.7911   0.1388   0.4184     C
N       0.8355   0.4284    0.702     N
N       0.8355   0.4284    0.798     N
H        0.841   0.0505   0.1611     H
H        0.841   0.0505   0.3389     H
H       0.8433   0.4297    0.198     H
H       0.8433   0.4297    0.302     H
N       0.8567   0.5642   0.0308     N
N       0.8567   0.5642   0.4692     N
C       0.8612   0.6523   0.0816     C
C       0.8612   0.6523   0.4184     C
N       0.8616   0.3158   0.0335     N
N       0.8616   0.3158   0.4665     N
N       0.8653   0.4405     0.25     N
N       0.8876   0.2465   0.0877     N
N       0.8876   0.2465   0.4123     N
N        0.947    0.485   0.6693     N
N        0.947    0.485   0.8307     N
H       0.9495   0.7905   0.1611     H
H       0.9495   0.7905   0.3389     H
N       0.9549   0.7364   0.1299     N
N       0.9549   0.7364   0.3701     N
H       0.9797   0.7159   0.6295     H
H       0.9797   0.7159   0.8705     H
C       0.9866   0.5036     0.25     C
