data_I
_chemical_name_common  '/Users/gianmarcoterrones/Research/MOFs/MOF_structures/water_stability_work_extra_structs/cleaned_from_CCDC/WUHCUZ'
_cell_length_a 27.92930
_cell_length_b 27.92930
_cell_length_c 27.92930
_cell_angle_alpha 90.00000
_cell_angle_beta  90.00000
_cell_angle_gamma 90.00000
_space_group_name_H-M_alt      'P 1'


loop_
_space_group_symop_operation_xyz
  'x, y, z' 

loop_
_atom_site_label
_atom_site_fract_x
_atom_site_fract_y
_atom_site_fract_z
_atom_site_type_symbol
C       0.0031   0.0331      0.5     C
C       0.0031      0.5   0.0331     C
C       0.0031      0.5   0.9669     C
C       0.0031   0.9669      0.5     C
C       0.0048   0.1323      0.5     C
C       0.0048      0.5   0.1323     C
C       0.0048      0.5   0.8677     C
C       0.0048   0.8677      0.5     C
H       0.0078   0.1658      0.5     H
H       0.0078      0.5   0.1658     H
H       0.0078      0.5   0.8342     H
H       0.0078   0.8342      0.5     H
C       0.0115   0.0929      0.5     C
C       0.0115      0.5   0.0929     C
C       0.0115      0.5   0.9071     C
C       0.0115   0.9071      0.5     C
H       0.0147   0.1511      0.5     H
H       0.0147      0.5   0.1511     H
H       0.0147      0.5   0.8489     H
H       0.0147   0.8489      0.5     H
C       0.0173   0.0057      0.5     C
C       0.0173      0.5   0.0057     C
H       0.0265    0.123      0.5     H
H       0.0265      0.5    0.123     H
H       0.0265      0.5    0.877     H
H       0.0265    0.877      0.5     H
C       0.0364   0.0464      0.5     C
C       0.0364      0.5   0.0464     C
C       0.0364      0.5   0.9536     C
C       0.0364   0.9536      0.5     C
C       0.0408    0.111      0.5     C
C       0.0408      0.5    0.111     C
C       0.0408      0.5    0.889     C
C       0.0408    0.889      0.5     C
H       0.0564   0.1897   0.4761     H
H       0.0564   0.1897   0.5239     H
H       0.0564   0.4761   0.1897     H
H       0.0564   0.4761   0.8103     H
H       0.0564   0.5239   0.1897     H
H       0.0564   0.5239   0.8103     H
H       0.0564   0.8103   0.4761     H
H       0.0564   0.8103   0.5239     H
H       0.0568   0.1179      0.5     H
H       0.0568      0.5   0.1179     H
H       0.0568      0.5   0.8821     H
H       0.0568   0.8821      0.5     H
H       0.0724   0.1446   0.4299     H
H       0.0724   0.1446   0.5701     H
H       0.0724   0.4299   0.1446     H
H       0.0724   0.4299   0.8554     H
H       0.0724   0.5701   0.1446     H
H       0.0724   0.5701   0.8554     H
H       0.0724   0.8554   0.4299     H
H       0.0724   0.8554   0.5701     H
H       0.0763   0.1608   0.4296     H
H       0.0763   0.1608   0.5704     H
H       0.0763   0.4296   0.1608     H
H       0.0763   0.4296   0.8392     H
H       0.0763   0.5704   0.1608     H
H       0.0763   0.5704   0.8392     H
H       0.0763   0.8392   0.4296     H
H       0.0763   0.8392   0.5704     H
C       0.0765   0.1263      0.5     C
C       0.0765      0.5   0.1263     C
C       0.0765      0.5   0.8737     C
C       0.0765   0.8737      0.5     C
H       0.0791   0.1357   0.4777     H
H       0.0791   0.1357   0.5223     H
H       0.0791   0.4777   0.1357     H
H       0.0791   0.4777   0.8643     H
H       0.0791   0.5223   0.1357     H
H       0.0791   0.5223   0.8643     H
H       0.0791   0.8643   0.4777     H
H       0.0791   0.8643   0.5223     H
C       0.0807   0.0229      0.5     C
C       0.0807      0.5   0.0229     C
C       0.0807      0.5   0.9771     C
C       0.0807   0.9771      0.5     C
C       0.0863   0.1774   0.4857     C
C       0.0863   0.1774   0.5143     C
C       0.0863   0.4857   0.1774     C
C       0.0863   0.4857   0.8226     C
C       0.0863   0.5143   0.1774     C
C       0.0863   0.5143   0.8226     C
C       0.0863   0.8226   0.4857     C
C       0.0863   0.8226   0.5143     C
C       0.0882   0.1515   0.4588     C
C       0.0882   0.1515   0.5412     C
C       0.0882   0.4588   0.1515     C
C       0.0882   0.4588   0.8485     C
C       0.0882   0.5412   0.1515     C
C       0.0882   0.5412   0.8485     C
C       0.0882   0.8485   0.4588     C
C       0.0882   0.8485   0.5412     C
C       0.0891   0.0541      0.5     C
C       0.0891      0.5   0.0541     C
C       0.0891      0.5   0.9459     C
C       0.0891   0.9459      0.5     C
H       0.0956   0.1387   0.4295     H
H       0.0956   0.1387   0.5705     H
H       0.0956   0.4295   0.1387     H
H       0.0956   0.4295   0.8613     H
H       0.0956   0.5705   0.1387     H
H       0.0956   0.5705   0.8613     H
H       0.0956   0.8613   0.4295     H
H       0.0956   0.8613   0.5705     H
H       0.0959   0.1157   0.4315     H
H       0.0959   0.1157   0.5685     H
H       0.0959   0.4315   0.1157     H
H       0.0959   0.4315   0.8843     H
H       0.0959   0.5685   0.1157     H
H       0.0959   0.5685   0.8843     H
H       0.0959   0.8843   0.4315     H
H       0.0959   0.8843   0.5685     H
C       0.1002   0.1129      0.5     C
C       0.1002      0.5   0.1129     C
C       0.1002      0.5   0.8871     C
C       0.1002   0.8871      0.5     C
H       0.1089   0.0413      0.5     H
H       0.1089      0.5   0.0413     H
H       0.1089      0.5   0.9587     H
H       0.1089   0.9587      0.5     H
H       0.1109   0.1112   0.4285     H
H       0.1109   0.1112   0.5715     H
H       0.1109   0.4285   0.1112     H
H       0.1109   0.4285   0.8888     H
H       0.1109   0.5715   0.1112     H
H       0.1109   0.5715   0.8888     H
H       0.1109   0.8888   0.4285     H
H       0.1109   0.8888   0.5715     H
H       0.1157   0.0959   0.4315     H
H       0.1157   0.0959   0.5685     H
H       0.1157   0.4315   0.0959     H
H       0.1157   0.4315   0.9041     H
H       0.1157   0.5685   0.0959     H
H       0.1157   0.5685   0.9041     H
H       0.1157   0.9041   0.4315     H
H       0.1157   0.9041   0.5685     H
C       0.1176    0.012      0.5     C
C       0.1176      0.5    0.012     C
H       0.1179   0.0568      0.5     H
H       0.1179      0.5   0.0568     H
H       0.1179      0.5   0.9432     H
H       0.1179   0.9432      0.5     H
C       0.1186   0.1299   0.4573     C
C       0.1186   0.1299   0.5427     C
C       0.1186   0.4573   0.1299     C
C       0.1186   0.4573   0.8701     C
C       0.1186   0.5427   0.1299     C
C       0.1186   0.5427   0.8701     C
C       0.1186   0.8701   0.4573     C
C       0.1186   0.8701   0.5427     C
H        0.123   0.0265      0.5     H
H        0.123      0.5   0.0265     H
H        0.123      0.5   0.9735     H
H        0.123   0.9735      0.5     H
C       0.1231   0.1868   0.4603     C
C       0.1231   0.1868   0.5397     C
C       0.1231   0.4603   0.1868     C
C       0.1231   0.4603   0.8132     C
C       0.1231   0.5397   0.1868     C
C       0.1231   0.5397   0.8132     C
C       0.1231   0.8132   0.4603     C
C       0.1231   0.8132   0.5397     C
H       0.1234   0.2382   0.4764     H
H       0.1234   0.2382   0.5236     H
H       0.1234   0.4764   0.2382     H
H       0.1234   0.4764   0.7618     H
H       0.1234   0.5236   0.2382     H
H       0.1234   0.5236   0.7618     H
H       0.1234   0.7618   0.4764     H
H       0.1234   0.7618   0.5236     H
C       0.1259    0.206   0.4859     C
C       0.1259    0.206   0.5141     C
C       0.1259   0.4859    0.206     C
C       0.1259   0.4859    0.794     C
C       0.1259   0.5141    0.206     C
C       0.1259   0.5141    0.794     C
C       0.1259    0.794   0.4859     C
C       0.1259    0.794   0.5141     C
C       0.1263   0.0765      0.5     C
C       0.1263      0.5   0.0765     C
C       0.1263      0.5   0.9235     C
C       0.1263   0.9235      0.5     C
H        0.127   0.2077   0.4342     H
H        0.127   0.2077   0.5658     H
H        0.127   0.4342   0.2077     H
H        0.127   0.4342   0.7923     H
H        0.127   0.5658   0.2077     H
H        0.127   0.5658   0.7923     H
H        0.127   0.7923   0.4342     H
H        0.127   0.7923   0.5658     H
C       0.1329   0.1032   0.4595     C
C       0.1329   0.1032   0.5405     C
C       0.1329   0.4595   0.1032     C
C       0.1329   0.4595   0.8968     C
C       0.1329   0.5405   0.1032     C
C       0.1329   0.5405   0.8968     C
C       0.1329   0.8968   0.4595     C
C       0.1329   0.8968   0.5405     C
C       0.1333   0.1113    0.487     C
C       0.1333    0.487   0.1113     C
C       0.1333    0.487   0.8887     C
C       0.1333   0.8887    0.487     C
H       0.1357   0.0791   0.4777     H
H       0.1357   0.0791   0.5223     H
H       0.1357   0.4777   0.0791     H
H       0.1357   0.4777   0.9209     H
H       0.1357   0.5223   0.0791     H
H       0.1357   0.5223   0.9209     H
H       0.1357   0.9209   0.4777     H
H       0.1357   0.9209   0.5223     H
H       0.1387   0.0956   0.4295     H
H       0.1387   0.0956   0.5705     H
H       0.1387   0.4295   0.0956     H
H       0.1387   0.4295   0.9044     H
H       0.1387   0.5705   0.0956     H
H       0.1387   0.5705   0.9044     H
H       0.1387   0.9044   0.4295     H
H       0.1387   0.9044   0.5705     H
H       0.1393   0.2147   0.4294     H
H       0.1393   0.2147   0.5706     H
H       0.1393   0.4294   0.2147     H
H       0.1393   0.4294   0.7853     H
H       0.1393   0.5706   0.2147     H
H       0.1393   0.5706   0.7853     H
H       0.1393   0.7853   0.4294     H
H       0.1393   0.7853   0.5706     H
C         0.14   0.1738    0.488     C
C         0.14    0.488   0.1738     C
C         0.14    0.488   0.8262     C
C         0.14   0.8262    0.488     C
C       0.1414   0.1652   0.4594     C
C       0.1414   0.1652   0.5406     C
C       0.1414   0.4594   0.1652     C
C       0.1414   0.4594   0.8348     C
C       0.1414   0.5406   0.1652     C
C       0.1414   0.5406   0.8348     C
C       0.1414   0.8348   0.4594     C
C       0.1414   0.8348   0.5406     C
H       0.1446   0.0724   0.4299     H
H       0.1446   0.0724   0.5701     H
H       0.1446   0.4299   0.0724     H
H       0.1446   0.4299   0.9276     H
H       0.1446   0.5701   0.0724     H
H       0.1446   0.5701   0.9276     H
H       0.1446   0.9276   0.4299     H
H       0.1446   0.9276   0.5701     H
H       0.1511   0.0147      0.5     H
H       0.1511      0.5   0.0147     H
H       0.1511      0.5   0.9853     H
H       0.1511   0.9853      0.5     H
C       0.1547   0.2088      0.5     C
C       0.1547      0.5   0.2088     C
C       0.1547      0.5   0.7912     C
C       0.1547   0.7912      0.5     C
H       0.1586   0.1929   0.4295     H
H       0.1586   0.1929   0.5705     H
H       0.1586   0.4295   0.1929     H
H       0.1586   0.4295   0.8071     H
H       0.1586   0.5705   0.1929     H
H       0.1586   0.5705   0.8071     H
H       0.1586   0.8071   0.4295     H
H       0.1586   0.8071   0.5705     H
H       0.1597   0.1786   0.4285     H
H       0.1597   0.1786   0.5715     H
H       0.1597   0.4285   0.1786     H
H       0.1597   0.4285   0.8214     H
H       0.1597   0.5715   0.1786     H
H       0.1597   0.5715   0.8214     H
H       0.1597   0.8214   0.4285     H
H       0.1597   0.8214   0.5715     H
H       0.1608   0.0763   0.4296     H
H       0.1608   0.0763   0.5704     H
H       0.1608   0.4296   0.0763     H
H       0.1608   0.4296   0.9237     H
H       0.1608   0.5704   0.0763     H
H       0.1608   0.5704   0.9237     H
H       0.1608   0.9237   0.4296     H
H       0.1608   0.9237   0.5704     H
C       0.1652   0.1414   0.4594     C
C       0.1652   0.1414   0.5406     C
C       0.1652   0.4594   0.1414     C
C       0.1652   0.4594   0.8586     C
C       0.1652   0.5406   0.1414     C
C       0.1652   0.5406   0.8586     C
C       0.1652   0.8586   0.4594     C
C       0.1652   0.8586   0.5406     C
H       0.1658   0.0078      0.5     H
H       0.1658      0.5   0.0078     H
H       0.1658      0.5   0.9922     H
H       0.1658   0.9922      0.5     H
C       0.1672   0.0931   0.4581     C
C       0.1672   0.0931   0.5419     C
C       0.1672   0.4581   0.0931     C
C       0.1672   0.4581   0.9069     C
C       0.1672   0.5419   0.0931     C
C       0.1672   0.5419   0.9069     C
C       0.1672   0.9069   0.4581     C
C       0.1672   0.9069   0.5419     C
H       0.1691   0.1599   0.4316     H
H       0.1691   0.1599   0.5684     H
C       0.1691   0.1816      0.5     C
H       0.1691   0.4316   0.1599     H
H       0.1691   0.4316   0.8401     H
C       0.1691      0.5   0.1816     C
C       0.1691      0.5   0.8184     C
H       0.1691   0.5684   0.1599     H
H       0.1691   0.5684   0.8401     H
C       0.1691   0.8184      0.5     C
H       0.1691   0.8401   0.4316     H
H       0.1691   0.8401   0.5684     H
C       0.1738     0.14    0.488     C
C       0.1738    0.488     0.14     C
C       0.1738    0.488     0.86     C
C       0.1738     0.86    0.488     C
C       0.1774   0.0863   0.4857     C
C       0.1774   0.0863   0.5143     C
C       0.1774   0.4857   0.0863     C
C       0.1774   0.4857   0.9137     C
C       0.1774   0.5143   0.0863     C
C       0.1774   0.5143   0.9137     C
C       0.1774   0.9137   0.4857     C
C       0.1774   0.9137   0.5143     C
C       0.1868   0.1231   0.4603     C
C       0.1868   0.1231   0.5397     C
C       0.1868   0.4603   0.1231     C
C       0.1868   0.4603   0.8769     C
C       0.1868   0.5397   0.1231     C
C       0.1868   0.5397   0.8769     C
C       0.1868   0.8769   0.4603     C
C       0.1868   0.8769   0.5397     C
H       0.1897   0.0564   0.4761     H
H       0.1897   0.0564   0.5239     H
H       0.1897   0.4761   0.0564     H
H       0.1897   0.4761   0.9436     H
H       0.1897   0.5239   0.0564     H
H       0.1897   0.5239   0.9436     H
H       0.1897   0.9436   0.4761     H
H       0.1897   0.9436   0.5239     H
C       0.1919   0.2252      0.5     C
C       0.1919      0.5   0.2252     C
C       0.1919      0.5   0.7748     C
C       0.1919   0.7748      0.5     C
H       0.1929   0.1586   0.4295     H
H       0.1929   0.1586   0.5705     H
H       0.1929   0.4295   0.1586     H
H       0.1929   0.4295   0.8414     H
H       0.1929   0.5705   0.1586     H
H       0.1929   0.5705   0.8414     H
H       0.1929   0.8414   0.4295     H
H       0.1929   0.8414   0.5705     H
H       0.2039   0.1271   0.4798     H
H       0.2039   0.1271   0.5202     H
H       0.2039   0.4798   0.1271     H
H       0.2039   0.4798   0.8729     H
H       0.2039   0.5202   0.1271     H
H       0.2039   0.5202   0.8729     H
H       0.2039   0.8729   0.4798     H
H       0.2039   0.8729   0.5202     H
H       0.2077    0.127   0.4342     H
H       0.2077    0.127   0.5658     H
H       0.2077   0.4342    0.127     H
H       0.2077   0.4342    0.873     H
H       0.2077   0.5658    0.127     H
H       0.2077   0.5658    0.873     H
H       0.2077    0.873   0.4342     H
H       0.2077    0.873   0.5658     H
C       0.2088   0.1547      0.5     C
C       0.2088      0.5   0.1547     C
C       0.2088      0.5   0.8453     C
C       0.2088   0.8453      0.5     C
H       0.2147   0.1393   0.4294     H
H       0.2147   0.1393   0.5706     H
H       0.2147   0.4294   0.1393     H
H       0.2147   0.4294   0.8607     H
H       0.2147   0.5706   0.1393     H
H       0.2147   0.5706   0.8607     H
H       0.2147   0.8607   0.4294     H
H       0.2147   0.8607   0.5706     H
C       0.2172   0.2123      0.5     C
C       0.2172      0.5   0.2123     C
C       0.2172      0.5   0.7877     C
C       0.2172   0.7877      0.5     C
C       0.2235   0.2755      0.5     C
C       0.2235      0.5   0.2755     C
C       0.2235      0.5   0.7245     C
C       0.2235   0.7245      0.5     C
H        0.229   0.3442   0.4753     H
H        0.229   0.3442   0.5247     H
H        0.229   0.4753   0.3442     H
H        0.229   0.4753   0.6558     H
H        0.229   0.5247   0.3442     H
H        0.229   0.5247   0.6558     H
H        0.229   0.6558   0.4753     H
H        0.229   0.6558   0.5247     H
C       0.2362   0.2504      0.5     C
C       0.2362      0.5   0.2504     C
C       0.2362      0.5   0.7496     C
C       0.2362   0.7496      0.5     C
H       0.2366   0.3381      0.5     H
H       0.2366      0.5   0.3381     H
H       0.2366      0.5   0.6619     H
H       0.2366   0.6619      0.5     H
H       0.2403   0.3261    0.476     H
H       0.2403   0.3261    0.524     H
H       0.2403    0.476   0.3261     H
H       0.2403    0.476   0.6739     H
H       0.2403    0.524   0.3261     H
H       0.2403    0.524   0.6739     H
H       0.2403   0.6739    0.476     H
H       0.2403   0.6739    0.524     H
C       0.2427   0.1941      0.5     C
C       0.2427      0.5   0.1941     C
C       0.2427      0.5   0.8059     C
C       0.2427   0.8059      0.5     C
H       0.2438   0.3125    0.466     H
H       0.2438   0.3125    0.534     H
H       0.2438    0.466   0.3125     H
H       0.2438    0.466   0.6875     H
H       0.2438    0.534   0.3125     H
H       0.2438    0.534   0.6875     H
H       0.2438   0.6875    0.466     H
H       0.2438   0.6875    0.534     H
C       0.2539   0.2252      0.5     C
C       0.2539      0.5   0.2252     C
C       0.2539      0.5   0.7748     C
C       0.2539   0.7748      0.5     C
H       0.2541   0.3349   0.4327     H
H       0.2541   0.3349   0.5673     H
H       0.2541   0.4327   0.3349     H
H       0.2541   0.4327   0.6651     H
H       0.2541   0.5673   0.3349     H
H       0.2541   0.5673   0.6651     H
H       0.2541   0.6651   0.4327     H
H       0.2541   0.6651   0.5673     H
C       0.2594   0.3337    0.485     C
C       0.2594   0.3337    0.515     C
C       0.2594    0.485   0.3337     C
C       0.2594    0.485   0.6663     C
C       0.2594    0.515   0.3337     C
C       0.2594    0.515   0.6663     C
C       0.2594   0.6663    0.485     C
C       0.2594   0.6663    0.515     C
C       0.2616   0.3104      0.5     C
C       0.2616      0.5   0.3104     C
C       0.2616      0.5   0.6896     C
C       0.2616   0.6896      0.5     C
H       0.2714   0.3102   0.4274     H
H       0.2714   0.3102   0.5726     H
H       0.2714   0.4274   0.3102     H
H       0.2714   0.4274   0.6898     H
H       0.2714   0.5726   0.3102     H
H       0.2714   0.5726   0.6898     H
H       0.2714   0.6898   0.4274     H
H       0.2714   0.6898   0.5726     H
C       0.2743   0.3348   0.4596     C
C       0.2743   0.3348   0.5404     C
C       0.2743   0.4596   0.3348     C
C       0.2743   0.4596   0.6652     C
C       0.2743   0.5404   0.3348     C
C       0.2743   0.5404   0.6652     C
C       0.2743   0.6652   0.4596     C
C       0.2743   0.6652   0.5404     C
C       0.2748    0.285      0.5     C
C       0.2748      0.5    0.285     C
C       0.2748      0.5    0.715     C
C       0.2748    0.715      0.5     C
H       0.2918   0.3793   0.4787     H
H       0.2918   0.3793   0.5213     H
H       0.2918   0.4787   0.3793     H
H       0.2918   0.4787   0.6207     H
H       0.2918   0.5213   0.3793     H
H       0.2918   0.5213   0.6207     H
H       0.2918   0.6207   0.4787     H
H       0.2918   0.6207   0.5213     H
H       0.2929   0.3967   0.4738     H
H       0.2929   0.3967   0.5262     H
H       0.2929   0.4738   0.3967     H
H       0.2929   0.4738   0.6033     H
H       0.2929   0.5262   0.3967     H
H       0.2929   0.5262   0.6033     H
H       0.2929   0.6033   0.4738     H
H       0.2929   0.6033   0.5262     H
H        0.294    0.398   0.4855     H
H        0.294    0.398   0.5145     H
H        0.294   0.4855    0.398     H
H        0.294   0.4855    0.602     H
H        0.294   0.5145    0.398     H
H        0.294   0.5145    0.602     H
H        0.294    0.602   0.4855     H
H        0.294    0.602   0.5145     H
H       0.2947   0.3973      0.5     H
H       0.2947      0.5   0.3973     H
H       0.2947      0.5   0.6027     H
H       0.2947   0.6027      0.5     H
C       0.2975   0.3652    0.485     C
C       0.2975   0.3652    0.515     C
C       0.2975    0.485   0.3652     C
C       0.2975    0.485   0.6348     C
C       0.2975    0.515   0.3652     C
C       0.2975    0.515   0.6348     C
C       0.2975   0.6348    0.485     C
C       0.2975   0.6348    0.515     C
C       0.3093   0.2735    0.481     C
C       0.3093   0.2735    0.519     C
C       0.3093    0.481   0.2735     C
C       0.3093    0.481   0.7265     C
C       0.3093    0.519   0.2735     C
C       0.3093    0.519   0.7265     C
C       0.3093   0.7265    0.481     C
C       0.3093   0.7265    0.519     C
H       0.3102   0.2714   0.4274     H
H       0.3102   0.2714   0.5726     H
H       0.3102   0.4274   0.2714     H
H       0.3102   0.4274   0.7286     H
H       0.3102   0.5726   0.2714     H
H       0.3102   0.5726   0.7286     H
H       0.3102   0.7286   0.4274     H
H       0.3102   0.7286   0.5726     H
H       0.3125   0.2438    0.466     H
H       0.3125   0.2438    0.534     H
H       0.3125    0.466   0.2438     H
H       0.3125    0.466   0.7562     H
H       0.3125    0.534   0.2438     H
H       0.3125    0.534   0.7562     H
H       0.3125   0.7562    0.466     H
H       0.3125   0.7562    0.534     H
C       0.3175   0.3595   0.4589     C
C       0.3175   0.3595   0.5411     C
C       0.3175   0.4589   0.3595     C
C       0.3175   0.4589   0.6405     C
C       0.3175   0.5411   0.3595     C
C       0.3175   0.5411   0.6405     C
C       0.3175   0.6405   0.4589     C
C       0.3175   0.6405   0.5411     C
C         0.32   0.2849   0.4566     C
C         0.32   0.2849   0.5434     C
C         0.32   0.4566   0.2849     C
C         0.32   0.4566   0.7151     C
C         0.32   0.5434   0.2849     C
C         0.32   0.5434   0.7151     C
C         0.32   0.7151   0.4566     C
C         0.32   0.7151   0.5434     C
H       0.3261   0.2403    0.476     H
H       0.3261   0.2403    0.524     H
H       0.3261    0.476   0.2403     H
H       0.3261    0.476   0.7597     H
H       0.3261    0.524   0.2403     H
H       0.3261    0.524   0.7597     H
H       0.3261   0.7597    0.476     H
H       0.3261   0.7597    0.524     H
H       0.3282   0.3742   0.4305     H
H       0.3282   0.3742   0.5695     H
H       0.3282   0.4305   0.3742     H
H       0.3282   0.4305   0.6258     H
H       0.3282   0.5695   0.3742     H
H       0.3282   0.5695   0.6258     H
H       0.3282   0.6258   0.4305     H
H       0.3282   0.6258   0.5695     H
C       0.3298   0.2692      0.5     C
C       0.3298      0.5   0.2692     C
C       0.3298      0.5   0.7308     C
C       0.3298   0.7308      0.5     C
H       0.3349   0.2541   0.4327     H
H       0.3349   0.2541   0.5673     H
H       0.3349   0.4327   0.2541     H
H       0.3349   0.4327   0.7459     H
H       0.3349   0.5673   0.2541     H
H       0.3349   0.5673   0.7459     H
H       0.3349   0.7459   0.4327     H
H       0.3349   0.7459   0.5673     H
H       0.3381   0.2366      0.5     H
H       0.3381      0.5   0.2366     H
H       0.3381      0.5   0.7634     H
H       0.3381   0.7634      0.5     H
H       0.3394   0.2368   0.4706     H
H       0.3394   0.2368   0.5294     H
H       0.3394   0.4706   0.2368     H
H       0.3394   0.4706   0.7632     H
H       0.3394   0.5294   0.2368     H
H       0.3394   0.5294   0.7632     H
H       0.3394   0.7632   0.4706     H
H       0.3394   0.7632   0.5294     H
C       0.3426   0.3508      0.5     C
C       0.3426      0.5   0.3508     C
C       0.3426      0.5   0.6492     C
C       0.3426   0.6492      0.5     C
C        0.344   0.3275   0.4575     C
C        0.344   0.3275   0.5425     C
C        0.344   0.4575   0.3275     C
C        0.344   0.4575   0.6725     C
C        0.344   0.5425   0.3275     C
C        0.344   0.5425   0.6725     C
C        0.344   0.6725   0.4575     C
C        0.344   0.6725   0.5425     C
H       0.3453   0.3479   0.4291     H
H       0.3453   0.3479   0.5709     H
H       0.3453   0.4291   0.3479     H
H       0.3453   0.4291   0.6521     H
H       0.3453   0.5709   0.3479     H
H       0.3453   0.5709   0.6521     H
H       0.3453   0.6521   0.4291     H
H       0.3453   0.6521   0.5709     H
C       0.3485   0.3034    0.486     C
C       0.3485   0.3034    0.514     C
C       0.3485    0.486   0.3034     C
C       0.3485    0.486   0.6966     C
C       0.3485    0.514   0.3034     C
C       0.3485    0.514   0.6966     C
C       0.3485   0.6966    0.486     C
C       0.3485   0.6966    0.514     C
O      0.37279  0.43071      0.5     O
O      0.37279      0.5  0.43071     O
O      0.37279      0.5  0.56929     O
O      0.37279  0.56929      0.5     O
H       0.3742   0.3282   0.4305     H
H       0.3742   0.3282   0.5695     H
H       0.3742   0.4305   0.3282     H
H       0.3742   0.4305   0.6718     H
H       0.3742   0.5695   0.3282     H
H       0.3742   0.5695   0.6718     H
H       0.3742   0.6718   0.4305     H
H       0.3742   0.6718   0.5695     H
H       0.3793   0.2918   0.4787     H
H       0.3793   0.2918   0.5213     H
H       0.3793   0.4787   0.2918     H
H       0.3793   0.4787   0.7082     H
H       0.3793   0.5213   0.2918     H
H       0.3793   0.5213   0.7082     H
H       0.3793   0.7082   0.4787     H
H       0.3793   0.7082   0.5213     H
C       0.3846   0.3851      0.5     C
C       0.3846      0.5   0.3851     C
C       0.3846      0.5   0.6149     C
C       0.3846   0.6149      0.5     C
H       0.3967   0.2929   0.4738     H
H       0.3967   0.2929   0.5262     H
H       0.3967   0.4738   0.2929     H
H       0.3967   0.4738   0.7071     H
H       0.3967   0.5262   0.2929     H
H       0.3967   0.5262   0.7071     H
H       0.3967   0.7071   0.4738     H
H       0.3967   0.7071   0.5262     H
H       0.3973   0.2947      0.5     H
H       0.3973      0.5   0.2947     H
H       0.3973      0.5   0.7053     H
H       0.3973   0.7053      0.5     H
H        0.398    0.294   0.4855     H
H        0.398    0.294   0.5145     H
H        0.398   0.4855    0.294     H
H        0.398   0.4855    0.706     H
H        0.398   0.5145    0.294     H
H        0.398   0.5145    0.706     H
H        0.398    0.706   0.4855     H
H        0.398    0.706   0.5145     H
Zr      0.4116      0.5      0.5    Zr
H       0.4274   0.2714   0.3102     H
H       0.4274   0.2714   0.6898     H
H       0.4274   0.3102   0.2714     H
H       0.4274   0.3102   0.7286     H
H       0.4274   0.6898   0.2714     H
H       0.4274   0.6898   0.7286     H
H       0.4274   0.7286   0.3102     H
H       0.4274   0.7286   0.6898     H
H       0.4282   0.1033   0.1225     H
H       0.4282   0.1033   0.8775     H
H       0.4282   0.1225   0.1033     H
H       0.4282   0.1225   0.8967     H
H       0.4282   0.1686   0.1721     H
H       0.4282   0.1686   0.8279     H
H       0.4282   0.8279   0.1686     H
H       0.4282   0.8279   0.8314     H
H       0.4282   0.8775   0.1033     H
H       0.4282   0.8775   0.8967     H
H       0.4282   0.8967   0.1225     H
H       0.4282   0.8967   0.8775     H
H       0.4285   0.1109   0.1112     H
H       0.4285   0.1109   0.8888     H
H       0.4285   0.1786   0.1597     H
H       0.4285   0.1786   0.8403     H
H       0.4285   0.8403   0.1786     H
H       0.4285   0.8403   0.8214     H
H       0.4285   0.8888   0.1109     H
H       0.4285   0.8888   0.8891     H
H       0.4291   0.3453   0.3479     H
H       0.4291   0.3453   0.6521     H
H       0.4291   0.6521   0.3453     H
H       0.4291   0.6521   0.6547     H
H       0.4294   0.1393   0.2147     H
H       0.4294   0.1393   0.7853     H
H       0.4294   0.2147   0.1393     H
H       0.4294   0.2147   0.8607     H
H       0.4294   0.7853   0.1393     H
H       0.4294   0.7853   0.8607     H
H       0.4294   0.8607   0.2147     H
H       0.4294   0.8607   0.7853     H
H       0.4295   0.0956   0.1387     H
H       0.4295   0.0956   0.8613     H
H       0.4295   0.1387   0.0956     H
H       0.4295   0.1387   0.9044     H
H       0.4295   0.1586   0.1929     H
H       0.4295   0.1586   0.8071     H
H       0.4295   0.1929   0.1586     H
H       0.4295   0.1929   0.8414     H
H       0.4295   0.8071   0.1586     H
H       0.4295   0.8071   0.8414     H
H       0.4295   0.8414   0.1929     H
H       0.4295   0.8414   0.8071     H
H       0.4295   0.8613   0.0956     H
H       0.4295   0.8613   0.9044     H
H       0.4295   0.9044   0.1387     H
H       0.4295   0.9044   0.8613     H
H       0.4296   0.0763   0.1608     H
H       0.4296   0.0763   0.8392     H
H       0.4296   0.1608   0.0763     H
H       0.4296   0.1608   0.9237     H
H       0.4296   0.8392   0.0763     H
H       0.4296   0.8392   0.9237     H
H       0.4296   0.9237   0.1608     H
H       0.4296   0.9237   0.8392     H
H       0.4299   0.0724   0.1446     H
H       0.4299   0.0724   0.8554     H
H       0.4299   0.1446   0.0724     H
H       0.4299   0.1446   0.9276     H
H       0.4299   0.8554   0.0724     H
H       0.4299   0.8554   0.9276     H
H       0.4299   0.9276   0.1446     H
H       0.4299   0.9276   0.8554     H
H       0.4305   0.3282   0.3742     H
H       0.4305   0.3282   0.6258     H
H       0.4305   0.3742   0.3282     H
H       0.4305   0.3742   0.6718     H
H       0.4305   0.6258   0.3282     H
H       0.4305   0.6258   0.6718     H
H       0.4305   0.6718   0.3742     H
H       0.4305   0.6718   0.6258     H
O      0.43071  0.37279      0.5     O
O      0.43071      0.5  0.37279     O
O      0.43071      0.5  0.62721     O
O      0.43071  0.62721      0.5     O
H       0.4327   0.2541   0.3349     H
H       0.4327   0.2541   0.6651     H
H       0.4327   0.3349   0.2541     H
H       0.4327   0.3349   0.7459     H
H       0.4327   0.6651   0.2541     H
H       0.4327   0.6651   0.7459     H
H       0.4327   0.7459   0.3349     H
H       0.4327   0.7459   0.6651     H
H       0.4342    0.127   0.2077     H
H       0.4342    0.127   0.7923     H
H       0.4342   0.2077    0.127     H
H       0.4342   0.2077    0.873     H
H       0.4342   0.7923    0.127     H
H       0.4342   0.7923    0.873     H
H       0.4342    0.873   0.2077     H
H       0.4342    0.873   0.7923     H
C       0.4566   0.2849     0.32     C
C       0.4566   0.2849     0.68     C
C       0.4566     0.32   0.2849     C
C       0.4566     0.32   0.7151     C
C       0.4566     0.68   0.2849     C
C       0.4566     0.68   0.7151     C
C       0.4566   0.7151     0.32     C
C       0.4566   0.7151     0.68     C
O      0.45673  0.45673  0.45673     O
O      0.45673  0.45673  0.54327     O
O      0.45673  0.54327  0.45673     O
O      0.45673  0.54327  0.54327     O
C       0.4573   0.1186   0.1299     C
C       0.4573   0.1186   0.8701     C
C       0.4573   0.1575   0.1593     C
C       0.4573   0.1575   0.8407     C
C       0.4573   0.8407   0.1575     C
C       0.4573   0.8407   0.8425     C
C       0.4573   0.8701   0.1186     C
C       0.4573   0.8701   0.8814     C
C       0.4575   0.3275    0.344     C
C       0.4575   0.3275    0.656     C
C       0.4575    0.656   0.3275     C
C       0.4575    0.656   0.6725     C
C        0.458   0.1046   0.1541     C
C        0.458   0.1046   0.8459     C
C        0.458   0.1304   0.1993     C
C        0.458   0.1304   0.8007     C
C        0.458   0.1541   0.1046     C
C        0.458   0.1541   0.8954     C
C        0.458   0.1863    0.142     C
C        0.458   0.1863    0.858     C
C        0.458   0.8007   0.1304     C
C        0.458   0.8007   0.8696     C
C        0.458   0.8459   0.1046     C
C        0.458   0.8459   0.8954     C
C        0.458    0.858   0.1863     C
C        0.458    0.858   0.8137     C
C        0.458   0.8954   0.1541     C
C        0.458   0.8954   0.8459     C
C       0.4589   0.3595   0.3175     C
C       0.4589   0.3595   0.6825     C
C       0.4589   0.6825   0.3595     C
C       0.4589   0.6825   0.6405     C
H        0.466   0.2438   0.3125     H
H        0.466   0.2438   0.6875     H
H        0.466   0.3125   0.2438     H
H        0.466   0.3125   0.7562     H
H        0.466   0.6875   0.2438     H
H        0.466   0.6875   0.7562     H
H        0.466   0.7562   0.3125     H
H        0.466   0.7562   0.6875     H
H       0.4706   0.2368   0.3394     H
H       0.4706   0.2368   0.6606     H
H       0.4706   0.3394   0.2368     H
H       0.4706   0.3394   0.7632     H
H       0.4706   0.6606   0.2368     H
H       0.4706   0.6606   0.7632     H
H       0.4706   0.7632   0.3394     H
H       0.4706   0.7632   0.6606     H
H       0.4738   0.2929   0.3967     H
H       0.4738   0.2929   0.6033     H
H       0.4738   0.3967   0.2929     H
H       0.4738   0.3967   0.7071     H
H       0.4738   0.6033   0.2929     H
H       0.4738   0.6033   0.7071     H
H       0.4738   0.7071   0.3967     H
H       0.4738   0.7071   0.6033     H
H        0.476   0.2403   0.3261     H
H        0.476   0.2403   0.6739     H
H        0.476   0.3261   0.2403     H
H        0.476   0.3261   0.7597     H
H        0.476   0.6739   0.2403     H
H        0.476   0.6739   0.7597     H
H        0.476   0.7597   0.3261     H
H        0.476   0.7597   0.6739     H
H       0.4761   0.0564   0.1897     H
H       0.4761   0.0564   0.8103     H
H       0.4761   0.1897   0.0564     H
H       0.4761   0.1897   0.9436     H
H       0.4761   0.8103   0.0564     H
H       0.4761   0.8103   0.9436     H
H       0.4761   0.9436   0.1897     H
H       0.4761   0.9436   0.8103     H
H       0.4764   0.1234   0.2382     H
H       0.4764   0.1234   0.7618     H
H       0.4764   0.7618   0.1234     H
H       0.4764   0.7618   0.8766     H
H       0.4777   0.0791   0.1357     H
H       0.4777   0.0791   0.8643     H
H       0.4777   0.1357   0.0791     H
H       0.4777   0.1357   0.9209     H
H       0.4777   0.8643   0.0791     H
H       0.4777   0.8643   0.9209     H
H       0.4777   0.9209   0.1357     H
H       0.4777   0.9209   0.8643     H
H       0.4787   0.2918   0.3793     H
H       0.4787   0.2918   0.6207     H
H       0.4787   0.3793   0.2918     H
H       0.4787   0.3793   0.7082     H
H       0.4787   0.6207   0.2918     H
H       0.4787   0.6207   0.7082     H
H       0.4787   0.7082   0.3793     H
H       0.4787   0.7082   0.6207     H
H       0.4798   0.1271   0.2039     H
H       0.4798   0.1271   0.7961     H
H       0.4798   0.2039   0.1271     H
H       0.4798   0.2039   0.8729     H
H       0.4798   0.7961   0.1271     H
H       0.4798   0.7961   0.8729     H
H       0.4798   0.8729   0.2039     H
H       0.4798   0.8729   0.7961     H
C        0.481   0.2735   0.3093     C
C        0.481   0.2735   0.6907     C
C        0.481   0.3093   0.2735     C
C        0.481   0.3093   0.7265     C
C        0.481   0.6907   0.2735     C
C        0.481   0.6907   0.7265     C
C        0.481   0.7265   0.3093     C
C        0.481   0.7265   0.6907     C
C        0.485   0.2594   0.3337     C
C        0.485   0.2594   0.6663     C
C        0.485   0.2975   0.3652     C
C        0.485   0.2975   0.6348     C
C        0.485   0.3337   0.2594     C
C        0.485   0.3337   0.7406     C
C        0.485   0.3652   0.2975     C
C        0.485   0.3652   0.7025     C
C        0.485   0.6348   0.2975     C
C        0.485   0.6348   0.7025     C
C        0.485   0.6663   0.2594     C
C        0.485   0.6663   0.7406     C
C        0.485   0.7025   0.3652     C
C        0.485   0.7025   0.6348     C
C        0.485   0.7406   0.3337     C
C        0.485   0.7406   0.6663     C
H       0.4855    0.294    0.398     H
H       0.4855    0.294    0.602     H
H       0.4855    0.398    0.294     H
H       0.4855    0.398    0.706     H
H       0.4855    0.602    0.294     H
H       0.4855    0.602    0.706     H
H       0.4855    0.706    0.398     H
H       0.4855    0.706    0.602     H
C       0.4857   0.0863   0.1774     C
C       0.4857   0.0863   0.8226     C
C       0.4857   0.1774   0.0863     C
C       0.4857   0.1774   0.9137     C
C       0.4857   0.8226   0.0863     C
C       0.4857   0.8226   0.9137     C
C       0.4857   0.9137   0.1774     C
C       0.4857   0.9137   0.8226     C
C        0.487   0.1113   0.1333     C
C        0.487   0.1113   0.8667     C
C        0.487   0.1333   0.1113     C
C        0.487   0.1333   0.8887     C
C        0.487   0.8667   0.1113     C
C        0.487   0.8667   0.8887     C
C        0.487   0.8887   0.1333     C
C        0.487   0.8887   0.8667     C
C        0.488     0.14   0.1738     C
C        0.488     0.14   0.8262     C
C        0.488   0.1738     0.14     C
C        0.488   0.1738     0.86     C
C        0.488   0.8262     0.14     C
C        0.488   0.8262     0.86     C
C        0.488     0.86   0.1738     C
C        0.488     0.86   0.8262     C
C          0.5   0.0031   0.0331     C
C          0.5   0.0031   0.9669     C
C          0.5   0.0048   0.1323     C
C          0.5   0.0048   0.8677     C
H          0.5   0.0078   0.1658     H
H          0.5   0.0078   0.8342     H
C          0.5   0.0115   0.0929     C
C          0.5   0.0115   0.9071     C
H          0.5   0.0147   0.1511     H
H          0.5   0.0147   0.8489     H
C          0.5   0.0173   0.0057     C
H          0.5   0.0265    0.123     H
H          0.5   0.0265    0.877     H
C          0.5   0.0364   0.0464     C
C          0.5   0.0364   0.9536     C
C          0.5   0.0408    0.111     C
C          0.5   0.0408    0.889     C
H          0.5   0.0568   0.1179     H
H          0.5   0.0568   0.8821     H
C          0.5   0.0765   0.1263     C
C          0.5   0.0765   0.8737     C
C          0.5   0.0807   0.0229     C
C          0.5   0.0807   0.9771     C
C          0.5   0.0891   0.0541     C
C          0.5   0.0891   0.9459     C
H          0.5   0.1089   0.0413     H
H          0.5   0.1089   0.9587     H
C          0.5   0.1176    0.012     C
H          0.5   0.1179   0.0568     H
H          0.5   0.1179   0.9432     H
H          0.5    0.123   0.0265     H
H          0.5    0.123   0.9735     H
C          0.5   0.1263   0.0765     C
C          0.5   0.1263   0.9235     C
H          0.5   0.1511   0.0147     H
H          0.5   0.1511   0.9853     H
C          0.5   0.1547   0.2088     C
C          0.5   0.1547   0.7912     C
H          0.5   0.1658   0.0078     H
H          0.5   0.1658   0.9922     H
C          0.5   0.1691   0.1816     C
C          0.5   0.1691   0.8184     C
C          0.5   0.1919   0.2252     C
C          0.5   0.1919   0.7748     C
C          0.5   0.2088   0.1547     C
C          0.5   0.2088   0.8453     C
C          0.5   0.2172   0.2123     C
C          0.5   0.2172   0.7877     C
C          0.5   0.2235   0.2755     C
C          0.5   0.2235   0.7245     C
C          0.5   0.2362   0.2504     C
C          0.5   0.2362   0.7496     C
H          0.5   0.2366   0.3381     H
H          0.5   0.2366   0.6619     H
C          0.5   0.2427   0.1941     C
C          0.5   0.2427   0.8059     C
C          0.5   0.2539   0.2252     C
C          0.5   0.2539   0.7748     C
C          0.5   0.2655   0.2869     C
C          0.5   0.2655   0.7131     C
C          0.5   0.2869   0.2655     C
C          0.5   0.2869   0.7345     C
H          0.5   0.2947   0.3973     H
H          0.5   0.2947   0.6027     H
H          0.5   0.3381   0.2366     H
H          0.5   0.3381   0.7634     H
C          0.5   0.3426   0.3508     C
C          0.5   0.3426   0.6492     C
O          0.5  0.37279  0.43071     O
O          0.5  0.37279  0.56929     O
C          0.5   0.3846   0.3851     C
C          0.5   0.3846   0.6149     C
H          0.5   0.3973   0.2947     H
H          0.5   0.3973   0.7053     H
Zr         0.5   0.4116      0.5    Zr
O          0.5  0.43071  0.37279     O
O          0.5  0.43071  0.62721     O
Zr         0.5      0.5   0.4116    Zr
Zr         0.5      0.5   0.5884    Zr
O          0.5  0.56929  0.37279     O
O          0.5  0.56929  0.62721     O
Zr         0.5   0.5884      0.5    Zr
H          0.5   0.6025   0.2965     H
H          0.5   0.6025   0.7035     H
C          0.5   0.6115   0.3883     C
C          0.5   0.6115   0.6117     C
O          0.5  0.62721  0.43071     O
O          0.5  0.62721  0.56929     O
C          0.5   0.6376   0.3445     C
C          0.5   0.6376   0.6555     C
H          0.5   0.6606   0.2372     H
H          0.5   0.6606   0.7628     H
H          0.5   0.7035   0.3975     H
H          0.5   0.7035   0.6025     H
C          0.5   0.7131   0.2655     C
C          0.5   0.7131   0.7345     C
C          0.5   0.7245   0.2235     C
C          0.5   0.7245   0.7765     C
C          0.5   0.7345   0.2869     C
C          0.5   0.7345   0.7131     C
C          0.5   0.7496   0.2362     C
C          0.5   0.7496   0.7638     C
C          0.5   0.7573   0.1941     C
C          0.5   0.7573   0.8059     C
H          0.5   0.7628   0.3394     H
H          0.5   0.7628   0.6606     H
C          0.5   0.7748   0.2539     C
C          0.5   0.7748   0.7461     C
C          0.5   0.7828   0.2123     C
C          0.5   0.7828   0.7877     C
C          0.5   0.7912   0.1547     C
C          0.5   0.7912   0.8453     C
C          0.5   0.8059   0.2427     C
C          0.5   0.8059   0.7573     C
C          0.5   0.8184   0.1691     C
C          0.5   0.8184   0.8309     C
H          0.5   0.8342   0.0078     H
H          0.5   0.8342   0.9922     H
C          0.5   0.8453   0.2088     C
C          0.5   0.8453   0.7912     C
H          0.5   0.8489   0.0147     H
H          0.5   0.8489   0.9853     H
C          0.5   0.8557   0.0805     C
C          0.5   0.8557   0.9195     C
C          0.5   0.8677   0.0048     C
H          0.5    0.877   0.0265     H
H          0.5    0.877   0.9735     H
H          0.5   0.8821   0.0568     H
H          0.5   0.8821   0.9432     H
H          0.5   0.8852   0.0413     H
H          0.5   0.8852   0.9587     H
C          0.5   0.8969    0.046     C
C          0.5   0.8969    0.954     C
C          0.5   0.9071   0.0115     C
C          0.5   0.9193   0.9771     C
C          0.5   0.9195   0.1443     C
C          0.5   0.9195   0.8557     C
C          0.5   0.9384   0.0455     C
C          0.5   0.9384   0.9545     C
H          0.5   0.9432   0.1179     H
H          0.5   0.9432   0.8821     H
C          0.5   0.9459   0.0891     C
C          0.5   0.9459   0.9109     C
H          0.5   0.9587   0.1089     H
H          0.5   0.9587   0.8852     H
C          0.5   0.9669   0.0031     C
C          0.5   0.9735   0.0845     C
H          0.5   0.9735    0.123     H
H          0.5   0.9735    0.877     H
C          0.5   0.9735   0.9155     C
H          0.5   0.9853   0.1511     H
H          0.5   0.9853   0.8489     H
H          0.5   0.9922   0.1658     H
H          0.5   0.9922   0.8342     H
C       0.5138   0.3048   0.3569     C
C       0.5138   0.3048   0.6431     C
C       0.5138   0.3569   0.3048     C
C       0.5138   0.3569   0.6952     C
C       0.5138   0.6431   0.3048     C
C       0.5138   0.6431   0.6952     C
C       0.5138   0.6952   0.3569     C
C       0.5138   0.6952   0.6431     C
C        0.514   0.2719   0.3202     C
C        0.514   0.2719   0.6798     C
C        0.514   0.3202   0.2719     C
C        0.514   0.3202   0.7281     C
C        0.514   0.6798   0.2719     C
C        0.514   0.6798   0.7281     C
C        0.514   0.7281   0.3202     C
C        0.514   0.7281   0.6798     C
C       0.5141   0.1259    0.206     C
C       0.5141   0.1259    0.794     C
C       0.5141    0.206   0.1259     C
C       0.5141    0.206   0.8741     C
C       0.5141    0.794   0.1259     C
C       0.5141    0.794   0.8741     C
C       0.5141   0.8741    0.206     C
C       0.5141   0.8741    0.794     C
C       0.5143   0.0863   0.1774     C
C       0.5143   0.0863   0.8226     C
C       0.5143   0.1774   0.0863     C
C       0.5143   0.1774   0.9137     C
C       0.5143   0.8226   0.0863     C
C       0.5143   0.8226   0.9137     C
C       0.5143   0.9137   0.1774     C
C       0.5143   0.9137   0.8226     C
H       0.5145    0.294    0.398     H
H       0.5145    0.294    0.602     H
H       0.5145    0.398    0.294     H
H       0.5145    0.398    0.706     H
H       0.5145    0.602    0.294     H
H       0.5145    0.602    0.706     H
H       0.5145    0.706    0.398     H
H       0.5145    0.706    0.602     H
H       0.5213   0.2918   0.3793     H
H       0.5213   0.2918   0.6207     H
H       0.5213   0.3793   0.2918     H
H       0.5213   0.3793   0.7082     H
H       0.5213   0.6207   0.2918     H
H       0.5213   0.6207   0.7082     H
H       0.5213   0.7082   0.3793     H
H       0.5213   0.7082   0.6207     H
H       0.5223   0.0791   0.1357     H
H       0.5223   0.0791   0.8643     H
H       0.5223   0.1357   0.0791     H
H       0.5223   0.1357   0.9209     H
H       0.5223   0.8643   0.0791     H
H       0.5223   0.8643   0.9209     H
H       0.5223   0.9209   0.1357     H
H       0.5223   0.9209   0.8643     H
H       0.5236   0.1234   0.2382     H
H       0.5236   0.1234   0.7618     H
H       0.5236   0.2382   0.1234     H
H       0.5236   0.2382   0.8766     H
H       0.5236   0.7618   0.1234     H
H       0.5236   0.7618   0.8766     H
H       0.5236   0.8766   0.2382     H
H       0.5236   0.8766   0.7618     H
H       0.5239   0.0564   0.1897     H
H       0.5239   0.0564   0.8103     H
H       0.5239   0.1897   0.0564     H
H       0.5239   0.1897   0.9436     H
H       0.5239   0.8103   0.0564     H
H       0.5239   0.8103   0.9436     H
H       0.5239   0.9436   0.1897     H
H       0.5239   0.9436   0.8103     H
H        0.524   0.2403   0.3261     H
H        0.524   0.2403   0.6739     H
H        0.524   0.3261   0.2403     H
H        0.524   0.3261   0.7597     H
H        0.524   0.6739   0.2403     H
H        0.524   0.6739   0.7597     H
H        0.524   0.7597   0.3261     H
H        0.524   0.7597   0.6739     H
H       0.5247    0.229   0.3442     H
H       0.5247    0.229   0.6558     H
H       0.5247   0.3442    0.229     H
H       0.5247   0.3442    0.771     H
H       0.5247   0.6558    0.229     H
H       0.5247   0.6558    0.771     H
H       0.5247    0.771   0.3442     H
H       0.5247    0.771   0.6558     H
H       0.5262   0.2929   0.3967     H
H       0.5262   0.2929   0.6033     H
H       0.5262   0.3967   0.2929     H
H       0.5262   0.3967   0.7071     H
H       0.5262   0.6033   0.2929     H
H       0.5262   0.6033   0.7071     H
H       0.5262   0.7071   0.3967     H
H       0.5262   0.7071   0.6033     H
H        0.534   0.2438   0.3125     H
H        0.534   0.2438   0.6875     H
H        0.534   0.3125   0.2438     H
H        0.534   0.3125   0.7562     H
H        0.534   0.6875   0.2438     H
H        0.534   0.6875   0.7562     H
H        0.534   0.7562   0.3125     H
H        0.534   0.7562   0.6875     H
C       0.5397   0.1231   0.1868     C
C       0.5397   0.1231   0.8132     C
C       0.5397   0.1868   0.1231     C
C       0.5397   0.1868   0.8769     C
C       0.5397   0.8132   0.1231     C
C       0.5397   0.8132   0.8769     C
C       0.5397   0.8769   0.1868     C
C       0.5397   0.8769   0.8132     C
C       0.5404   0.2743   0.3348     C
C       0.5404   0.2743   0.6652     C
C       0.5404   0.3348   0.2743     C
C       0.5404   0.3348   0.7257     C
C       0.5404   0.6652   0.2743     C
C       0.5404   0.6652   0.7257     C
C       0.5404   0.7257   0.3348     C
C       0.5404   0.7257   0.6652     C
C       0.5405   0.1032   0.1329     C
C       0.5405   0.1032   0.8671     C
C       0.5405   0.1329   0.1032     C
C       0.5405   0.1329   0.8968     C
C       0.5405   0.8671   0.1032     C
C       0.5405   0.8671   0.8968     C
C       0.5405   0.8968   0.1329     C
C       0.5405   0.8968   0.8671     C
C       0.5406   0.1414   0.1652     C
C       0.5406   0.1414   0.8348     C
C       0.5406   0.1652   0.1414     C
C       0.5406   0.1652   0.8586     C
C       0.5406   0.8348   0.1414     C
C       0.5406   0.8348   0.8586     C
C       0.5406   0.8586   0.1652     C
C       0.5406   0.8586   0.8348     C
C       0.5411   0.3175   0.3595     C
C       0.5411   0.3175   0.6405     C
C       0.5411   0.3595   0.3175     C
C       0.5411   0.3595   0.6825     C
C       0.5411   0.6405   0.3175     C
C       0.5411   0.6405   0.6825     C
C       0.5411   0.6825   0.3595     C
C       0.5411   0.6825   0.6405     C
C       0.5419   0.0931   0.1672     C
C       0.5419   0.0931   0.8328     C
C       0.5419   0.1672   0.0931     C
C       0.5419   0.1672   0.9069     C
C       0.5419   0.8328   0.0931     C
C       0.5419   0.8328   0.9069     C
C       0.5419   0.9069   0.1672     C
C       0.5419   0.9069   0.8328     C
O      0.54327  0.45673  0.45673     O
O      0.54327  0.45673  0.54327     O
O      0.54327  0.54327  0.45673     O
O      0.54327  0.54327  0.54327     O
H       0.5658    0.127   0.2077     H
H       0.5658    0.127   0.7923     H
H       0.5658   0.2077    0.127     H
H       0.5658   0.2077    0.873     H
H       0.5658   0.7923    0.127     H
H       0.5658   0.7923    0.873     H
H       0.5658    0.873   0.2077     H
H       0.5658    0.873   0.7923     H
H       0.5673   0.2541   0.3349     H
H       0.5673   0.2541   0.6651     H
H       0.5673   0.3349   0.2541     H
H       0.5673   0.3349   0.7459     H
H       0.5673   0.6651   0.2541     H
H       0.5673   0.6651   0.7459     H
H       0.5673   0.7459   0.3349     H
H       0.5673   0.7459   0.6651     H
H       0.5684   0.1599   0.1691     H
H       0.5684   0.1599   0.8309     H
H       0.5684   0.1691   0.1599     H
H       0.5684   0.1691   0.8401     H
H       0.5684   0.8309   0.1599     H
H       0.5684   0.8309   0.8401     H
H       0.5684   0.8401   0.1691     H
H       0.5684   0.8401   0.8309     H
H       0.5685   0.0959   0.1157     H
H       0.5685   0.0959   0.8843     H
H       0.5685   0.1157   0.0959     H
H       0.5685   0.1157   0.9041     H
H       0.5685   0.8843   0.0959     H
H       0.5685   0.8843   0.9041     H
H       0.5685   0.9041   0.1157     H
H       0.5685   0.9041   0.8843     H
O      0.56929  0.37279      0.5     O
O      0.56929      0.5  0.37279     O
O      0.56929      0.5  0.62721     O
O      0.56929  0.62721      0.5     O
H       0.5695   0.3282   0.3742     H
H       0.5695   0.3282   0.6258     H
H       0.5695   0.3742   0.3282     H
H       0.5695   0.3742   0.6718     H
H       0.5695   0.6258   0.3282     H
H       0.5695   0.6258   0.6718     H
H       0.5695   0.6718   0.3742     H
H       0.5695   0.6718   0.6258     H
H       0.5701   0.0724   0.1446     H
H       0.5701   0.0724   0.8554     H
H       0.5701   0.1446   0.0724     H
H       0.5701   0.1446   0.9276     H
H       0.5701   0.8554   0.0724     H
H       0.5701   0.8554   0.9276     H
H       0.5701   0.9276   0.1446     H
H       0.5701   0.9276   0.8554     H
H       0.5704   0.0763   0.1608     H
H       0.5704   0.0763   0.8392     H
H       0.5704   0.1608   0.0763     H
H       0.5704   0.1608   0.9237     H
H       0.5704   0.8392   0.0763     H
H       0.5704   0.8392   0.9237     H
H       0.5704   0.9237   0.1608     H
H       0.5704   0.9237   0.8392     H
H       0.5705   0.0956   0.1387     H
H       0.5705   0.0956   0.8613     H
H       0.5705   0.1387   0.0956     H
H       0.5705   0.1387   0.9044     H
H       0.5705   0.1586   0.1929     H
H       0.5705   0.1586   0.8071     H
H       0.5705   0.1929   0.1586     H
H       0.5705   0.1929   0.8414     H
H       0.5705   0.8071   0.1586     H
H       0.5705   0.8071   0.8414     H
H       0.5705   0.8414   0.1929     H
H       0.5705   0.8414   0.8071     H
H       0.5705   0.8613   0.0956     H
H       0.5705   0.8613   0.9044     H
H       0.5705   0.9044   0.1387     H
H       0.5705   0.9044   0.8613     H
H       0.5706   0.1393   0.2147     H
H       0.5706   0.1393   0.7853     H
H       0.5706   0.2147   0.1393     H
H       0.5706   0.2147   0.8607     H
H       0.5706   0.7853   0.1393     H
H       0.5706   0.7853   0.8607     H
H       0.5706   0.8607   0.2147     H
H       0.5706   0.8607   0.7853     H
H       0.5709   0.3453   0.3479     H
H       0.5709   0.3453   0.6521     H
H       0.5709   0.6521   0.3453     H
H       0.5709   0.6521   0.6547     H
H       0.5715   0.1109   0.1112     H
H       0.5715   0.1109   0.8888     H
H       0.5715   0.8888   0.1109     H
H       0.5715   0.8888   0.8891     H
H       0.5726   0.2714   0.3102     H
H       0.5726   0.2714   0.6898     H
H       0.5726   0.3102   0.2714     H
H       0.5726   0.3102   0.7286     H
H       0.5726   0.6898   0.2714     H
H       0.5726   0.6898   0.7286     H
H       0.5726   0.7286   0.3102     H
H       0.5726   0.7286   0.6898     H
Zr      0.5884      0.5      0.5    Zr
H        0.602    0.294   0.4855     H
H        0.602    0.294   0.5145     H
H        0.602   0.4855    0.294     H
H        0.602   0.4855    0.706     H
H        0.602   0.5145    0.294     H
H        0.602   0.5145    0.706     H
H        0.602    0.706   0.4855     H
H        0.602    0.706   0.5145     H
H       0.6025   0.2965      0.5     H
H       0.6025      0.5   0.2965     H
H       0.6025      0.5   0.7035     H
H       0.6025   0.7035      0.5     H
H       0.6033   0.2929   0.4738     H
H       0.6033   0.2929   0.5262     H
H       0.6033   0.4738   0.2929     H
H       0.6033   0.4738   0.7071     H
H       0.6033   0.5262   0.2929     H
H       0.6033   0.5262   0.7071     H
H       0.6033   0.7071   0.4738     H
H       0.6033   0.7071   0.5262     H
C       0.6115   0.3883      0.5     C
C       0.6115      0.5   0.3883     C
C       0.6115      0.5   0.6117     C
C       0.6115   0.6117      0.5     C
H       0.6207   0.2918   0.4787     H
H       0.6207   0.2918   0.5213     H
H       0.6207   0.4787   0.2918     H
H       0.6207   0.4787   0.7082     H
H       0.6207   0.5213   0.2918     H
H       0.6207   0.5213   0.7082     H
H       0.6207   0.7082   0.4787     H
H       0.6207   0.7082   0.5213     H
H       0.6258   0.3282   0.4305     H
H       0.6258   0.3282   0.5695     H
H       0.6258   0.4305   0.3282     H
H       0.6258   0.4305   0.6718     H
H       0.6258   0.5695   0.3282     H
H       0.6258   0.5695   0.6718     H
H       0.6258   0.6718   0.4305     H
H       0.6258   0.6718   0.5695     H
O      0.62721  0.43071      0.5     O
O      0.62721      0.5  0.43071     O
O      0.62721      0.5  0.56929     O
O      0.62721  0.56929      0.5     O
C       0.6345   0.3015    0.489     C
C       0.6345    0.489   0.3015     C
C       0.6345    0.489   0.6985     C
C       0.6345   0.6985    0.489     C
C       0.6376   0.3445      0.5     C
C       0.6376      0.5   0.3445     C
C       0.6376      0.5   0.6555     C
C       0.6376   0.6555      0.5     C
C       0.6405   0.3175   0.4589     C
C       0.6405   0.3175   0.5411     C
C       0.6405   0.4589   0.3175     C
C       0.6405   0.4589   0.6825     C
C       0.6405   0.5411   0.3175     C
C       0.6405   0.5411   0.6825     C
C       0.6405   0.6825   0.4589     C
C       0.6405   0.6825   0.5411     C
C       0.6515   0.3034    0.514     C
C       0.6515    0.514   0.3034     C
C       0.6515    0.514   0.6966     C
C       0.6515   0.6966    0.514     C
H       0.6521   0.3453   0.4291     H
H       0.6521   0.3453   0.5709     H
H       0.6521   0.4291   0.3453     H
H       0.6521   0.4291   0.6547     H
H       0.6521   0.5709   0.3453     H
H       0.6521   0.5709   0.6547     H
H       0.6521   0.6547   0.4291     H
H       0.6521   0.6547   0.5709     H
H       0.6558    0.229   0.4753     H
H       0.6558    0.229   0.5247     H
H       0.6558   0.4753    0.229     H
H       0.6558   0.4753    0.771     H
H       0.6558   0.5247    0.229     H
H       0.6558   0.5247    0.771     H
H       0.6558    0.771   0.4753     H
H       0.6558    0.771   0.5247     H
H       0.6606   0.2372      0.5     H
H       0.6606      0.5   0.2372     H
H       0.6606      0.5   0.7628     H
H       0.6606   0.7628      0.5     H
H       0.6651   0.2541   0.4327     H
H       0.6651   0.2541   0.5673     H
H       0.6651   0.4327   0.2541     H
H       0.6651   0.4327   0.7459     H
H       0.6651   0.5673   0.2541     H
H       0.6651   0.5673   0.7459     H
H       0.6651   0.7459   0.4327     H
H       0.6651   0.7459   0.5673     H
C       0.6652   0.2743   0.4596     C
C       0.6652   0.2743   0.5404     C
C       0.6652   0.4596   0.2743     C
C       0.6652   0.4596   0.7257     C
C       0.6652   0.5404   0.2743     C
C       0.6652   0.5404   0.7257     C
C       0.6652   0.7257   0.4596     C
C       0.6652   0.7257   0.5404     C
C       0.6663   0.2594    0.485     C
C       0.6663   0.2594    0.515     C
C       0.6663    0.485   0.2594     C
C       0.6663    0.485   0.7406     C
C       0.6663    0.515   0.2594     C
C       0.6663    0.515   0.7406     C
C       0.6663   0.7406    0.485     C
C       0.6663   0.7406    0.515     C
H       0.6718   0.3742   0.4305     H
H       0.6718   0.3742   0.5695     H
H       0.6718   0.4305   0.3742     H
H       0.6718   0.4305   0.6258     H
H       0.6718   0.5695   0.3742     H
H       0.6718   0.5695   0.6258     H
H       0.6718   0.6258   0.4305     H
H       0.6718   0.6258   0.5695     H
C       0.6725    0.344   0.4575     C
C       0.6725    0.344   0.5425     C
C       0.6725   0.4575    0.344     C
C       0.6725   0.4575    0.656     C
C       0.6725   0.5425    0.344     C
C       0.6725   0.5425    0.656     C
C       0.6725    0.656   0.4575     C
C       0.6725    0.656   0.5425     C
H       0.6739   0.2403    0.476     H
H       0.6739   0.2403    0.524     H
H       0.6739    0.476   0.2403     H
H       0.6739    0.476   0.7597     H
H       0.6739    0.524   0.2403     H
H       0.6739    0.524   0.7597     H
H       0.6739   0.7597    0.476     H
H       0.6739   0.7597    0.524     H
H       0.6875   0.2438    0.466     H
H       0.6875   0.2438    0.534     H
H       0.6875    0.466   0.2438     H
H       0.6875    0.466   0.7562     H
H       0.6875    0.534   0.2438     H
H       0.6875    0.534   0.7562     H
H       0.6875   0.7562    0.466     H
H       0.6875   0.7562    0.534     H
C       0.6896   0.2616      0.5     C
C       0.6896      0.5   0.2616     C
C       0.6896      0.5   0.7384     C
C       0.6896   0.7384      0.5     C
H       0.6898   0.2714   0.4274     H
H       0.6898   0.2714   0.5726     H
H       0.6898   0.4274   0.2714     H
H       0.6898   0.4274   0.7286     H
H       0.6898   0.5726   0.2714     H
H       0.6898   0.5726   0.7286     H
H       0.6898   0.7286   0.4274     H
H       0.6898   0.7286   0.5726     H
C       0.6952   0.3569   0.4862     C
C       0.6952   0.3569   0.5138     C
C       0.6952   0.4862   0.3569     C
C       0.6952   0.4862   0.6431     C
C       0.6952   0.5138   0.3569     C
C       0.6952   0.5138   0.6431     C
C       0.6952   0.6431   0.4862     C
C       0.6952   0.6431   0.5138     C
H       0.7035   0.3975      0.5     H
H       0.7035      0.5   0.3975     H
H       0.7035      0.5   0.6025     H
H       0.7035   0.6025      0.5     H
H       0.7045   0.3879   0.4769     H
H       0.7045   0.3879   0.5231     H
H       0.7045   0.4769   0.3879     H
H       0.7045   0.4769   0.6121     H
H       0.7045   0.5231   0.3879     H
H       0.7045   0.5231   0.6121     H
H       0.7045   0.6121   0.4769     H
H       0.7045   0.6121   0.5231     H
H        0.706    0.398   0.4855     H
H        0.706    0.398   0.5145     H
H        0.706   0.4855    0.398     H
H        0.706   0.4855    0.602     H
H        0.706   0.5145    0.398     H
H        0.706   0.5145    0.602     H
H        0.706    0.602   0.4855     H
H        0.706    0.602   0.5145     H
C        0.715   0.2748      0.5     C
C        0.715      0.5   0.2748     C
C        0.715      0.5   0.7252     C
C        0.715   0.7252      0.5     C
C       0.7151     0.32   0.4566     C
C       0.7151     0.32   0.5434     C
C       0.7151   0.4566     0.32     C
C       0.7151   0.4566     0.68     C
C       0.7151   0.5434     0.32     C
C       0.7151   0.5434     0.68     C
C       0.7151     0.68   0.4566     C
C       0.7151     0.68   0.5434     C
C       0.7245   0.2235      0.5     C
C       0.7245      0.5   0.2235     C
C       0.7245      0.5   0.7765     C
C       0.7245   0.7765      0.5     C
C       0.7265   0.3093    0.481     C
C       0.7265   0.3093    0.519     C
C       0.7265    0.481   0.3093     C
C       0.7265    0.481   0.6907     C
C       0.7265    0.519   0.3093     C
C       0.7265    0.519   0.6907     C
C       0.7265   0.6907    0.481     C
C       0.7265   0.6907    0.519     C
H       0.7286   0.3102   0.4274     H
H       0.7286   0.3102   0.5726     H
H       0.7286   0.4274   0.3102     H
H       0.7286   0.4274   0.6898     H
H       0.7286   0.5726   0.3102     H
H       0.7286   0.5726   0.6898     H
H       0.7286   0.6898   0.4274     H
H       0.7286   0.6898   0.5726     H
C       0.7303   0.3305      0.5     C
C       0.7303      0.5   0.3305     C
C       0.7303      0.5   0.6695     C
C       0.7303   0.6695      0.5     C
H       0.7459   0.3349   0.4327     H
H       0.7459   0.3349   0.5673     H
H       0.7459   0.4327   0.3349     H
H       0.7459   0.4327   0.6651     H
H       0.7459   0.5673   0.3349     H
H       0.7459   0.5673   0.6651     H
H       0.7459   0.6651   0.4327     H
H       0.7459   0.6651   0.5673     H
C       0.7496   0.2362      0.5     C
C       0.7496      0.5   0.2362     C
C       0.7496      0.5   0.7638     C
C       0.7496   0.7638      0.5     C
H       0.7562   0.3125    0.466     H
H       0.7562   0.3125    0.534     H
H       0.7562    0.466   0.3125     H
H       0.7562    0.466   0.6875     H
H       0.7562    0.534   0.3125     H
H       0.7562    0.534   0.6875     H
H       0.7562   0.6875    0.466     H
H       0.7562   0.6875    0.534     H
C       0.7573   0.1941      0.5     C
C       0.7573      0.5   0.1941     C
C       0.7573      0.5   0.8059     C
C       0.7573   0.8059      0.5     C
H       0.7597   0.3261    0.476     H
H       0.7597   0.3261    0.524     H
H       0.7597    0.476   0.3261     H
H       0.7597    0.476   0.6739     H
H       0.7597    0.524   0.3261     H
H       0.7597    0.524   0.6739     H
H       0.7597   0.6739    0.476     H
H       0.7597   0.6739    0.524     H
H       0.7618   0.1234   0.4764     H
H       0.7618   0.1234   0.5236     H
H       0.7618   0.4764   0.1234     H
H       0.7618   0.4764   0.8766     H
H       0.7618   0.5236   0.1234     H
H       0.7618   0.5236   0.8766     H
H       0.7618   0.8766   0.4764     H
H       0.7618   0.8766   0.5236     H
H       0.7628   0.3394      0.5     H
H       0.7628      0.5   0.3394     H
H       0.7628      0.5   0.6606     H
H       0.7628   0.6606      0.5     H
H       0.7632   0.3394   0.4706     H
H       0.7632   0.3394   0.5294     H
H       0.7632   0.4706   0.3394     H
H       0.7632   0.4706   0.6606     H
H       0.7632   0.5294   0.3394     H
H       0.7632   0.5294   0.6606     H
H       0.7632   0.6606   0.4706     H
H       0.7632   0.6606   0.5294     H
C       0.7748   0.2539      0.5     C
C       0.7748      0.5   0.2539     C
C       0.7748      0.5   0.7461     C
C       0.7748   0.7461      0.5     C
C       0.7828   0.2123      0.5     C
C       0.7828      0.5   0.2123     C
C       0.7828      0.5   0.7877     C
C       0.7828   0.7877      0.5     C
H       0.7853   0.1393   0.4294     H
H       0.7853   0.1393   0.5706     H
H       0.7853   0.4294   0.1393     H
H       0.7853   0.4294   0.8607     H
H       0.7853   0.5706   0.1393     H
H       0.7853   0.5706   0.8607     H
H       0.7853   0.8607   0.4294     H
H       0.7853   0.8607   0.5706     H
C       0.7912   0.1547      0.5     C
C       0.7912      0.5   0.1547     C
C       0.7912      0.5   0.8453     C
C       0.7912   0.8453      0.5     C
H       0.7923    0.127   0.4342     H
H       0.7923    0.127   0.5658     H
H       0.7923   0.4342    0.127     H
H       0.7923   0.4342    0.873     H
H       0.7923   0.5658    0.127     H
H       0.7923   0.5658    0.873     H
H       0.7923    0.873   0.4342     H
H       0.7923    0.873   0.5658     H
C        0.794   0.1259   0.4859     C
C        0.794   0.1259   0.5141     C
C        0.794   0.4859   0.1259     C
C        0.794   0.4859   0.8741     C
C        0.794   0.5141   0.1259     C
C        0.794   0.5141   0.8741     C
C        0.794   0.8741   0.4859     C
C        0.794   0.8741   0.5141     C
C       0.8007   0.1304    0.458     C
C       0.8007   0.1304    0.542     C
C       0.8007    0.458   0.1304     C
C       0.8007    0.458   0.8696     C
C       0.8007    0.542   0.1304     C
C       0.8007    0.542   0.8696     C
C       0.8007   0.8696    0.458     C
C       0.8007   0.8696    0.542     C
C       0.8059   0.2427      0.5     C
C       0.8059      0.5   0.2427     C
C       0.8059      0.5   0.7573     C
C       0.8059   0.7573      0.5     C
H       0.8071   0.1586   0.4295     H
H       0.8071   0.1586   0.5705     H
H       0.8071   0.4295   0.1586     H
H       0.8071   0.4295   0.8414     H
H       0.8071   0.5705   0.1586     H
H       0.8071   0.5705   0.8414     H
H       0.8071   0.8414   0.4295     H
H       0.8071   0.8414   0.5705     H
H       0.8103   0.0564   0.4761     H
H       0.8103   0.0564   0.5239     H
H       0.8103   0.4761   0.0564     H
H       0.8103   0.4761   0.9436     H
H       0.8103   0.5239   0.0564     H
H       0.8103   0.5239   0.9436     H
H       0.8103   0.9436   0.4761     H
H       0.8103   0.9436   0.5239     H
C       0.8184   0.1691      0.5     C
C       0.8184      0.5   0.1691     C
C       0.8184      0.5   0.8309     C
C       0.8184   0.8309      0.5     C
H       0.8214   0.1597   0.4285     H
H       0.8214   0.1597   0.5715     H
H       0.8214   0.4285   0.1597     H
H       0.8214   0.4285   0.8403     H
H       0.8214   0.5715   0.1597     H
H       0.8214   0.5715   0.8403     H
H       0.8214   0.8403   0.4285     H
H       0.8214   0.8403   0.5715     H
C       0.8226   0.0863   0.4857     C
C       0.8226   0.0863   0.5143     C
C       0.8226   0.4857   0.0863     C
C       0.8226   0.4857   0.9137     C
C       0.8226   0.5143   0.0863     C
C       0.8226   0.5143   0.9137     C
C       0.8226   0.9137   0.4857     C
C       0.8226   0.9137   0.5143     C
C       0.8262     0.14    0.488     C
C       0.8262    0.488     0.14     C
C       0.8262    0.488     0.86     C
C       0.8262     0.86    0.488     C
H       0.8314   0.1721   0.4282     H
H       0.8314   0.1721   0.5718     H
H       0.8314   0.4282   0.1721     H
H       0.8314   0.4282   0.8279     H
H       0.8314   0.5718   0.1721     H
H       0.8314   0.5718   0.8279     H
H       0.8314   0.8279   0.4282     H
H       0.8314   0.8279   0.5718     H
C       0.8328   0.0931   0.4581     C
C       0.8328   0.0931   0.5419     C
C       0.8328   0.4581   0.0931     C
C       0.8328   0.4581   0.9069     C
C       0.8328   0.5419   0.0931     C
C       0.8328   0.5419   0.9069     C
C       0.8328   0.9069   0.4581     C
C       0.8328   0.9069   0.5419     C
H       0.8342   0.0078      0.5     H
H       0.8342      0.5   0.0078     H
H       0.8342      0.5   0.9922     H
H       0.8342   0.9922      0.5     H
C       0.8348   0.1414   0.4594     C
C       0.8348   0.1414   0.5406     C
C       0.8348   0.4594   0.1414     C
C       0.8348   0.4594   0.8586     C
C       0.8348   0.5406   0.1414     C
C       0.8348   0.5406   0.8586     C
C       0.8348   0.8586   0.4594     C
C       0.8348   0.8586   0.5406     C
H       0.8392   0.0763   0.4296     H
H       0.8392   0.0763   0.5704     H
H       0.8392   0.4296   0.0763     H
H       0.8392   0.4296   0.9237     H
H       0.8392   0.5704   0.0763     H
H       0.8392   0.5704   0.9237     H
H       0.8392   0.9237   0.4296     H
H       0.8392   0.9237   0.5704     H
H       0.8414   0.1929   0.4295     H
H       0.8414   0.1929   0.5705     H
H       0.8414   0.4295   0.1929     H
H       0.8414   0.4295   0.8071     H
H       0.8414   0.5705   0.1929     H
H       0.8414   0.5705   0.8071     H
H       0.8414   0.8071   0.4295     H
H       0.8414   0.8071   0.5705     H
C       0.8453   0.2088      0.5     C
C       0.8453      0.5   0.2088     C
C       0.8453      0.5   0.7912     C
C       0.8453   0.7912      0.5     C
H       0.8489   0.0147      0.5     H
H       0.8489      0.5   0.0147     H
H       0.8489      0.5   0.9853     H
H       0.8489   0.9853      0.5     H
H       0.8554   0.0724   0.4299     H
H       0.8554   0.0724   0.5701     H
H       0.8554   0.4299   0.0724     H
H       0.8554   0.4299   0.9276     H
H       0.8554   0.5701   0.0724     H
H       0.8554   0.5701   0.9276     H
H       0.8554   0.9276   0.4299     H
H       0.8554   0.9276   0.5701     H
C       0.8557   0.0805      0.5     C
C       0.8557      0.5   0.0805     C
C       0.8557      0.5   0.9195     C
C       0.8557   0.9195      0.5     C
C        0.858   0.1863    0.458     C
C        0.858   0.1863    0.542     C
C        0.858    0.458   0.1863     C
C        0.858    0.458   0.8137     C
C        0.858    0.542   0.1863     C
C        0.858    0.542   0.8137     C
C        0.858   0.8137    0.458     C
C        0.858   0.8137    0.542     C
C         0.86   0.1738    0.488     C
C         0.86    0.488   0.1738     C
C         0.86    0.488   0.8262     C
C         0.86   0.8262    0.488     C
H       0.8607   0.2147   0.4294     H
H       0.8607   0.2147   0.5706     H
H       0.8607   0.4294   0.2147     H
H       0.8607   0.4294   0.7853     H
H       0.8607   0.5706   0.2147     H
H       0.8607   0.5706   0.7853     H
H       0.8607   0.7853   0.4294     H
H       0.8607   0.7853   0.5706     H
H       0.8613   0.0956   0.4295     H
H       0.8613   0.0956   0.5705     H
H       0.8613   0.4295   0.0956     H
H       0.8613   0.4295   0.9044     H
H       0.8613   0.5705   0.0956     H
H       0.8613   0.5705   0.9044     H
H       0.8613   0.9044   0.4295     H
H       0.8613   0.9044   0.5705     H
H       0.8643   0.0791   0.4777     H
H       0.8643   0.0791   0.5223     H
H       0.8643   0.4777   0.0791     H
H       0.8643   0.4777   0.9209     H
H       0.8643   0.5223   0.0791     H
H       0.8643   0.5223   0.9209     H
H       0.8643   0.9209   0.4777     H
H       0.8643   0.9209   0.5223     H
C       0.8667   0.1113    0.487     C
C       0.8667    0.487   0.1113     C
C       0.8667    0.487   0.8887     C
C       0.8667   0.8887    0.487     C
C       0.8671   0.1032   0.4595     C
C       0.8671   0.1032   0.5405     C
C       0.8671   0.4595   0.1032     C
C       0.8671   0.4595   0.8968     C
C       0.8671   0.5405   0.1032     C
C       0.8671   0.5405   0.8968     C
C       0.8671   0.8968   0.4595     C
C       0.8671   0.8968   0.5405     C
C       0.8677   0.0048      0.5     C
C       0.8677      0.5   0.0048     C
H       0.8729   0.2039   0.4798     H
H       0.8729   0.2039   0.5202     H
H       0.8729   0.4798   0.2039     H
H       0.8729   0.4798   0.7961     H
H       0.8729   0.5202   0.2039     H
H       0.8729   0.5202   0.7961     H
H       0.8729   0.7961   0.4798     H
H       0.8729   0.7961   0.5202     H
H        0.873   0.2077   0.4342     H
H        0.873   0.2077   0.5658     H
H        0.873   0.4342   0.2077     H
H        0.873   0.4342   0.7923     H
H        0.873   0.5658   0.2077     H
H        0.873   0.5658   0.7923     H
H        0.873   0.7923   0.4342     H
H        0.873   0.7923   0.5658     H
H        0.877   0.0265      0.5     H
H        0.877      0.5   0.0265     H
H        0.877      0.5   0.9735     H
H        0.877   0.9735      0.5     H
H       0.8775   0.1033   0.4282     H
H       0.8775   0.1033   0.5718     H
H       0.8775   0.4282   0.1033     H
H       0.8775   0.4282   0.8967     H
H       0.8775   0.5718   0.1033     H
H       0.8775   0.5718   0.8967     H
H       0.8775   0.8967   0.4282     H
H       0.8775   0.8967   0.5718     H
C       0.8814   0.1299   0.4573     C
C       0.8814   0.1299   0.5427     C
C       0.8814   0.4573   0.1299     C
C       0.8814   0.4573   0.8701     C
C       0.8814   0.5427   0.1299     C
C       0.8814   0.5427   0.8701     C
C       0.8814   0.8701   0.4573     C
C       0.8814   0.8701   0.5427     C
H       0.8821   0.0568      0.5     H
H       0.8821      0.5   0.0568     H
H       0.8821      0.5   0.9432     H
H       0.8821   0.9432      0.5     H
H       0.8852   0.0413      0.5     H
H       0.8852      0.5   0.0413     H
H       0.8852      0.5   0.9587     H
H       0.8852   0.9587      0.5     H
C       0.8887   0.1333    0.487     C
C       0.8887    0.487   0.1333     C
C       0.8887    0.487   0.8667     C
C       0.8887   0.8667    0.487     C
H       0.8888   0.1109   0.4285     H
H       0.8888   0.1109   0.5715     H
H       0.8888   0.4285   0.1109     H
H       0.8888   0.4285   0.8891     H
H       0.8888   0.5715   0.1109     H
H       0.8888   0.5715   0.8891     H
H       0.8888   0.8891   0.4285     H
H       0.8888   0.8891   0.5715     H
C       0.8954   0.1541    0.458     C
C       0.8954   0.1541    0.542     C
C       0.8954    0.458   0.1541     C
C       0.8954    0.458   0.8459     C
C       0.8954    0.542   0.1541     C
C       0.8954    0.542   0.8459     C
C       0.8954   0.8459    0.458     C
C       0.8954   0.8459    0.542     C
H       0.8967   0.1225   0.4282     H
H       0.8967   0.1225   0.5718     H
H       0.8967   0.4282   0.1225     H
H       0.8967   0.4282   0.8775     H
H       0.8967   0.5718   0.1225     H
H       0.8967   0.5718   0.8775     H
H       0.8967   0.8775   0.4282     H
H       0.8967   0.8775   0.5718     H
C       0.8969    0.046      0.5     C
C       0.8969      0.5    0.046     C
C       0.8969      0.5    0.954     C
C       0.8969    0.954      0.5     C
H       0.9044   0.1387   0.4295     H
H       0.9044   0.1387   0.5705     H
H       0.9044   0.4295   0.1387     H
H       0.9044   0.4295   0.8613     H
H       0.9044   0.5705   0.1387     H
H       0.9044   0.5705   0.8613     H
H       0.9044   0.8613   0.4295     H
H       0.9044   0.8613   0.5705     H
C       0.9071   0.0115      0.5     C
C       0.9071      0.5   0.0115     C
C       0.9137   0.1774   0.4857     C
C       0.9137   0.1774   0.5143     C
C       0.9137   0.4857   0.1774     C
C       0.9137   0.4857   0.8226     C
C       0.9137   0.5143   0.1774     C
C       0.9137   0.5143   0.8226     C
C       0.9137   0.8226   0.4857     C
C       0.9137   0.8226   0.5143     C
C       0.9193      0.5   0.9771     C
C       0.9193   0.9771      0.5     C
C       0.9195   0.1443      0.5     C
C       0.9195      0.5   0.1443     C
C       0.9195      0.5   0.8557     C
C       0.9195   0.8557      0.5     C
H       0.9209   0.1357   0.4777     H
H       0.9209   0.1357   0.5223     H
H       0.9209   0.4777   0.1357     H
H       0.9209   0.4777   0.8643     H
H       0.9209   0.5223   0.1357     H
H       0.9209   0.5223   0.8643     H
H       0.9209   0.8643   0.4777     H
H       0.9209   0.8643   0.5223     H
H       0.9237   0.1608   0.4296     H
H       0.9237   0.1608   0.5704     H
H       0.9237   0.4296   0.1608     H
H       0.9237   0.4296   0.8392     H
H       0.9237   0.5704   0.1608     H
H       0.9237   0.5704   0.8392     H
H       0.9237   0.8392   0.4296     H
H       0.9237   0.8392   0.5704     H
H       0.9276   0.1446   0.4299     H
H       0.9276   0.1446   0.5701     H
H       0.9276   0.4299   0.1446     H
H       0.9276   0.4299   0.8554     H
H       0.9276   0.5701   0.1446     H
H       0.9276   0.5701   0.8554     H
H       0.9276   0.8554   0.4299     H
H       0.9276   0.8554   0.5701     H
C       0.9384   0.0455      0.5     C
C       0.9384      0.5   0.0455     C
C       0.9384      0.5   0.9545     C
C       0.9384   0.9545      0.5     C
H       0.9432   0.1179      0.5     H
H       0.9432      0.5   0.1179     H
H       0.9432      0.5   0.8821     H
H       0.9432   0.8821      0.5     H
H       0.9436   0.1897   0.4761     H
H       0.9436   0.1897   0.5239     H
H       0.9436   0.4761   0.1897     H
H       0.9436   0.4761   0.8103     H
H       0.9436   0.5239   0.1897     H
H       0.9436   0.5239   0.8103     H
H       0.9436   0.8103   0.4761     H
H       0.9436   0.8103   0.5239     H
C       0.9459   0.0891      0.5     C
C       0.9459      0.5   0.0891     C
C       0.9459      0.5   0.9109     C
C       0.9459   0.9109      0.5     C
H       0.9587   0.1089      0.5     H
H       0.9587      0.5   0.1089     H
H       0.9587      0.5   0.8852     H
H       0.9587   0.8852      0.5     H
C       0.9669   0.0031      0.5     C
C       0.9669      0.5   0.0031     C
C       0.9735   0.0845      0.5     C
H       0.9735    0.123      0.5     H
C       0.9735      0.5   0.0845     C
H       0.9735      0.5    0.123     H
H       0.9735      0.5    0.877     H
C       0.9735      0.5   0.9155     C
H       0.9735    0.877      0.5     H
C       0.9735   0.9155      0.5     C
H       0.9853   0.1511      0.5     H
H       0.9853      0.5   0.1511     H
H       0.9853      0.5   0.8489     H
H       0.9853   0.8489      0.5     H
H       0.9922   0.1658      0.5     H
H       0.9922      0.5   0.1658     H
H       0.9922      0.5   0.8342     H
H       0.9922   0.8342      0.5     H
