data_image0
_cell_length_a       39.8961
_cell_length_b       39.8961
_cell_length_c       39.8961
_cell_angle_alpha    90
_cell_angle_beta     90
_cell_angle_gamma    90

_symmetry_space_group_name_H-M    "P 1"
_symmetry_int_tables_number       1

loop_
  _symmetry_equiv_pos_as_xyz
  'x, y, z'

loop_
  _atom_site_label
  _atom_site_occupancy
  _atom_site_fract_x
  _atom_site_fract_y
  _atom_site_fract_z
  _atom_site_thermal_displace_type
  _atom_site_B_iso_or_equiv
  _atom_site_type_symbol
  O1       1.0000 0.21400  0.57607  0.12593  Biso   1.000  O
  C1       1.0000 0.22148  0.48680  0.13733  Biso   1.000  C
  H1       1.0000 0.19900  0.48060  0.13610  Biso   1.000  H
  C2       1.0000 0.24561  0.46271  0.14246  Biso   1.000  C
  H2       1.0000 0.23940  0.44030  0.14390  Biso   1.000  H
  C3       1.0000 0.38171  0.40659  0.16030  Biso   1.000  C
  H3       1.0000 0.38820  0.42880  0.16280  Biso   1.000  H
  O2       1.0000 0.21400  0.07607  0.62593  Biso   1.000  O
  C4       1.0000 0.22148  0.98680  0.63733  Biso   1.000  C
  H4       1.0000 0.19900  0.98060  0.63610  Biso   1.000  H
  C5       1.0000 0.24561  0.96271  0.64246  Biso   1.000  C
  H5       1.0000 0.23940  0.94030  0.64390  Biso   1.000  H
  C6       1.0000 0.38171  0.90659  0.66030  Biso   1.000  C
  H6       1.0000 0.38820  0.92880  0.66280  Biso   1.000  H
  O3       1.0000 0.71400  0.57607  0.62593  Biso   1.000  O
  C7       1.0000 0.72148  0.48680  0.63733  Biso   1.000  C
  H7       1.0000 0.69900  0.48060  0.63610  Biso   1.000  H
  C8       1.0000 0.74561  0.46271  0.64246  Biso   1.000  C
  H8       1.0000 0.73940  0.44030  0.64390  Biso   1.000  H
  C9       1.0000 0.88171  0.40659  0.66030  Biso   1.000  C
  H9       1.0000 0.88820  0.42880  0.66280  Biso   1.000  H
  O4       1.0000 0.71400  0.07607  0.12593  Biso   1.000  O
  C10      1.0000 0.72148  0.98680  0.13733  Biso   1.000  C
  H10      1.0000 0.69900  0.98060  0.13610  Biso   1.000  H
  C11      1.0000 0.74561  0.96271  0.14246  Biso   1.000  C
  H11      1.0000 0.73940  0.94030  0.14390  Biso   1.000  H
  C12      1.0000 0.88171  0.90659  0.16030  Biso   1.000  C
  H12      1.0000 0.88820  0.92880  0.16280  Biso   1.000  H
  O5       1.0000 0.53600  0.67393  0.62593  Biso   1.000  O
  C13      1.0000 0.52852  0.76320  0.63733  Biso   1.000  C
  H13      1.0000 0.55100  0.76940  0.63610  Biso   1.000  H
  C14      1.0000 0.50439  0.78729  0.64246  Biso   1.000  C
  H14      1.0000 0.51060  0.80970  0.64390  Biso   1.000  H
  C15      1.0000 0.36829  0.84341  0.66030  Biso   1.000  C
  H15      1.0000 0.36180  0.82120  0.66280  Biso   1.000  H
  O6       1.0000 0.53600  0.17393  0.12593  Biso   1.000  O
  C16      1.0000 0.52852  0.26320  0.13733  Biso   1.000  C
  H16      1.0000 0.55100  0.26940  0.13610  Biso   1.000  H
  C17      1.0000 0.50439  0.28729  0.14246  Biso   1.000  C
  H17      1.0000 0.51060  0.30970  0.14390  Biso   1.000  H
  C18      1.0000 0.36829  0.34341  0.16030  Biso   1.000  C
  H18      1.0000 0.36180  0.32120  0.16280  Biso   1.000  H
  O7       1.0000 0.03600  0.67393  0.12593  Biso   1.000  O
  C19      1.0000 0.02852  0.76320  0.13733  Biso   1.000  C
  H19      1.0000 0.05100  0.76940  0.13610  Biso   1.000  H
  C20      1.0000 0.00439  0.78729  0.14246  Biso   1.000  C
  H20      1.0000 0.01060  0.80970  0.14390  Biso   1.000  H
  C21      1.0000 0.86829  0.84341  0.16030  Biso   1.000  C
  H21      1.0000 0.86180  0.82120  0.16280  Biso   1.000  H
  O8       1.0000 0.03600  0.17393  0.62593  Biso   1.000  O
  C22      1.0000 0.02852  0.26320  0.63733  Biso   1.000  C
  H22      1.0000 0.05100  0.26940  0.63610  Biso   1.000  H
  C23      1.0000 0.00439  0.28729  0.64246  Biso   1.000  C
  H23      1.0000 0.01060  0.30970  0.64390  Biso   1.000  H
  C24      1.0000 0.86829  0.34341  0.66030  Biso   1.000  C
  H24      1.0000 0.86180  0.32120  0.66280  Biso   1.000  H
  O9       1.0000 0.03600  0.07607  0.62407  Biso   1.000  O
  C25      1.0000 0.02852  0.98680  0.61267  Biso   1.000  C
  H25      1.0000 0.05100  0.98060  0.61390  Biso   1.000  H
  C26      1.0000 0.00439  0.96271  0.60754  Biso   1.000  C
  H26      1.0000 0.01060  0.94030  0.60610  Biso   1.000  H
  C27      1.0000 0.86829  0.90659  0.58970  Biso   1.000  C
  H27      1.0000 0.86180  0.92880  0.58720  Biso   1.000  H
  O10      1.0000 0.03600  0.57607  0.12407  Biso   1.000  O
  C28      1.0000 0.02852  0.48680  0.11267  Biso   1.000  C
  H28      1.0000 0.05100  0.48060  0.11390  Biso   1.000  H
  C29      1.0000 0.00439  0.46271  0.10754  Biso   1.000  C
  H29      1.0000 0.01060  0.44030  0.10610  Biso   1.000  H
  C30      1.0000 0.86829  0.40659  0.08970  Biso   1.000  C
  H30      1.0000 0.86180  0.42880  0.08720  Biso   1.000  H
  O11      1.0000 0.53600  0.07607  0.12407  Biso   1.000  O
  C31      1.0000 0.52852  0.98680  0.11267  Biso   1.000  C
  H31      1.0000 0.55100  0.98060  0.11390  Biso   1.000  H
  C32      1.0000 0.50439  0.96271  0.10754  Biso   1.000  C
  H32      1.0000 0.51060  0.94030  0.10610  Biso   1.000  H
  C33      1.0000 0.36829  0.90659  0.08970  Biso   1.000  C
  H33      1.0000 0.36180  0.92880  0.08720  Biso   1.000  H
  O12      1.0000 0.53600  0.57607  0.62407  Biso   1.000  O
  C34      1.0000 0.52852  0.48680  0.61267  Biso   1.000  C
  H34      1.0000 0.55100  0.48060  0.61390  Biso   1.000  H
  C35      1.0000 0.50439  0.46271  0.60754  Biso   1.000  C
  H35      1.0000 0.51060  0.44030  0.60610  Biso   1.000  H
  C36      1.0000 0.36829  0.40659  0.58970  Biso   1.000  C
  H36      1.0000 0.36180  0.42880  0.58720  Biso   1.000  H
  O13      1.0000 0.71400  0.17393  0.12407  Biso   1.000  O
  C37      1.0000 0.72148  0.26320  0.11267  Biso   1.000  C
  H37      1.0000 0.69900  0.26940  0.11390  Biso   1.000  H
  C38      1.0000 0.74561  0.28729  0.10754  Biso   1.000  C
  H38      1.0000 0.73940  0.30970  0.10610  Biso   1.000  H
  C39      1.0000 0.88171  0.34341  0.08970  Biso   1.000  C
  H39      1.0000 0.88820  0.32120  0.08720  Biso   1.000  H
  O14      1.0000 0.71400  0.67393  0.62407  Biso   1.000  O
  C40      1.0000 0.72148  0.76320  0.61267  Biso   1.000  C
  H40      1.0000 0.69900  0.76940  0.61390  Biso   1.000  H
  C41      1.0000 0.74561  0.78729  0.60754  Biso   1.000  C
  H41      1.0000 0.73940  0.80970  0.60610  Biso   1.000  H
  C42      1.0000 0.88171  0.84341  0.58970  Biso   1.000  C
  H42      1.0000 0.88820  0.82120  0.58720  Biso   1.000  H
  O15      1.0000 0.21400  0.17393  0.62407  Biso   1.000  O
  C43      1.0000 0.22148  0.26320  0.61267  Biso   1.000  C
  H43      1.0000 0.19900  0.26940  0.61390  Biso   1.000  H
  C44      1.0000 0.24561  0.28729  0.60754  Biso   1.000  C
  H44      1.0000 0.23940  0.30970  0.60610  Biso   1.000  H
  C45      1.0000 0.38171  0.34341  0.58970  Biso   1.000  C
  H45      1.0000 0.38820  0.32120  0.58720  Biso   1.000  H
  O16      1.0000 0.21400  0.67393  0.12407  Biso   1.000  O
  C46      1.0000 0.22148  0.76320  0.11267  Biso   1.000  C
  H46      1.0000 0.19900  0.76940  0.11390  Biso   1.000  H
  C47      1.0000 0.24561  0.78729  0.10754  Biso   1.000  C
  H47      1.0000 0.23940  0.80970  0.10610  Biso   1.000  H
  C48      1.0000 0.38171  0.84341  0.08970  Biso   1.000  C
  H48      1.0000 0.38820  0.82120  0.08720  Biso   1.000  H
  O17      1.0000 0.12593  0.21400  0.57607  Biso   1.000  O
  C49      1.0000 0.13733  0.22148  0.48680  Biso   1.000  C
  H49      1.0000 0.13610  0.19900  0.48060  Biso   1.000  H
  C50      1.0000 0.14246  0.24561  0.46271  Biso   1.000  C
  H50      1.0000 0.14390  0.23940  0.44030  Biso   1.000  H
  C51      1.0000 0.16030  0.38171  0.40659  Biso   1.000  C
  H51      1.0000 0.16280  0.38820  0.42880  Biso   1.000  H
  O18      1.0000 0.12593  0.71400  0.07607  Biso   1.000  O
  C52      1.0000 0.13733  0.72148  0.98680  Biso   1.000  C
  H52      1.0000 0.13610  0.69900  0.98060  Biso   1.000  H
  C53      1.0000 0.14246  0.74561  0.96271  Biso   1.000  C
  H53      1.0000 0.14390  0.73940  0.94030  Biso   1.000  H
  C54      1.0000 0.16030  0.88171  0.90659  Biso   1.000  C
  H54      1.0000 0.16280  0.88820  0.92880  Biso   1.000  H
  O19      1.0000 0.62593  0.21400  0.07607  Biso   1.000  O
  C55      1.0000 0.63733  0.22148  0.98680  Biso   1.000  C
  H55      1.0000 0.63610  0.19900  0.98060  Biso   1.000  H
  C56      1.0000 0.64246  0.24561  0.96271  Biso   1.000  C
  H56      1.0000 0.64390  0.23940  0.94030  Biso   1.000  H
  C57      1.0000 0.66030  0.38171  0.90659  Biso   1.000  C
  H57      1.0000 0.66280  0.38820  0.92880  Biso   1.000  H
  O20      1.0000 0.62593  0.71400  0.57607  Biso   1.000  O
  C58      1.0000 0.63733  0.72148  0.48680  Biso   1.000  C
  H58      1.0000 0.63610  0.69900  0.48060  Biso   1.000  H
  C59      1.0000 0.64246  0.74561  0.46271  Biso   1.000  C
  H59      1.0000 0.64390  0.73940  0.44030  Biso   1.000  H
  C60      1.0000 0.66030  0.88171  0.40659  Biso   1.000  C
  H60      1.0000 0.66280  0.88820  0.42880  Biso   1.000  H
  O21      1.0000 0.62593  0.53600  0.67393  Biso   1.000  O
  C61      1.0000 0.63733  0.52852  0.76320  Biso   1.000  C
  H61      1.0000 0.63610  0.55100  0.76940  Biso   1.000  H
  C62      1.0000 0.64246  0.50439  0.78729  Biso   1.000  C
  H62      1.0000 0.64390  0.51060  0.80970  Biso   1.000  H
  C63      1.0000 0.66030  0.36829  0.84341  Biso   1.000  C
  H63      1.0000 0.66280  0.36180  0.82120  Biso   1.000  H
  O22      1.0000 0.62593  0.03600  0.17393  Biso   1.000  O
  C64      1.0000 0.63733  0.02852  0.26320  Biso   1.000  C
  H64      1.0000 0.63610  0.05100  0.26940  Biso   1.000  H
  C65      1.0000 0.64246  0.00439  0.28729  Biso   1.000  C
  H65      1.0000 0.64390  0.01060  0.30970  Biso   1.000  H
  C66      1.0000 0.66030  0.86829  0.34341  Biso   1.000  C
  H66      1.0000 0.66280  0.86180  0.32120  Biso   1.000  H
  O23      1.0000 0.12593  0.53600  0.17393  Biso   1.000  O
  C67      1.0000 0.13733  0.52852  0.26320  Biso   1.000  C
  H67      1.0000 0.13610  0.55100  0.26940  Biso   1.000  H
  C68      1.0000 0.14246  0.50439  0.28729  Biso   1.000  C
  H68      1.0000 0.14390  0.51060  0.30970  Biso   1.000  H
  C69      1.0000 0.16030  0.36829  0.34341  Biso   1.000  C
  H69      1.0000 0.16280  0.36180  0.32120  Biso   1.000  H
  O24      1.0000 0.12593  0.03600  0.67393  Biso   1.000  O
  C70      1.0000 0.13733  0.02852  0.76320  Biso   1.000  C
  H70      1.0000 0.13610  0.05100  0.76940  Biso   1.000  H
  C71      1.0000 0.14246  0.00439  0.78729  Biso   1.000  C
  H71      1.0000 0.14390  0.01060  0.80970  Biso   1.000  H
  C72      1.0000 0.16030  0.86829  0.84341  Biso   1.000  C
  H72      1.0000 0.16280  0.86180  0.82120  Biso   1.000  H
  O25      1.0000 0.62407  0.03600  0.07607  Biso   1.000  O
  C73      1.0000 0.61267  0.02852  0.98680  Biso   1.000  C
  H73      1.0000 0.61390  0.05100  0.98060  Biso   1.000  H
  C74      1.0000 0.60754  0.00439  0.96271  Biso   1.000  C
  H74      1.0000 0.60610  0.01060  0.94030  Biso   1.000  H
  C75      1.0000 0.58970  0.86829  0.90659  Biso   1.000  C
  H75      1.0000 0.58720  0.86180  0.92880  Biso   1.000  H
  O26      1.0000 0.62407  0.53600  0.57607  Biso   1.000  O
  C76      1.0000 0.61267  0.52852  0.48680  Biso   1.000  C
  H76      1.0000 0.61390  0.55100  0.48060  Biso   1.000  H
  C77      1.0000 0.60754  0.50439  0.46271  Biso   1.000  C
  H77      1.0000 0.60610  0.51060  0.44030  Biso   1.000  H
  C78      1.0000 0.58970  0.36829  0.40659  Biso   1.000  C
  H78      1.0000 0.58720  0.36180  0.42880  Biso   1.000  H
  O27      1.0000 0.12407  0.03600  0.57607  Biso   1.000  O
  C79      1.0000 0.11267  0.02852  0.48680  Biso   1.000  C
  H79      1.0000 0.11390  0.05100  0.48060  Biso   1.000  H
  C80      1.0000 0.10754  0.00439  0.46271  Biso   1.000  C
  H80      1.0000 0.10610  0.01060  0.44030  Biso   1.000  H
  C81      1.0000 0.08970  0.86829  0.40659  Biso   1.000  C
  H81      1.0000 0.08720  0.86180  0.42880  Biso   1.000  H
  O28      1.0000 0.12407  0.53600  0.07607  Biso   1.000  O
  C82      1.0000 0.11267  0.52852  0.98680  Biso   1.000  C
  H82      1.0000 0.11390  0.55100  0.98060  Biso   1.000  H
  C83      1.0000 0.10754  0.50439  0.96271  Biso   1.000  C
  H83      1.0000 0.10610  0.51060  0.94030  Biso   1.000  H
  C84      1.0000 0.08970  0.36829  0.90659  Biso   1.000  C
  H84      1.0000 0.08720  0.36180  0.92880  Biso   1.000  H
  O29      1.0000 0.12407  0.71400  0.17393  Biso   1.000  O
  C85      1.0000 0.11267  0.72148  0.26320  Biso   1.000  C
  H85      1.0000 0.11390  0.69900  0.26940  Biso   1.000  H
  C86      1.0000 0.10754  0.74561  0.28729  Biso   1.000  C
  H86      1.0000 0.10610  0.73940  0.30970  Biso   1.000  H
  C87      1.0000 0.08970  0.88171  0.34341  Biso   1.000  C
  H87      1.0000 0.08720  0.88820  0.32120  Biso   1.000  H
  O30      1.0000 0.12407  0.21400  0.67393  Biso   1.000  O
  C88      1.0000 0.11267  0.22148  0.76320  Biso   1.000  C
  H88      1.0000 0.11390  0.19900  0.76940  Biso   1.000  H
  C89      1.0000 0.10754  0.24561  0.78729  Biso   1.000  C
  H89      1.0000 0.10610  0.23940  0.80970  Biso   1.000  H
  C90      1.0000 0.08970  0.38171  0.84341  Biso   1.000  C
  H90      1.0000 0.08720  0.38820  0.82120  Biso   1.000  H
  O31      1.0000 0.62407  0.71400  0.67393  Biso   1.000  O
  C91      1.0000 0.61267  0.72148  0.76320  Biso   1.000  C
  H91      1.0000 0.61390  0.69900  0.76940  Biso   1.000  H
  C92      1.0000 0.60754  0.74561  0.78729  Biso   1.000  C
  H92      1.0000 0.60610  0.73940  0.80970  Biso   1.000  H
  C93      1.0000 0.58970  0.88171  0.84341  Biso   1.000  C
  H93      1.0000 0.58720  0.88820  0.82120  Biso   1.000  H
  O32      1.0000 0.62407  0.21400  0.17393  Biso   1.000  O
  C94      1.0000 0.61267  0.22148  0.26320  Biso   1.000  C
  H94      1.0000 0.61390  0.19900  0.26940  Biso   1.000  H
  C95      1.0000 0.60754  0.24561  0.28729  Biso   1.000  C
  H95      1.0000 0.60610  0.23940  0.30970  Biso   1.000  H
  C96      1.0000 0.58970  0.38171  0.34341  Biso   1.000  C
  H96      1.0000 0.58720  0.38820  0.32120  Biso   1.000  H
  O33      1.0000 0.57607  0.12593  0.21400  Biso   1.000  O
  C97      1.0000 0.48680  0.13733  0.22148  Biso   1.000  C
  H97      1.0000 0.48060  0.13610  0.19900  Biso   1.000  H
  C98      1.0000 0.46271  0.14246  0.24561  Biso   1.000  C
  H98      1.0000 0.44030  0.14390  0.23940  Biso   1.000  H
  C99      1.0000 0.40659  0.16030  0.38171  Biso   1.000  C
  H99      1.0000 0.42880  0.16280  0.38820  Biso   1.000  H
  O34      1.0000 0.57607  0.62593  0.71400  Biso   1.000  O
  C100     1.0000 0.48680  0.63733  0.72148  Biso   1.000  C
  H100     1.0000 0.48060  0.63610  0.69900  Biso   1.000  H
  C101     1.0000 0.46271  0.64246  0.74561  Biso   1.000  C
  H101     1.0000 0.44030  0.64390  0.73940  Biso   1.000  H
  C102     1.0000 0.40659  0.66030  0.88171  Biso   1.000  C
  H102     1.0000 0.42880  0.66280  0.88820  Biso   1.000  H
  O35      1.0000 0.07607  0.12593  0.71400  Biso   1.000  O
  C103     1.0000 0.98680  0.13733  0.72148  Biso   1.000  C
  H103     1.0000 0.98060  0.13610  0.69900  Biso   1.000  H
  C104     1.0000 0.96271  0.14246  0.74561  Biso   1.000  C
  H104     1.0000 0.94030  0.14390  0.73940  Biso   1.000  H
  C105     1.0000 0.90659  0.16030  0.88171  Biso   1.000  C
  H105     1.0000 0.92880  0.16280  0.88820  Biso   1.000  H
  O36      1.0000 0.07607  0.62593  0.21400  Biso   1.000  O
  C106     1.0000 0.98680  0.63733  0.22148  Biso   1.000  C
  H106     1.0000 0.98060  0.63610  0.19900  Biso   1.000  H
  C107     1.0000 0.96271  0.64246  0.24561  Biso   1.000  C
  H107     1.0000 0.94030  0.64390  0.23940  Biso   1.000  H
  C108     1.0000 0.90659  0.66030  0.38171  Biso   1.000  C
  H108     1.0000 0.92880  0.66280  0.38820  Biso   1.000  H
  O37      1.0000 0.67393  0.62593  0.53600  Biso   1.000  O
  C109     1.0000 0.76320  0.63733  0.52852  Biso   1.000  C
  H109     1.0000 0.76940  0.63610  0.55100  Biso   1.000  H
  C110     1.0000 0.78729  0.64246  0.50439  Biso   1.000  C
  H110     1.0000 0.80970  0.64390  0.51060  Biso   1.000  H
  C111     1.0000 0.84341  0.66030  0.36829  Biso   1.000  C
  H111     1.0000 0.82120  0.66280  0.36180  Biso   1.000  H
  O38      1.0000 0.67393  0.12593  0.03600  Biso   1.000  O
  C112     1.0000 0.76320  0.13733  0.02852  Biso   1.000  C
  H112     1.0000 0.76940  0.13610  0.05100  Biso   1.000  H
  C113     1.0000 0.78729  0.14246  0.00439  Biso   1.000  C
  H113     1.0000 0.80970  0.14390  0.01060  Biso   1.000  H
  C114     1.0000 0.84341  0.16030  0.86829  Biso   1.000  C
  H114     1.0000 0.82120  0.16280  0.86180  Biso   1.000  H
  O39      1.0000 0.17393  0.62593  0.03600  Biso   1.000  O
  C115     1.0000 0.26320  0.63733  0.02852  Biso   1.000  C
  H115     1.0000 0.26940  0.63610  0.05100  Biso   1.000  H
  C116     1.0000 0.28729  0.64246  0.00439  Biso   1.000  C
  H116     1.0000 0.30970  0.64390  0.01060  Biso   1.000  H
  C117     1.0000 0.34341  0.66030  0.86829  Biso   1.000  C
  H117     1.0000 0.32120  0.66280  0.86180  Biso   1.000  H
  O40      1.0000 0.17393  0.12593  0.53600  Biso   1.000  O
  C118     1.0000 0.26320  0.13733  0.52852  Biso   1.000  C
  H118     1.0000 0.26940  0.13610  0.55100  Biso   1.000  H
  C119     1.0000 0.28729  0.14246  0.50439  Biso   1.000  C
  H119     1.0000 0.30970  0.14390  0.51060  Biso   1.000  H
  C120     1.0000 0.34341  0.16030  0.36829  Biso   1.000  C
  H120     1.0000 0.32120  0.16280  0.36180  Biso   1.000  H
  O41      1.0000 0.07607  0.62407  0.03600  Biso   1.000  O
  C121     1.0000 0.98680  0.61267  0.02852  Biso   1.000  C
  H121     1.0000 0.98060  0.61390  0.05100  Biso   1.000  H
  C122     1.0000 0.96271  0.60754  0.00439  Biso   1.000  C
  H122     1.0000 0.94030  0.60610  0.01060  Biso   1.000  H
  C123     1.0000 0.90659  0.58970  0.86829  Biso   1.000  C
  H123     1.0000 0.92880  0.58720  0.86180  Biso   1.000  H
  O42      1.0000 0.07607  0.12407  0.53600  Biso   1.000  O
  C124     1.0000 0.98680  0.11267  0.52852  Biso   1.000  C
  H124     1.0000 0.98060  0.11390  0.55100  Biso   1.000  H
  C125     1.0000 0.96271  0.10754  0.50439  Biso   1.000  C
  H125     1.0000 0.94030  0.10610  0.51060  Biso   1.000  H
  C126     1.0000 0.90659  0.08970  0.36829  Biso   1.000  C
  H126     1.0000 0.92880  0.08720  0.36180  Biso   1.000  H
  O43      1.0000 0.57607  0.62407  0.53600  Biso   1.000  O
  C127     1.0000 0.48680  0.61267  0.52852  Biso   1.000  C
  H127     1.0000 0.48060  0.61390  0.55100  Biso   1.000  H
  C128     1.0000 0.46271  0.60754  0.50439  Biso   1.000  C
  H128     1.0000 0.44030  0.60610  0.51060  Biso   1.000  H
  C129     1.0000 0.40659  0.58970  0.36829  Biso   1.000  C
  H129     1.0000 0.42880  0.58720  0.36180  Biso   1.000  H
  O44      1.0000 0.57607  0.12407  0.03600  Biso   1.000  O
  C130     1.0000 0.48680  0.11267  0.02852  Biso   1.000  C
  H130     1.0000 0.48060  0.11390  0.05100  Biso   1.000  H
  C131     1.0000 0.46271  0.10754  0.00439  Biso   1.000  C
  H131     1.0000 0.44030  0.10610  0.01060  Biso   1.000  H
  C132     1.0000 0.40659  0.08970  0.86829  Biso   1.000  C
  H132     1.0000 0.42880  0.08720  0.86180  Biso   1.000  H
  O45      1.0000 0.17393  0.12407  0.71400  Biso   1.000  O
  C133     1.0000 0.26320  0.11267  0.72148  Biso   1.000  C
  H133     1.0000 0.26940  0.11390  0.69900  Biso   1.000  H
  C134     1.0000 0.28729  0.10754  0.74561  Biso   1.000  C
  H134     1.0000 0.30970  0.10610  0.73940  Biso   1.000  H
  C135     1.0000 0.34341  0.08970  0.88171  Biso   1.000  C
  H135     1.0000 0.32120  0.08720  0.88820  Biso   1.000  H
  O46      1.0000 0.17393  0.62407  0.21400  Biso   1.000  O
  C136     1.0000 0.26320  0.61267  0.22148  Biso   1.000  C
  H136     1.0000 0.26940  0.61390  0.19900  Biso   1.000  H
  C137     1.0000 0.28729  0.60754  0.24561  Biso   1.000  C
  H137     1.0000 0.30970  0.60610  0.23940  Biso   1.000  H
  C138     1.0000 0.34341  0.58970  0.38171  Biso   1.000  C
  H138     1.0000 0.32120  0.58720  0.38820  Biso   1.000  H
  O47      1.0000 0.67393  0.12407  0.21400  Biso   1.000  O
  C139     1.0000 0.76320  0.11267  0.22148  Biso   1.000  C
  H139     1.0000 0.76940  0.11390  0.19900  Biso   1.000  H
  C140     1.0000 0.78729  0.10754  0.24561  Biso   1.000  C
  H140     1.0000 0.80970  0.10610  0.23940  Biso   1.000  H
  C141     1.0000 0.84341  0.08970  0.38171  Biso   1.000  C
  H141     1.0000 0.82120  0.08720  0.38820  Biso   1.000  H
  O48      1.0000 0.67393  0.62407  0.71400  Biso   1.000  O
  C142     1.0000 0.76320  0.61267  0.72148  Biso   1.000  C
  H142     1.0000 0.76940  0.61390  0.69900  Biso   1.000  H
  C143     1.0000 0.78729  0.60754  0.74561  Biso   1.000  C
  H143     1.0000 0.80970  0.60610  0.73940  Biso   1.000  H
  C144     1.0000 0.84341  0.58970  0.88171  Biso   1.000  C
  H144     1.0000 0.82120  0.58720  0.88820  Biso   1.000  H
  O49      1.0000 0.67393  0.53600  0.62593  Biso   1.000  O
  C145     1.0000 0.76320  0.52852  0.63733  Biso   1.000  C
  H145     1.0000 0.76940  0.55100  0.63610  Biso   1.000  H
  C146     1.0000 0.78729  0.50439  0.64246  Biso   1.000  C
  H146     1.0000 0.80970  0.51060  0.64390  Biso   1.000  H
  C147     1.0000 0.84341  0.36829  0.66030  Biso   1.000  C
  H147     1.0000 0.82120  0.36180  0.66280  Biso   1.000  H
  O50      1.0000 0.67393  0.03600  0.12593  Biso   1.000  O
  C148     1.0000 0.76320  0.02852  0.13733  Biso   1.000  C
  H148     1.0000 0.76940  0.05100  0.13610  Biso   1.000  H
  C149     1.0000 0.78729  0.00439  0.14246  Biso   1.000  C
  H149     1.0000 0.80970  0.01060  0.14390  Biso   1.000  H
  C150     1.0000 0.84341  0.86829  0.16030  Biso   1.000  C
  H150     1.0000 0.82120  0.86180  0.16280  Biso   1.000  H
  O51      1.0000 0.17393  0.53600  0.12593  Biso   1.000  O
  C151     1.0000 0.26320  0.52852  0.13733  Biso   1.000  C
  H151     1.0000 0.26940  0.55100  0.13610  Biso   1.000  H
  C152     1.0000 0.28729  0.50439  0.14246  Biso   1.000  C
  H152     1.0000 0.30970  0.51060  0.14390  Biso   1.000  H
  C153     1.0000 0.34341  0.36829  0.16030  Biso   1.000  C
  H153     1.0000 0.32120  0.36180  0.16280  Biso   1.000  H
  O52      1.0000 0.17393  0.03600  0.62593  Biso   1.000  O
  C154     1.0000 0.26320  0.02852  0.63733  Biso   1.000  C
  H154     1.0000 0.26940  0.05100  0.63610  Biso   1.000  H
  C155     1.0000 0.28729  0.00439  0.64246  Biso   1.000  C
  H155     1.0000 0.30970  0.01060  0.64390  Biso   1.000  H
  C156     1.0000 0.34341  0.86829  0.66030  Biso   1.000  C
  H156     1.0000 0.32120  0.86180  0.66280  Biso   1.000  H
  O53      1.0000 0.57607  0.21400  0.12593  Biso   1.000  O
  C157     1.0000 0.48680  0.22148  0.13733  Biso   1.000  C
  H157     1.0000 0.48060  0.19900  0.13610  Biso   1.000  H
  C158     1.0000 0.46271  0.24561  0.14246  Biso   1.000  C
  H158     1.0000 0.44030  0.23940  0.14390  Biso   1.000  H
  C159     1.0000 0.40659  0.38171  0.16030  Biso   1.000  C
  H159     1.0000 0.42880  0.38820  0.16280  Biso   1.000  H
  O54      1.0000 0.57607  0.71400  0.62593  Biso   1.000  O
  C160     1.0000 0.48680  0.72148  0.63733  Biso   1.000  C
  H160     1.0000 0.48060  0.69900  0.63610  Biso   1.000  H
  C161     1.0000 0.46271  0.74561  0.64246  Biso   1.000  C
  H161     1.0000 0.44030  0.73940  0.64390  Biso   1.000  H
  C162     1.0000 0.40659  0.88171  0.66030  Biso   1.000  C
  H162     1.0000 0.42880  0.88820  0.66280  Biso   1.000  H
  O55      1.0000 0.07607  0.21400  0.62593  Biso   1.000  O
  C163     1.0000 0.98680  0.22148  0.63733  Biso   1.000  C
  H163     1.0000 0.98060  0.19900  0.63610  Biso   1.000  H
  C164     1.0000 0.96271  0.24561  0.64246  Biso   1.000  C
  H164     1.0000 0.94030  0.23940  0.64390  Biso   1.000  H
  C165     1.0000 0.90659  0.38171  0.66030  Biso   1.000  C
  H165     1.0000 0.92880  0.38820  0.66280  Biso   1.000  H
  O56      1.0000 0.07607  0.71400  0.12593  Biso   1.000  O
  C166     1.0000 0.98680  0.72148  0.13733  Biso   1.000  C
  H166     1.0000 0.98060  0.69900  0.13610  Biso   1.000  H
  C167     1.0000 0.96271  0.74561  0.14246  Biso   1.000  C
  H167     1.0000 0.94030  0.73940  0.14390  Biso   1.000  H
  C168     1.0000 0.90659  0.88171  0.16030  Biso   1.000  C
  H168     1.0000 0.92880  0.88820  0.16280  Biso   1.000  H
  O57      1.0000 0.17393  0.71400  0.12407  Biso   1.000  O
  C169     1.0000 0.26320  0.72148  0.11267  Biso   1.000  C
  H169     1.0000 0.26940  0.69900  0.11390  Biso   1.000  H
  C170     1.0000 0.28729  0.74561  0.10754  Biso   1.000  C
  H170     1.0000 0.30970  0.73940  0.10610  Biso   1.000  H
  C171     1.0000 0.34341  0.88171  0.08970  Biso   1.000  C
  H171     1.0000 0.32120  0.88820  0.08720  Biso   1.000  H
  O58      1.0000 0.17393  0.21400  0.62407  Biso   1.000  O
  C172     1.0000 0.26320  0.22148  0.61267  Biso   1.000  C
  H172     1.0000 0.26940  0.19900  0.61390  Biso   1.000  H
  C173     1.0000 0.28729  0.24561  0.60754  Biso   1.000  C
  H173     1.0000 0.30970  0.23940  0.60610  Biso   1.000  H
  C174     1.0000 0.34341  0.38171  0.58970  Biso   1.000  C
  H174     1.0000 0.32120  0.38820  0.58720  Biso   1.000  H
  O59      1.0000 0.67393  0.71400  0.62407  Biso   1.000  O
  C175     1.0000 0.76320  0.72148  0.61267  Biso   1.000  C
  H175     1.0000 0.76940  0.69900  0.61390  Biso   1.000  H
  C176     1.0000 0.78729  0.74561  0.60754  Biso   1.000  C
  H176     1.0000 0.80970  0.73940  0.60610  Biso   1.000  H
  C177     1.0000 0.84341  0.88171  0.58970  Biso   1.000  C
  H177     1.0000 0.82120  0.88820  0.58720  Biso   1.000  H
  O60      1.0000 0.67393  0.21400  0.12407  Biso   1.000  O
  C178     1.0000 0.76320  0.22148  0.11267  Biso   1.000  C
  H178     1.0000 0.76940  0.19900  0.11390  Biso   1.000  H
  C179     1.0000 0.78729  0.24561  0.10754  Biso   1.000  C
  H179     1.0000 0.80970  0.23940  0.10610  Biso   1.000  H
  C180     1.0000 0.84341  0.38171  0.08970  Biso   1.000  C
  H180     1.0000 0.82120  0.38820  0.08720  Biso   1.000  H
  O61      1.0000 0.07607  0.03600  0.62407  Biso   1.000  O
  C181     1.0000 0.98680  0.02852  0.61267  Biso   1.000  C
  H181     1.0000 0.98060  0.05100  0.61390  Biso   1.000  H
  C182     1.0000 0.96271  0.00439  0.60754  Biso   1.000  C
  H182     1.0000 0.94030  0.01060  0.60610  Biso   1.000  H
  C183     1.0000 0.90659  0.86829  0.58970  Biso   1.000  C
  H183     1.0000 0.92880  0.86180  0.58720  Biso   1.000  H
  O62      1.0000 0.07607  0.53600  0.12407  Biso   1.000  O
  C184     1.0000 0.98680  0.52852  0.11267  Biso   1.000  C
  H184     1.0000 0.98060  0.55100  0.11390  Biso   1.000  H
  C185     1.0000 0.96271  0.50439  0.10754  Biso   1.000  C
  H185     1.0000 0.94030  0.51060  0.10610  Biso   1.000  H
  C186     1.0000 0.90659  0.36829  0.08970  Biso   1.000  C
  H186     1.0000 0.92880  0.36180  0.08720  Biso   1.000  H
  O63      1.0000 0.57607  0.03600  0.12407  Biso   1.000  O
  C187     1.0000 0.48680  0.02852  0.11267  Biso   1.000  C
  H187     1.0000 0.48060  0.05100  0.11390  Biso   1.000  H
  C188     1.0000 0.46271  0.00439  0.10754  Biso   1.000  C
  H188     1.0000 0.44030  0.01060  0.10610  Biso   1.000  H
  C189     1.0000 0.40659  0.86829  0.08970  Biso   1.000  C
  H189     1.0000 0.42880  0.86180  0.08720  Biso   1.000  H
  O64      1.0000 0.57607  0.53600  0.62407  Biso   1.000  O
  C190     1.0000 0.48680  0.52852  0.61267  Biso   1.000  C
  H190     1.0000 0.48060  0.55100  0.61390  Biso   1.000  H
  C191     1.0000 0.46271  0.50439  0.60754  Biso   1.000  C
  H191     1.0000 0.44030  0.51060  0.60610  Biso   1.000  H
  C192     1.0000 0.40659  0.36829  0.58970  Biso   1.000  C
  H192     1.0000 0.42880  0.36180  0.58720  Biso   1.000  H
  O65      1.0000 0.03600  0.62407  0.07607  Biso   1.000  O
  C193     1.0000 0.02852  0.61267  0.98680  Biso   1.000  C
  H193     1.0000 0.05100  0.61390  0.98060  Biso   1.000  H
  C194     1.0000 0.00439  0.60754  0.96271  Biso   1.000  C
  H194     1.0000 0.01060  0.60610  0.94030  Biso   1.000  H
  C195     1.0000 0.86829  0.58970  0.90659  Biso   1.000  C
  H195     1.0000 0.86180  0.58720  0.92880  Biso   1.000  H
  O66      1.0000 0.03600  0.12407  0.57607  Biso   1.000  O
  C196     1.0000 0.02852  0.11267  0.48680  Biso   1.000  C
  H196     1.0000 0.05100  0.11390  0.48060  Biso   1.000  H
  C197     1.0000 0.00439  0.10754  0.46271  Biso   1.000  C
  H197     1.0000 0.01060  0.10610  0.44030  Biso   1.000  H
  C198     1.0000 0.86829  0.08970  0.40659  Biso   1.000  C
  H198     1.0000 0.86180  0.08720  0.42880  Biso   1.000  H
  O67      1.0000 0.53600  0.62407  0.57607  Biso   1.000  O
  C199     1.0000 0.52852  0.61267  0.48680  Biso   1.000  C
  H199     1.0000 0.55100  0.61390  0.48060  Biso   1.000  H
  C200     1.0000 0.50439  0.60754  0.46271  Biso   1.000  C
  H200     1.0000 0.51060  0.60610  0.44030  Biso   1.000  H
  C201     1.0000 0.36829  0.58970  0.40659  Biso   1.000  C
  H201     1.0000 0.36180  0.58720  0.42880  Biso   1.000  H
  O68      1.0000 0.53600  0.12407  0.07607  Biso   1.000  O
  C202     1.0000 0.52852  0.11267  0.98680  Biso   1.000  C
  H202     1.0000 0.55100  0.11390  0.98060  Biso   1.000  H
  C203     1.0000 0.50439  0.10754  0.96271  Biso   1.000  C
  H203     1.0000 0.51060  0.10610  0.94030  Biso   1.000  H
  C204     1.0000 0.36829  0.08970  0.90659  Biso   1.000  C
  H204     1.0000 0.36180  0.08720  0.92880  Biso   1.000  H
  O69      1.0000 0.71400  0.12407  0.17393  Biso   1.000  O
  C205     1.0000 0.72148  0.11267  0.26320  Biso   1.000  C
  H205     1.0000 0.69900  0.11390  0.26940  Biso   1.000  H
  C206     1.0000 0.74561  0.10754  0.28729  Biso   1.000  C
  H206     1.0000 0.73940  0.10610  0.30970  Biso   1.000  H
  C207     1.0000 0.88171  0.08970  0.34341  Biso   1.000  C
  H207     1.0000 0.88820  0.08720  0.32120  Biso   1.000  H
  O70      1.0000 0.71400  0.62407  0.67393  Biso   1.000  O
  C208     1.0000 0.72148  0.61267  0.76320  Biso   1.000  C
  H208     1.0000 0.69900  0.61390  0.76940  Biso   1.000  H
  C209     1.0000 0.74561  0.60754  0.78729  Biso   1.000  C
  H209     1.0000 0.73940  0.60610  0.80970  Biso   1.000  H
  C210     1.0000 0.88171  0.58970  0.84341  Biso   1.000  C
  H210     1.0000 0.88820  0.58720  0.82120  Biso   1.000  H
  O71      1.0000 0.21400  0.12407  0.67393  Biso   1.000  O
  C211     1.0000 0.22148  0.11267  0.76320  Biso   1.000  C
  H211     1.0000 0.19900  0.11390  0.76940  Biso   1.000  H
  C212     1.0000 0.24561  0.10754  0.78729  Biso   1.000  C
  H212     1.0000 0.23940  0.10610  0.80970  Biso   1.000  H
  C213     1.0000 0.38171  0.08970  0.84341  Biso   1.000  C
  H213     1.0000 0.38820  0.08720  0.82120  Biso   1.000  H
  O72      1.0000 0.21400  0.62407  0.17393  Biso   1.000  O
  C214     1.0000 0.22148  0.61267  0.26320  Biso   1.000  C
  H214     1.0000 0.19900  0.61390  0.26940  Biso   1.000  H
  C215     1.0000 0.24561  0.60754  0.28729  Biso   1.000  C
  H215     1.0000 0.23940  0.60610  0.30970  Biso   1.000  H
  C216     1.0000 0.38171  0.58970  0.34341  Biso   1.000  C
  H216     1.0000 0.38820  0.58720  0.32120  Biso   1.000  H
  O73      1.0000 0.21400  0.12593  0.57607  Biso   1.000  O
  C217     1.0000 0.22148  0.13733  0.48680  Biso   1.000  C
  H217     1.0000 0.19900  0.13610  0.48060  Biso   1.000  H
  C218     1.0000 0.24561  0.14246  0.46271  Biso   1.000  C
  H218     1.0000 0.23940  0.14390  0.44030  Biso   1.000  H
  C219     1.0000 0.38171  0.16030  0.40659  Biso   1.000  C
  H219     1.0000 0.38820  0.16280  0.42880  Biso   1.000  H
  O74      1.0000 0.21400  0.62593  0.07607  Biso   1.000  O
  C220     1.0000 0.22148  0.63733  0.98680  Biso   1.000  C
  H220     1.0000 0.19900  0.63610  0.98060  Biso   1.000  H
  C221     1.0000 0.24561  0.64246  0.96271  Biso   1.000  C
  H221     1.0000 0.23940  0.64390  0.94030  Biso   1.000  H
  C222     1.0000 0.38171  0.66030  0.90659  Biso   1.000  C
  H222     1.0000 0.38820  0.66280  0.92880  Biso   1.000  H
  O75      1.0000 0.71400  0.12593  0.07607  Biso   1.000  O
  C223     1.0000 0.72148  0.13733  0.98680  Biso   1.000  C
  H223     1.0000 0.69900  0.13610  0.98060  Biso   1.000  H
  C224     1.0000 0.74561  0.14246  0.96271  Biso   1.000  C
  H224     1.0000 0.73940  0.14390  0.94030  Biso   1.000  H
  C225     1.0000 0.88171  0.16030  0.90659  Biso   1.000  C
  H225     1.0000 0.88820  0.16280  0.92880  Biso   1.000  H
  O76      1.0000 0.71400  0.62593  0.57607  Biso   1.000  O
  C226     1.0000 0.72148  0.63733  0.48680  Biso   1.000  C
  H226     1.0000 0.69900  0.63610  0.48060  Biso   1.000  H
  C227     1.0000 0.74561  0.64246  0.46271  Biso   1.000  C
  H227     1.0000 0.73940  0.64390  0.44030  Biso   1.000  H
  C228     1.0000 0.88171  0.66030  0.40659  Biso   1.000  C
  H228     1.0000 0.88820  0.66280  0.42880  Biso   1.000  H
  O77      1.0000 0.53600  0.62593  0.67393  Biso   1.000  O
  C229     1.0000 0.52852  0.63733  0.76320  Biso   1.000  C
  H229     1.0000 0.55100  0.63610  0.76940  Biso   1.000  H
  C230     1.0000 0.50439  0.64246  0.78729  Biso   1.000  C
  H230     1.0000 0.51060  0.64390  0.80970  Biso   1.000  H
  C231     1.0000 0.36829  0.66030  0.84341  Biso   1.000  C
  H231     1.0000 0.36180  0.66280  0.82120  Biso   1.000  H
  O78      1.0000 0.53600  0.12593  0.17393  Biso   1.000  O
  C232     1.0000 0.52852  0.13733  0.26320  Biso   1.000  C
  H232     1.0000 0.55100  0.13610  0.26940  Biso   1.000  H
  C233     1.0000 0.50439  0.14246  0.28729  Biso   1.000  C
  H233     1.0000 0.51060  0.14390  0.30970  Biso   1.000  H
  C234     1.0000 0.36829  0.16030  0.34341  Biso   1.000  C
  H234     1.0000 0.36180  0.16280  0.32120  Biso   1.000  H
  O79      1.0000 0.03600  0.62593  0.17393  Biso   1.000  O
  C235     1.0000 0.02852  0.63733  0.26320  Biso   1.000  C
  H235     1.0000 0.05100  0.63610  0.26940  Biso   1.000  H
  C236     1.0000 0.00439  0.64246  0.28729  Biso   1.000  C
  H236     1.0000 0.01060  0.64390  0.30970  Biso   1.000  H
  C237     1.0000 0.86829  0.66030  0.34341  Biso   1.000  C
  H237     1.0000 0.86180  0.66280  0.32120  Biso   1.000  H
  O80      1.0000 0.03600  0.12593  0.67393  Biso   1.000  O
  C238     1.0000 0.02852  0.13733  0.76320  Biso   1.000  C
  H238     1.0000 0.05100  0.13610  0.76940  Biso   1.000  H
  C239     1.0000 0.00439  0.14246  0.78729  Biso   1.000  C
  H239     1.0000 0.01060  0.14390  0.80970  Biso   1.000  H
  C240     1.0000 0.86829  0.16030  0.84341  Biso   1.000  C
  H240     1.0000 0.86180  0.16280  0.82120  Biso   1.000  H
  O81      1.0000 0.12407  0.17393  0.71400  Biso   1.000  O
  C241     1.0000 0.11267  0.26320  0.72148  Biso   1.000  C
  H241     1.0000 0.11390  0.26940  0.69900  Biso   1.000  H
  C242     1.0000 0.10754  0.28729  0.74561  Biso   1.000  C
  H242     1.0000 0.10610  0.30970  0.73940  Biso   1.000  H
  C243     1.0000 0.08970  0.34341  0.88171  Biso   1.000  C
  H243     1.0000 0.08720  0.32120  0.88820  Biso   1.000  H
  O82      1.0000 0.12407  0.67393  0.21400  Biso   1.000  O
  C244     1.0000 0.11267  0.76320  0.22148  Biso   1.000  C
  H244     1.0000 0.11390  0.76940  0.19900  Biso   1.000  H
  C245     1.0000 0.10754  0.78729  0.24561  Biso   1.000  C
  H245     1.0000 0.10610  0.80970  0.23940  Biso   1.000  H
  C246     1.0000 0.08970  0.84341  0.38171  Biso   1.000  C
  H246     1.0000 0.08720  0.82120  0.38820  Biso   1.000  H
  O83      1.0000 0.62407  0.17393  0.21400  Biso   1.000  O
  C247     1.0000 0.61267  0.26320  0.22148  Biso   1.000  C
  H247     1.0000 0.61390  0.26940  0.19900  Biso   1.000  H
  C248     1.0000 0.60754  0.28729  0.24561  Biso   1.000  C
  H248     1.0000 0.60610  0.30970  0.23940  Biso   1.000  H
  C249     1.0000 0.58970  0.34341  0.38171  Biso   1.000  C
  H249     1.0000 0.58720  0.32120  0.38820  Biso   1.000  H
  O84      1.0000 0.62407  0.67393  0.71400  Biso   1.000  O
  C250     1.0000 0.61267  0.76320  0.72148  Biso   1.000  C
  H250     1.0000 0.61390  0.76940  0.69900  Biso   1.000  H
  C251     1.0000 0.60754  0.78729  0.74561  Biso   1.000  C
  H251     1.0000 0.60610  0.80970  0.73940  Biso   1.000  H
  C252     1.0000 0.58970  0.84341  0.88171  Biso   1.000  C
  H252     1.0000 0.58720  0.82120  0.88820  Biso   1.000  H
  O85      1.0000 0.62407  0.07607  0.03600  Biso   1.000  O
  C253     1.0000 0.61267  0.98680  0.02852  Biso   1.000  C
  H253     1.0000 0.61390  0.98060  0.05100  Biso   1.000  H
  C254     1.0000 0.60754  0.96271  0.00439  Biso   1.000  C
  H254     1.0000 0.60610  0.94030  0.01060  Biso   1.000  H
  C255     1.0000 0.58970  0.90659  0.86829  Biso   1.000  C
  H255     1.0000 0.58720  0.92880  0.86180  Biso   1.000  H
  O86      1.0000 0.62407  0.57607  0.53600  Biso   1.000  O
  C256     1.0000 0.61267  0.48680  0.52852  Biso   1.000  C
  H256     1.0000 0.61390  0.48060  0.55100  Biso   1.000  H
  C257     1.0000 0.60754  0.46271  0.50439  Biso   1.000  C
  H257     1.0000 0.60610  0.44030  0.51060  Biso   1.000  H
  C258     1.0000 0.58970  0.40659  0.36829  Biso   1.000  C
  H258     1.0000 0.58720  0.42880  0.36180  Biso   1.000  H
  O87      1.0000 0.12407  0.07607  0.53600  Biso   1.000  O
  C259     1.0000 0.11267  0.98680  0.52852  Biso   1.000  C
  H259     1.0000 0.11390  0.98060  0.55100  Biso   1.000  H
  C260     1.0000 0.10754  0.96271  0.50439  Biso   1.000  C
  H260     1.0000 0.10610  0.94030  0.51060  Biso   1.000  H
  C261     1.0000 0.08970  0.90659  0.36829  Biso   1.000  C
  H261     1.0000 0.08720  0.92880  0.36180  Biso   1.000  H
  O88      1.0000 0.12407  0.57607  0.03600  Biso   1.000  O
  C262     1.0000 0.11267  0.48680  0.02852  Biso   1.000  C
  H262     1.0000 0.11390  0.48060  0.05100  Biso   1.000  H
  C263     1.0000 0.10754  0.46271  0.00439  Biso   1.000  C
  H263     1.0000 0.10610  0.44030  0.01060  Biso   1.000  H
  C264     1.0000 0.08970  0.40659  0.86829  Biso   1.000  C
  H264     1.0000 0.08720  0.42880  0.86180  Biso   1.000  H
  O89      1.0000 0.62593  0.67393  0.53600  Biso   1.000  O
  C265     1.0000 0.63733  0.76320  0.52852  Biso   1.000  C
  H265     1.0000 0.63610  0.76940  0.55100  Biso   1.000  H
  C266     1.0000 0.64246  0.78729  0.50439  Biso   1.000  C
  H266     1.0000 0.64390  0.80970  0.51060  Biso   1.000  H
  C267     1.0000 0.66030  0.84341  0.36829  Biso   1.000  C
  H267     1.0000 0.66280  0.82120  0.36180  Biso   1.000  H
  O90      1.0000 0.62593  0.17393  0.03600  Biso   1.000  O
  C268     1.0000 0.63733  0.26320  0.02852  Biso   1.000  C
  H268     1.0000 0.63610  0.26940  0.05100  Biso   1.000  H
  C269     1.0000 0.64246  0.28729  0.00439  Biso   1.000  C
  H269     1.0000 0.64390  0.30970  0.01060  Biso   1.000  H
  C270     1.0000 0.66030  0.34341  0.86829  Biso   1.000  C
  H270     1.0000 0.66280  0.32120  0.86180  Biso   1.000  H
  O91      1.0000 0.12593  0.67393  0.03600  Biso   1.000  O
  C271     1.0000 0.13733  0.76320  0.02852  Biso   1.000  C
  H271     1.0000 0.13610  0.76940  0.05100  Biso   1.000  H
  C272     1.0000 0.14246  0.78729  0.00439  Biso   1.000  C
  H272     1.0000 0.14390  0.80970  0.01060  Biso   1.000  H
  C273     1.0000 0.16030  0.84341  0.86829  Biso   1.000  C
  H273     1.0000 0.16280  0.82120  0.86180  Biso   1.000  H
  O92      1.0000 0.12593  0.17393  0.53600  Biso   1.000  O
  C274     1.0000 0.13733  0.26320  0.52852  Biso   1.000  C
  H274     1.0000 0.13610  0.26940  0.55100  Biso   1.000  H
  C275     1.0000 0.14246  0.28729  0.50439  Biso   1.000  C
  H275     1.0000 0.14390  0.30970  0.51060  Biso   1.000  H
  C276     1.0000 0.16030  0.34341  0.36829  Biso   1.000  C
  H276     1.0000 0.16280  0.32120  0.36180  Biso   1.000  H
  O93      1.0000 0.12593  0.57607  0.21400  Biso   1.000  O
  C277     1.0000 0.13733  0.48680  0.22148  Biso   1.000  C
  H277     1.0000 0.13610  0.48060  0.19900  Biso   1.000  H
  C278     1.0000 0.14246  0.46271  0.24561  Biso   1.000  C
  H278     1.0000 0.14390  0.44030  0.23940  Biso   1.000  H
  C279     1.0000 0.16030  0.40659  0.38171  Biso   1.000  C
  H279     1.0000 0.16280  0.42880  0.38820  Biso   1.000  H
  O94      1.0000 0.12593  0.07607  0.71400  Biso   1.000  O
  C280     1.0000 0.13733  0.98680  0.72148  Biso   1.000  C
  H280     1.0000 0.13610  0.98060  0.69900  Biso   1.000  H
  C281     1.0000 0.14246  0.96271  0.74561  Biso   1.000  C
  H281     1.0000 0.14390  0.94030  0.73940  Biso   1.000  H
  C282     1.0000 0.16030  0.90659  0.88171  Biso   1.000  C
  H282     1.0000 0.16280  0.92880  0.88820  Biso   1.000  H
  O95      1.0000 0.62593  0.57607  0.71400  Biso   1.000  O
  C283     1.0000 0.63733  0.48680  0.72148  Biso   1.000  C
  H283     1.0000 0.63610  0.48060  0.69900  Biso   1.000  H
  C284     1.0000 0.64246  0.46271  0.74561  Biso   1.000  C
  H284     1.0000 0.64390  0.44030  0.73940  Biso   1.000  H
  C285     1.0000 0.66030  0.40659  0.88171  Biso   1.000  C
  H285     1.0000 0.66280  0.42880  0.88820  Biso   1.000  H
  O96      1.0000 0.62593  0.07607  0.21400  Biso   1.000  O
  C286     1.0000 0.63733  0.98680  0.22148  Biso   1.000  C
  H286     1.0000 0.63610  0.98060  0.19900  Biso   1.000  H
  C287     1.0000 0.64246  0.96271  0.24561  Biso   1.000  C
  H287     1.0000 0.64390  0.94030  0.23940  Biso   1.000  H
  C288     1.0000 0.66030  0.90659  0.38171  Biso   1.000  C
  H288     1.0000 0.66280  0.92880  0.38820  Biso   1.000  H
  Zr1      1.0000 0.18719  0.62500  0.12500  Biso   1.000  Zr
  Zr2      1.0000 0.68719  0.62500  0.62500  Biso   1.000  Zr
  Zr3      1.0000 0.56281  0.62500  0.62500  Biso   1.000  Zr
  Zr4      1.0000 0.56281  0.12500  0.12500  Biso   1.000  Zr
  Zr5      1.0000 0.06281  0.12500  0.62500  Biso   1.000  Zr
  Zr6      1.0000 0.68719  0.12500  0.12500  Biso   1.000  Zr
  Zr7      1.0000 0.12500  0.18719  0.62500  Biso   1.000  Zr
  Zr8      1.0000 0.62500  0.68719  0.62500  Biso   1.000  Zr
  Zr9      1.0000 0.62500  0.56281  0.62500  Biso   1.000  Zr
  Zr10     1.0000 0.62500  0.06281  0.12500  Biso   1.000  Zr
  Zr11     1.0000 0.12500  0.56281  0.12500  Biso   1.000  Zr
  Zr12     1.0000 0.12500  0.68719  0.12500  Biso   1.000  Zr
  Zr13     1.0000 0.62500  0.12500  0.18719  Biso   1.000  Zr
  Zr14     1.0000 0.62500  0.62500  0.68719  Biso   1.000  Zr
  Zr15     1.0000 0.62500  0.62500  0.56281  Biso   1.000  Zr
  Zr16     1.0000 0.12500  0.62500  0.06281  Biso   1.000  Zr
  Zr17     1.0000 0.12500  0.12500  0.56281  Biso   1.000  Zr
  Zr18     1.0000 0.12500  0.12500  0.68719  Biso   1.000  Zr
  Zr19     1.0000 0.62500  0.18719  0.12500  Biso   1.000  Zr
  Zr20     1.0000 0.12500  0.06281  0.62500  Biso   1.000  Zr
  Zr21     1.0000 0.06281  0.62500  0.12500  Biso   1.000  Zr
  Zr22     1.0000 0.18719  0.12500  0.62500  Biso   1.000  Zr
  Zr23     1.0000 0.62500  0.12500  0.06281  Biso   1.000  Zr
  Zr24     1.0000 0.12500  0.62500  0.18719  Biso   1.000  Zr
  O97      1.0000 0.15265  0.59735  0.15265  Biso   1.000  O
  O98      1.0000 0.59735  0.65265  0.65265  Biso   1.000  O
  O99      1.0000 0.09735  0.09735  0.59735  Biso   1.000  O
  O100     1.0000 0.65265  0.15265  0.09735  Biso   1.000  O
  O101     1.0000 0.15265  0.15265  0.59735  Biso   1.000  O
  O102     1.0000 0.65265  0.59735  0.65265  Biso   1.000  O
  O103     1.0000 0.59735  0.09735  0.09735  Biso   1.000  O
  O104     1.0000 0.59735  0.59735  0.59735  Biso   1.000  O
  O105     1.0000 0.09735  0.65265  0.15265  Biso   1.000  O
  O106     1.0000 0.59735  0.15265  0.15265  Biso   1.000  O
  O107     1.0000 0.65265  0.65265  0.59735  Biso   1.000  O
  O108     1.0000 0.09735  0.59735  0.09735  Biso   1.000  O
  O109     1.0000 0.15265  0.09735  0.65265  Biso   1.000  O
  O110     1.0000 0.15265  0.65265  0.09735  Biso   1.000  O
  O111     1.0000 0.65265  0.09735  0.15265  Biso   1.000  O
  O112     1.0000 0.09735  0.15265  0.65265  Biso   1.000  O
  C289     1.0000 0.27866  0.47134  0.14548  Biso   1.000  C
  C290     1.0000 0.30424  0.44576  0.15064  Biso   1.000  C
  C291     1.0000 0.32475  0.42525  0.15525  Biso   1.000  C
  C292     1.0000 0.35012  0.39988  0.15704  Biso   1.000  C
  C293     1.0000 0.20379  0.54621  0.12833  Biso   1.000  C
  C294     1.0000 0.23019  0.51981  0.13408  Biso   1.000  C
  C295     1.0000 0.27866  0.97134  0.64548  Biso   1.000  C
  C296     1.0000 0.30424  0.94576  0.65064  Biso   1.000  C
  C297     1.0000 0.32475  0.92525  0.65525  Biso   1.000  C
  C298     1.0000 0.35012  0.89988  0.65704  Biso   1.000  C
  C299     1.0000 0.20379  0.04621  0.62833  Biso   1.000  C
  C300     1.0000 0.23019  0.01981  0.63408  Biso   1.000  C
  C301     1.0000 0.47134  0.77866  0.64548  Biso   1.000  C
  C302     1.0000 0.44576  0.80424  0.65064  Biso   1.000  C
  C303     1.0000 0.42525  0.82475  0.65525  Biso   1.000  C
  C304     1.0000 0.39988  0.85012  0.65704  Biso   1.000  C
  C305     1.0000 0.54621  0.70379  0.62833  Biso   1.000  C
  C306     1.0000 0.51981  0.73019  0.63408  Biso   1.000  C
  C307     1.0000 0.97134  0.77866  0.14548  Biso   1.000  C
  C308     1.0000 0.94576  0.80424  0.15064  Biso   1.000  C
  C309     1.0000 0.92525  0.82475  0.15525  Biso   1.000  C
  C310     1.0000 0.89988  0.85012  0.15704  Biso   1.000  C
  C311     1.0000 0.04621  0.70379  0.12833  Biso   1.000  C
  C312     1.0000 0.01981  0.73019  0.13408  Biso   1.000  C
  C313     1.0000 0.97134  0.27866  0.64548  Biso   1.000  C
  C314     1.0000 0.94576  0.30424  0.65064  Biso   1.000  C
  C315     1.0000 0.92525  0.32475  0.65525  Biso   1.000  C
  C316     1.0000 0.89988  0.35012  0.65704  Biso   1.000  C
  C317     1.0000 0.04621  0.20379  0.62833  Biso   1.000  C
  C318     1.0000 0.01981  0.23019  0.63408  Biso   1.000  C
  C319     1.0000 0.97134  0.97134  0.60452  Biso   1.000  C
  C320     1.0000 0.94576  0.94576  0.59936  Biso   1.000  C
  C321     1.0000 0.92525  0.92525  0.59475  Biso   1.000  C
  C322     1.0000 0.89988  0.89988  0.59296  Biso   1.000  C
  C323     1.0000 0.04621  0.04621  0.62167  Biso   1.000  C
  C324     1.0000 0.01981  0.01981  0.61592  Biso   1.000  C
  C325     1.0000 0.97134  0.47134  0.10452  Biso   1.000  C
  C326     1.0000 0.94576  0.44576  0.09936  Biso   1.000  C
  C327     1.0000 0.92525  0.42525  0.09475  Biso   1.000  C
  C328     1.0000 0.89988  0.39988  0.09296  Biso   1.000  C
  C329     1.0000 0.04621  0.54621  0.12167  Biso   1.000  C
  C330     1.0000 0.01981  0.51981  0.11592  Biso   1.000  C
  C331     1.0000 0.47134  0.97134  0.10452  Biso   1.000  C
  C332     1.0000 0.44576  0.94576  0.09936  Biso   1.000  C
  C333     1.0000 0.42525  0.92525  0.09475  Biso   1.000  C
  C334     1.0000 0.39988  0.89988  0.09296  Biso   1.000  C
  C335     1.0000 0.54621  0.04621  0.12167  Biso   1.000  C
  C336     1.0000 0.51981  0.01981  0.11592  Biso   1.000  C
  C337     1.0000 0.47134  0.47134  0.60452  Biso   1.000  C
  C338     1.0000 0.44576  0.44576  0.59936  Biso   1.000  C
  C339     1.0000 0.42525  0.42525  0.59475  Biso   1.000  C
  C340     1.0000 0.39988  0.39988  0.59296  Biso   1.000  C
  C341     1.0000 0.54621  0.54621  0.62167  Biso   1.000  C
  C342     1.0000 0.51981  0.51981  0.61592  Biso   1.000  C
  C343     1.0000 0.77866  0.27866  0.10452  Biso   1.000  C
  C344     1.0000 0.80424  0.30424  0.09936  Biso   1.000  C
  C345     1.0000 0.82475  0.32475  0.09475  Biso   1.000  C
  C346     1.0000 0.85012  0.35012  0.09296  Biso   1.000  C
  C347     1.0000 0.70379  0.20379  0.12167  Biso   1.000  C
  C348     1.0000 0.73019  0.23019  0.11592  Biso   1.000  C
  C349     1.0000 0.77866  0.77866  0.60452  Biso   1.000  C
  C350     1.0000 0.80424  0.80424  0.59936  Biso   1.000  C
  C351     1.0000 0.82475  0.82475  0.59475  Biso   1.000  C
  C352     1.0000 0.85012  0.85012  0.59296  Biso   1.000  C
  C353     1.0000 0.70379  0.70379  0.62167  Biso   1.000  C
  C354     1.0000 0.73019  0.73019  0.61592  Biso   1.000  C
  C355     1.0000 0.14548  0.27866  0.47134  Biso   1.000  C
  C356     1.0000 0.15064  0.30424  0.44576  Biso   1.000  C
  C357     1.0000 0.15525  0.32475  0.42525  Biso   1.000  C
  C358     1.0000 0.15704  0.35012  0.39988  Biso   1.000  C
  C359     1.0000 0.12833  0.20379  0.54621  Biso   1.000  C
  C360     1.0000 0.13408  0.23019  0.51981  Biso   1.000  C
  C361     1.0000 0.14548  0.77866  0.97134  Biso   1.000  C
  C362     1.0000 0.15064  0.80424  0.94576  Biso   1.000  C
  C363     1.0000 0.15525  0.82475  0.92525  Biso   1.000  C
  C364     1.0000 0.15704  0.85012  0.89988  Biso   1.000  C
  C365     1.0000 0.12833  0.70379  0.04621  Biso   1.000  C
  C366     1.0000 0.13408  0.73019  0.01981  Biso   1.000  C
  C367     1.0000 0.64548  0.27866  0.97134  Biso   1.000  C
  C368     1.0000 0.65064  0.30424  0.94576  Biso   1.000  C
  C369     1.0000 0.65525  0.32475  0.92525  Biso   1.000  C
  C370     1.0000 0.65704  0.35012  0.89988  Biso   1.000  C
  C371     1.0000 0.62833  0.20379  0.04621  Biso   1.000  C
  C372     1.0000 0.63408  0.23019  0.01981  Biso   1.000  C
  C373     1.0000 0.64548  0.47134  0.77866  Biso   1.000  C
  C374     1.0000 0.65064  0.44576  0.80424  Biso   1.000  C
  C375     1.0000 0.65525  0.42525  0.82475  Biso   1.000  C
  C376     1.0000 0.65704  0.39988  0.85012  Biso   1.000  C
  C377     1.0000 0.62833  0.54621  0.70379  Biso   1.000  C
  C378     1.0000 0.63408  0.51981  0.73019  Biso   1.000  C
  C379     1.0000 0.64548  0.97134  0.27866  Biso   1.000  C
  C380     1.0000 0.65064  0.94576  0.30424  Biso   1.000  C
  C381     1.0000 0.65525  0.92525  0.32475  Biso   1.000  C
  C382     1.0000 0.65704  0.89988  0.35012  Biso   1.000  C
  C383     1.0000 0.62833  0.04621  0.20379  Biso   1.000  C
  C384     1.0000 0.63408  0.01981  0.23019  Biso   1.000  C
  C385     1.0000 0.60452  0.97134  0.97134  Biso   1.000  C
  C386     1.0000 0.59936  0.94576  0.94576  Biso   1.000  C
  C387     1.0000 0.59475  0.92525  0.92525  Biso   1.000  C
  C388     1.0000 0.59296  0.89988  0.89988  Biso   1.000  C
  C389     1.0000 0.62167  0.04621  0.04621  Biso   1.000  C
  C390     1.0000 0.61592  0.01981  0.01981  Biso   1.000  C
  C391     1.0000 0.60452  0.47134  0.47134  Biso   1.000  C
  C392     1.0000 0.59936  0.44576  0.44576  Biso   1.000  C
  C393     1.0000 0.59475  0.42525  0.42525  Biso   1.000  C
  C394     1.0000 0.59296  0.39988  0.39988  Biso   1.000  C
  C395     1.0000 0.62167  0.54621  0.54621  Biso   1.000  C
  C396     1.0000 0.61592  0.51981  0.51981  Biso   1.000  C
  C397     1.0000 0.10452  0.97134  0.47134  Biso   1.000  C
  C398     1.0000 0.09936  0.94576  0.44576  Biso   1.000  C
  C399     1.0000 0.09475  0.92525  0.42525  Biso   1.000  C
  C400     1.0000 0.09296  0.89988  0.39988  Biso   1.000  C
  C401     1.0000 0.12167  0.04621  0.54621  Biso   1.000  C
  C402     1.0000 0.11592  0.01981  0.51981  Biso   1.000  C
  C403     1.0000 0.10452  0.47134  0.97134  Biso   1.000  C
  C404     1.0000 0.09936  0.44576  0.94576  Biso   1.000  C
  C405     1.0000 0.09475  0.42525  0.92525  Biso   1.000  C
  C406     1.0000 0.09296  0.39988  0.89988  Biso   1.000  C
  C407     1.0000 0.12167  0.54621  0.04621  Biso   1.000  C
  C408     1.0000 0.11592  0.51981  0.01981  Biso   1.000  C
  C409     1.0000 0.10452  0.77866  0.27866  Biso   1.000  C
  C410     1.0000 0.09936  0.80424  0.30424  Biso   1.000  C
  C411     1.0000 0.09475  0.82475  0.32475  Biso   1.000  C
  C412     1.0000 0.09296  0.85012  0.35012  Biso   1.000  C
  C413     1.0000 0.12167  0.70379  0.20379  Biso   1.000  C
  C414     1.0000 0.11592  0.73019  0.23019  Biso   1.000  C
  C415     1.0000 0.60452  0.77866  0.77866  Biso   1.000  C
  C416     1.0000 0.59936  0.80424  0.80424  Biso   1.000  C
  C417     1.0000 0.59475  0.82475  0.82475  Biso   1.000  C
  C418     1.0000 0.59296  0.85012  0.85012  Biso   1.000  C
  C419     1.0000 0.62167  0.70379  0.70379  Biso   1.000  C
  C420     1.0000 0.61592  0.73019  0.73019  Biso   1.000  C
  C421     1.0000 0.47134  0.14548  0.27866  Biso   1.000  C
  C422     1.0000 0.44576  0.15064  0.30424  Biso   1.000  C
  C423     1.0000 0.42525  0.15525  0.32475  Biso   1.000  C
  C424     1.0000 0.39988  0.15704  0.35012  Biso   1.000  C
  C425     1.0000 0.54621  0.12833  0.20379  Biso   1.000  C
  C426     1.0000 0.51981  0.13408  0.23019  Biso   1.000  C
  C427     1.0000 0.97134  0.14548  0.77866  Biso   1.000  C
  C428     1.0000 0.94576  0.15064  0.80424  Biso   1.000  C
  C429     1.0000 0.92525  0.15525  0.82475  Biso   1.000  C
  C430     1.0000 0.89988  0.15704  0.85012  Biso   1.000  C
  C431     1.0000 0.04621  0.12833  0.70379  Biso   1.000  C
  C432     1.0000 0.01981  0.13408  0.73019  Biso   1.000  C
  C433     1.0000 0.97134  0.64548  0.27866  Biso   1.000  C
  C434     1.0000 0.94576  0.65064  0.30424  Biso   1.000  C
  C435     1.0000 0.92525  0.65525  0.32475  Biso   1.000  C
  C436     1.0000 0.89988  0.65704  0.35012  Biso   1.000  C
  C437     1.0000 0.04621  0.62833  0.20379  Biso   1.000  C
  C438     1.0000 0.01981  0.63408  0.23019  Biso   1.000  C
  C439     1.0000 0.77866  0.64548  0.47134  Biso   1.000  C
  C440     1.0000 0.80424  0.65064  0.44576  Biso   1.000  C
  C441     1.0000 0.82475  0.65525  0.42525  Biso   1.000  C
  C442     1.0000 0.85012  0.65704  0.39988  Biso   1.000  C
  C443     1.0000 0.70379  0.62833  0.54621  Biso   1.000  C
  C444     1.0000 0.73019  0.63408  0.51981  Biso   1.000  C
  C445     1.0000 0.77866  0.14548  0.97134  Biso   1.000  C
  C446     1.0000 0.80424  0.15064  0.94576  Biso   1.000  C
  C447     1.0000 0.82475  0.15525  0.92525  Biso   1.000  C
  C448     1.0000 0.85012  0.15704  0.89988  Biso   1.000  C
  C449     1.0000 0.70379  0.12833  0.04621  Biso   1.000  C
  C450     1.0000 0.73019  0.13408  0.01981  Biso   1.000  C
  C451     1.0000 0.27866  0.64548  0.97134  Biso   1.000  C
  C452     1.0000 0.30424  0.65064  0.94576  Biso   1.000  C
  C453     1.0000 0.32475  0.65525  0.92525  Biso   1.000  C
  C454     1.0000 0.35012  0.65704  0.89988  Biso   1.000  C
  C455     1.0000 0.20379  0.62833  0.04621  Biso   1.000  C
  C456     1.0000 0.23019  0.63408  0.01981  Biso   1.000  C
  C457     1.0000 0.97134  0.60452  0.97134  Biso   1.000  C
  C458     1.0000 0.94576  0.59936  0.94576  Biso   1.000  C
  C459     1.0000 0.92525  0.59475  0.92525  Biso   1.000  C
  C460     1.0000 0.89988  0.59296  0.89988  Biso   1.000  C
  C461     1.0000 0.04621  0.62167  0.04621  Biso   1.000  C
  C462     1.0000 0.01981  0.61592  0.01981  Biso   1.000  C
  C463     1.0000 0.97134  0.10452  0.47134  Biso   1.000  C
  C464     1.0000 0.94576  0.09936  0.44576  Biso   1.000  C
  C465     1.0000 0.92525  0.09475  0.42525  Biso   1.000  C
  C466     1.0000 0.89988  0.09296  0.39988  Biso   1.000  C
  C467     1.0000 0.04621  0.12167  0.54621  Biso   1.000  C
  C468     1.0000 0.01981  0.11592  0.51981  Biso   1.000  C
  C469     1.0000 0.47134  0.60452  0.47134  Biso   1.000  C
  C470     1.0000 0.44576  0.59936  0.44576  Biso   1.000  C
  C471     1.0000 0.42525  0.59475  0.42525  Biso   1.000  C
  C472     1.0000 0.39988  0.59296  0.39988  Biso   1.000  C
  C473     1.0000 0.54621  0.62167  0.54621  Biso   1.000  C
  C474     1.0000 0.51981  0.61592  0.51981  Biso   1.000  C
  C475     1.0000 0.47134  0.10452  0.97134  Biso   1.000  C
  C476     1.0000 0.44576  0.09936  0.94576  Biso   1.000  C
  C477     1.0000 0.42525  0.09475  0.92525  Biso   1.000  C
  C478     1.0000 0.39988  0.09296  0.89988  Biso   1.000  C
  C479     1.0000 0.54621  0.12167  0.04621  Biso   1.000  C
  C480     1.0000 0.51981  0.11592  0.01981  Biso   1.000  C
  C481     1.0000 0.27866  0.10452  0.77866  Biso   1.000  C
  C482     1.0000 0.30424  0.09936  0.80424  Biso   1.000  C
  C483     1.0000 0.32475  0.09475  0.82475  Biso   1.000  C
  C484     1.0000 0.35012  0.09296  0.85012  Biso   1.000  C
  C485     1.0000 0.20379  0.12167  0.70379  Biso   1.000  C
  C486     1.0000 0.23019  0.11592  0.73019  Biso   1.000  C
  C487     1.0000 0.27866  0.60452  0.27866  Biso   1.000  C
  C488     1.0000 0.30424  0.59936  0.30424  Biso   1.000  C
  C489     1.0000 0.32475  0.59475  0.32475  Biso   1.000  C
  C490     1.0000 0.35012  0.59296  0.35012  Biso   1.000  C
  C491     1.0000 0.20379  0.62167  0.20379  Biso   1.000  C
  C492     1.0000 0.23019  0.61592  0.23019  Biso   1.000  C
  C493     1.0000 0.77866  0.60452  0.77866  Biso   1.000  C
  C494     1.0000 0.80424  0.59936  0.80424  Biso   1.000  C
  C495     1.0000 0.82475  0.59475  0.82475  Biso   1.000  C
  C496     1.0000 0.85012  0.59296  0.85012  Biso   1.000  C
  C497     1.0000 0.70379  0.62167  0.70379  Biso   1.000  C
  C498     1.0000 0.73019  0.61592  0.73019  Biso   1.000  C
  C499     1.0000 0.77866  0.47134  0.64548  Biso   1.000  C
  C500     1.0000 0.80424  0.44576  0.65064  Biso   1.000  C
  C501     1.0000 0.82475  0.42525  0.65525  Biso   1.000  C
  C502     1.0000 0.85012  0.39988  0.65704  Biso   1.000  C
  C503     1.0000 0.70379  0.54621  0.62833  Biso   1.000  C
  C504     1.0000 0.73019  0.51981  0.63408  Biso   1.000  C
  C505     1.0000 0.77866  0.97134  0.14548  Biso   1.000  C
  C506     1.0000 0.80424  0.94576  0.15064  Biso   1.000  C
  C507     1.0000 0.82475  0.92525  0.15525  Biso   1.000  C
  C508     1.0000 0.85012  0.89988  0.15704  Biso   1.000  C
  C509     1.0000 0.70379  0.04621  0.12833  Biso   1.000  C
  C510     1.0000 0.73019  0.01981  0.13408  Biso   1.000  C
  C511     1.0000 0.47134  0.27866  0.14548  Biso   1.000  C
  C512     1.0000 0.44576  0.30424  0.15064  Biso   1.000  C
  C513     1.0000 0.42525  0.32475  0.15525  Biso   1.000  C
  C514     1.0000 0.39988  0.35012  0.15704  Biso   1.000  C
  C515     1.0000 0.54621  0.20379  0.12833  Biso   1.000  C
  C516     1.0000 0.51981  0.23019  0.13408  Biso   1.000  C
  C517     1.0000 0.27866  0.77866  0.10452  Biso   1.000  C
  C518     1.0000 0.30424  0.80424  0.09936  Biso   1.000  C
  C519     1.0000 0.32475  0.82475  0.09475  Biso   1.000  C
  C520     1.0000 0.35012  0.85012  0.09296  Biso   1.000  C
  C521     1.0000 0.20379  0.70379  0.12167  Biso   1.000  C
  C522     1.0000 0.23019  0.73019  0.11592  Biso   1.000  C
  C523     1.0000 0.27866  0.27866  0.60452  Biso   1.000  C
  C524     1.0000 0.30424  0.30424  0.59936  Biso   1.000  C
  C525     1.0000 0.32475  0.32475  0.59475  Biso   1.000  C
  C526     1.0000 0.35012  0.35012  0.59296  Biso   1.000  C
  C527     1.0000 0.20379  0.20379  0.62167  Biso   1.000  C
  C528     1.0000 0.23019  0.23019  0.61592  Biso   1.000  C
  C529     1.0000 0.77866  0.10452  0.27866  Biso   1.000  C
  C530     1.0000 0.80424  0.09936  0.30424  Biso   1.000  C
  C531     1.0000 0.82475  0.09475  0.32475  Biso   1.000  C
  C532     1.0000 0.85012  0.09296  0.35012  Biso   1.000  C
  C533     1.0000 0.70379  0.12167  0.20379  Biso   1.000  C
  C534     1.0000 0.73019  0.11592  0.23019  Biso   1.000  C
  C535     1.0000 0.27866  0.14548  0.47134  Biso   1.000  C
  C536     1.0000 0.30424  0.15064  0.44576  Biso   1.000  C
  C537     1.0000 0.32475  0.15525  0.42525  Biso   1.000  C
  C538     1.0000 0.35012  0.15704  0.39988  Biso   1.000  C
  C539     1.0000 0.20379  0.12833  0.54621  Biso   1.000  C
  C540     1.0000 0.23019  0.13408  0.51981  Biso   1.000  C
  C541     1.0000 0.47134  0.64548  0.77866  Biso   1.000  C
  C542     1.0000 0.44576  0.65064  0.80424  Biso   1.000  C
  C543     1.0000 0.42525  0.65525  0.82475  Biso   1.000  C
  C544     1.0000 0.39988  0.65704  0.85012  Biso   1.000  C
  C545     1.0000 0.54621  0.62833  0.70379  Biso   1.000  C
  C546     1.0000 0.51981  0.63408  0.73019  Biso   1.000  C
  C547     1.0000 0.10452  0.27866  0.77866  Biso   1.000  C
  C548     1.0000 0.09936  0.30424  0.80424  Biso   1.000  C
  C549     1.0000 0.09475  0.32475  0.82475  Biso   1.000  C
  C550     1.0000 0.09296  0.35012  0.85012  Biso   1.000  C
  C551     1.0000 0.12167  0.20379  0.70379  Biso   1.000  C
  C552     1.0000 0.11592  0.23019  0.73019  Biso   1.000  C
  C553     1.0000 0.60452  0.27866  0.27866  Biso   1.000  C
  C554     1.0000 0.59936  0.30424  0.30424  Biso   1.000  C
  C555     1.0000 0.59475  0.32475  0.32475  Biso   1.000  C
  C556     1.0000 0.59296  0.35012  0.35012  Biso   1.000  C
  C557     1.0000 0.62167  0.20379  0.20379  Biso   1.000  C
  C558     1.0000 0.61592  0.23019  0.23019  Biso   1.000  C
  C559     1.0000 0.64548  0.77866  0.47134  Biso   1.000  C
  C560     1.0000 0.65064  0.80424  0.44576  Biso   1.000  C
  C561     1.0000 0.65525  0.82475  0.42525  Biso   1.000  C
  C562     1.0000 0.65704  0.85012  0.39988  Biso   1.000  C
  C563     1.0000 0.62833  0.70379  0.54621  Biso   1.000  C
  C564     1.0000 0.63408  0.73019  0.51981  Biso   1.000  C
  C565     1.0000 0.14548  0.47134  0.27866  Biso   1.000  C
  C566     1.0000 0.15064  0.44576  0.30424  Biso   1.000  C
  C567     1.0000 0.15525  0.42525  0.32475  Biso   1.000  C
  C568     1.0000 0.15704  0.39988  0.35012  Biso   1.000  C
  C569     1.0000 0.12833  0.54621  0.20379  Biso   1.000  C
  C570     1.0000 0.13408  0.51981  0.23019  Biso   1.000  C
  C571     1.0000 0.14548  0.97134  0.77866  Biso   1.000  C
  C572     1.0000 0.15064  0.94576  0.80424  Biso   1.000  C
  C573     1.0000 0.15525  0.92525  0.82475  Biso   1.000  C
  C574     1.0000 0.15704  0.89988  0.85012  Biso   1.000  C
  C575     1.0000 0.12833  0.04621  0.70379  Biso   1.000  C
  C576     1.0000 0.13408  0.01981  0.73019  Biso   1.000  C
  O113     1.0000 0.15864  0.65864  0.15864  Biso   1.000  O
  O114     1.0000 0.65864  0.65864  0.65864  Biso   1.000  O
  O115     1.0000 0.59136  0.59136  0.65864  Biso   1.000  O
  O116     1.0000 0.59136  0.09136  0.15864  Biso   1.000  O
  O117     1.0000 0.09136  0.15864  0.59136  Biso   1.000  O
  O118     1.0000 0.65864  0.09136  0.09136  Biso   1.000  O
  O119     1.0000 0.15864  0.09136  0.59136  Biso   1.000  O
  O120     1.0000 0.15864  0.59136  0.09136  Biso   1.000  O
  O121     1.0000 0.15864  0.15864  0.65864  Biso   1.000  O
  O122     1.0000 0.65864  0.59136  0.59136  Biso   1.000  O
  O123     1.0000 0.09136  0.65864  0.09136  Biso   1.000  O
  O124     1.0000 0.59136  0.15864  0.09136  Biso   1.000  O
  O125     1.0000 0.65864  0.15864  0.15864  Biso   1.000  O
  O126     1.0000 0.59136  0.65864  0.59136  Biso   1.000  O
  O127     1.0000 0.09136  0.09136  0.65864  Biso   1.000  O
  O128     1.0000 0.09136  0.59136  0.15864  Biso   1.000  O
  O129     1.0000 0.32607  0.46400  0.37407  Biso   1.000  O
  C577     1.0000 0.23680  0.47148  0.36267  Biso   1.000  C
  H289     1.0000 0.23060  0.44900  0.36390  Biso   1.000  H
  C578     1.0000 0.21271  0.49561  0.35754  Biso   1.000  C
  H290     1.0000 0.19030  0.48940  0.35610  Biso   1.000  H
  C579     1.0000 0.15659  0.63171  0.33970  Biso   1.000  C
  H291     1.0000 0.17880  0.63820  0.33720  Biso   1.000  H
  O130     1.0000 0.32607  0.96400  0.87407  Biso   1.000  O
  C580     1.0000 0.23680  0.97148  0.86267  Biso   1.000  C
  H292     1.0000 0.23060  0.94900  0.86390  Biso   1.000  H
  C581     1.0000 0.21271  0.99561  0.85754  Biso   1.000  C
  H293     1.0000 0.19030  0.98940  0.85610  Biso   1.000  H
  C582     1.0000 0.15659  0.13171  0.83970  Biso   1.000  C
  H294     1.0000 0.17880  0.13820  0.83720  Biso   1.000  H
  O131     1.0000 0.82607  0.46400  0.87407  Biso   1.000  O
  C583     1.0000 0.73680  0.47148  0.86267  Biso   1.000  C
  H295     1.0000 0.73060  0.44900  0.86390  Biso   1.000  H
  C584     1.0000 0.71271  0.49561  0.85754  Biso   1.000  C
  H296     1.0000 0.69030  0.48940  0.85610  Biso   1.000  H
  C585     1.0000 0.65659  0.63171  0.83970  Biso   1.000  C
  H297     1.0000 0.67880  0.63820  0.83720  Biso   1.000  H
  O132     1.0000 0.82607  0.96400  0.37407  Biso   1.000  O
  C586     1.0000 0.73680  0.97148  0.36267  Biso   1.000  C
  H298     1.0000 0.73060  0.94900  0.36390  Biso   1.000  H
  C587     1.0000 0.71271  0.99561  0.35754  Biso   1.000  C
  H299     1.0000 0.69030  0.98940  0.35610  Biso   1.000  H
  C588     1.0000 0.65659  0.13171  0.33970  Biso   1.000  C
  H300     1.0000 0.67880  0.13820  0.33720  Biso   1.000  H
  O133     1.0000 0.42393  0.78600  0.87407  Biso   1.000  O
  C589     1.0000 0.51320  0.77852  0.86267  Biso   1.000  C
  H301     1.0000 0.51940  0.80100  0.86390  Biso   1.000  H
  C590     1.0000 0.53729  0.75439  0.85754  Biso   1.000  C
  H302     1.0000 0.55970  0.76060  0.85610  Biso   1.000  H
  C591     1.0000 0.59341  0.61829  0.83970  Biso   1.000  C
  H303     1.0000 0.57120  0.61180  0.83720  Biso   1.000  H
  O134     1.0000 0.42393  0.28600  0.37407  Biso   1.000  O
  C592     1.0000 0.51320  0.27852  0.36267  Biso   1.000  C
  H304     1.0000 0.51940  0.30100  0.36390  Biso   1.000  H
  C593     1.0000 0.53729  0.25439  0.35754  Biso   1.000  C
  H305     1.0000 0.55970  0.26060  0.35610  Biso   1.000  H
  C594     1.0000 0.59341  0.11829  0.33970  Biso   1.000  C
  H306     1.0000 0.57120  0.11180  0.33720  Biso   1.000  H
  O135     1.0000 0.92393  0.78600  0.37407  Biso   1.000  O
  C595     1.0000 0.01320  0.77852  0.36267  Biso   1.000  C
  H307     1.0000 0.01940  0.80100  0.36390  Biso   1.000  H
  C596     1.0000 0.03729  0.75439  0.35754  Biso   1.000  C
  H308     1.0000 0.05970  0.76060  0.35610  Biso   1.000  H
  C597     1.0000 0.09341  0.61829  0.33970  Biso   1.000  C
  H309     1.0000 0.07120  0.61180  0.33720  Biso   1.000  H
  O136     1.0000 0.92393  0.28600  0.87407  Biso   1.000  O
  C598     1.0000 0.01320  0.27852  0.86267  Biso   1.000  C
  H310     1.0000 0.01940  0.30100  0.86390  Biso   1.000  H
  C599     1.0000 0.03729  0.25439  0.85754  Biso   1.000  C
  H311     1.0000 0.05970  0.26060  0.85610  Biso   1.000  H
  C600     1.0000 0.09341  0.11829  0.83970  Biso   1.000  C
  H312     1.0000 0.07120  0.11180  0.83720  Biso   1.000  H
  O137     1.0000 0.82607  0.28600  0.87593  Biso   1.000  O
  C601     1.0000 0.73680  0.27852  0.88733  Biso   1.000  C
  H313     1.0000 0.73060  0.30100  0.88610  Biso   1.000  H
  C602     1.0000 0.71271  0.25439  0.89246  Biso   1.000  C
  H314     1.0000 0.69030  0.26060  0.89390  Biso   1.000  H
  C603     1.0000 0.65659  0.11829  0.91030  Biso   1.000  C
  H315     1.0000 0.67880  0.11180  0.91280  Biso   1.000  H
  O138     1.0000 0.82607  0.78600  0.37593  Biso   1.000  O
  C604     1.0000 0.73680  0.77852  0.38733  Biso   1.000  C
  H316     1.0000 0.73060  0.80100  0.38610  Biso   1.000  H
  C605     1.0000 0.71271  0.75439  0.39246  Biso   1.000  C
  H317     1.0000 0.69030  0.76060  0.39390  Biso   1.000  H
  C606     1.0000 0.65659  0.61829  0.41030  Biso   1.000  C
  H318     1.0000 0.67880  0.61180  0.41280  Biso   1.000  H
  O139     1.0000 0.32607  0.28600  0.37593  Biso   1.000  O
  C607     1.0000 0.23680  0.27852  0.38733  Biso   1.000  C
  H319     1.0000 0.23060  0.30100  0.38610  Biso   1.000  H
  C608     1.0000 0.21271  0.25439  0.39246  Biso   1.000  C
  H320     1.0000 0.19030  0.26060  0.39390  Biso   1.000  H
  C609     1.0000 0.15659  0.11829  0.41030  Biso   1.000  C
  H321     1.0000 0.17880  0.11180  0.41280  Biso   1.000  H
  O140     1.0000 0.32607  0.78600  0.87593  Biso   1.000  O
  C610     1.0000 0.23680  0.77852  0.88733  Biso   1.000  C
  H322     1.0000 0.23060  0.80100  0.88610  Biso   1.000  H
  C611     1.0000 0.21271  0.75439  0.89246  Biso   1.000  C
  H323     1.0000 0.19030  0.76060  0.89390  Biso   1.000  H
  C612     1.0000 0.15659  0.61829  0.91030  Biso   1.000  C
  H324     1.0000 0.17880  0.61180  0.91280  Biso   1.000  H
  O141     1.0000 0.92393  0.96400  0.37593  Biso   1.000  O
  C613     1.0000 0.01320  0.97148  0.38733  Biso   1.000  C
  H325     1.0000 0.01940  0.94900  0.38610  Biso   1.000  H
  C614     1.0000 0.03729  0.99561  0.39246  Biso   1.000  C
  H326     1.0000 0.05970  0.98940  0.39390  Biso   1.000  H
  C615     1.0000 0.09341  0.13171  0.41030  Biso   1.000  C
  H327     1.0000 0.07120  0.13820  0.41280  Biso   1.000  H
  O142     1.0000 0.92393  0.46400  0.87593  Biso   1.000  O
  C616     1.0000 0.01320  0.47148  0.88733  Biso   1.000  C
  H328     1.0000 0.01940  0.44900  0.88610  Biso   1.000  H
  C617     1.0000 0.03729  0.49561  0.89246  Biso   1.000  C
  H329     1.0000 0.05970  0.48940  0.89390  Biso   1.000  H
  C618     1.0000 0.09341  0.63171  0.91030  Biso   1.000  C
  H330     1.0000 0.07120  0.63820  0.91280  Biso   1.000  H
  O143     1.0000 0.42393  0.96400  0.87593  Biso   1.000  O
  C619     1.0000 0.51320  0.97148  0.88733  Biso   1.000  C
  H331     1.0000 0.51940  0.94900  0.88610  Biso   1.000  H
  C620     1.0000 0.53729  0.99561  0.89246  Biso   1.000  C
  H332     1.0000 0.55970  0.98940  0.89390  Biso   1.000  H
  C621     1.0000 0.59341  0.13171  0.91030  Biso   1.000  C
  H333     1.0000 0.57120  0.13820  0.91280  Biso   1.000  H
  O144     1.0000 0.42393  0.46400  0.37593  Biso   1.000  O
  C622     1.0000 0.51320  0.47148  0.38733  Biso   1.000  C
  H334     1.0000 0.51940  0.44900  0.38610  Biso   1.000  H
  C623     1.0000 0.53729  0.49561  0.39246  Biso   1.000  C
  H335     1.0000 0.55970  0.48940  0.39390  Biso   1.000  H
  C624     1.0000 0.59341  0.63171  0.41030  Biso   1.000  C
  H336     1.0000 0.57120  0.63820  0.41280  Biso   1.000  H
  O145     1.0000 0.96400  0.37593  0.92393  Biso   1.000  O
  C625     1.0000 0.97148  0.38733  0.01320  Biso   1.000  C
  H337     1.0000 0.94900  0.38610  0.01940  Biso   1.000  H
  C626     1.0000 0.99561  0.39246  0.03729  Biso   1.000  C
  H338     1.0000 0.98940  0.39390  0.05970  Biso   1.000  H
  C627     1.0000 0.13171  0.41030  0.09341  Biso   1.000  C
  H339     1.0000 0.13820  0.41280  0.07120  Biso   1.000  H
  O146     1.0000 0.96400  0.87593  0.42393  Biso   1.000  O
  C628     1.0000 0.97148  0.88733  0.51320  Biso   1.000  C
  H340     1.0000 0.94900  0.88610  0.51940  Biso   1.000  H
  C629     1.0000 0.99561  0.89246  0.53729  Biso   1.000  C
  H341     1.0000 0.98940  0.89390  0.55970  Biso   1.000  H
  C630     1.0000 0.13171  0.91030  0.59341  Biso   1.000  C
  H342     1.0000 0.13820  0.91280  0.57120  Biso   1.000  H
  O147     1.0000 0.46400  0.37593  0.42393  Biso   1.000  O
  C631     1.0000 0.47148  0.38733  0.51320  Biso   1.000  C
  H343     1.0000 0.44900  0.38610  0.51940  Biso   1.000  H
  C632     1.0000 0.49561  0.39246  0.53729  Biso   1.000  C
  H344     1.0000 0.48940  0.39390  0.55970  Biso   1.000  H
  C633     1.0000 0.63171  0.41030  0.59341  Biso   1.000  C
  H345     1.0000 0.63820  0.41280  0.57120  Biso   1.000  H
  O148     1.0000 0.46400  0.87593  0.92393  Biso   1.000  O
  C634     1.0000 0.47148  0.88733  0.01320  Biso   1.000  C
  H346     1.0000 0.44900  0.88610  0.01940  Biso   1.000  H
  C635     1.0000 0.49561  0.89246  0.03729  Biso   1.000  C
  H347     1.0000 0.48940  0.89390  0.05970  Biso   1.000  H
  C636     1.0000 0.63171  0.91030  0.09341  Biso   1.000  C
  H348     1.0000 0.63820  0.91280  0.07120  Biso   1.000  H
  O149     1.0000 0.28600  0.87593  0.82607  Biso   1.000  O
  C637     1.0000 0.27852  0.88733  0.73680  Biso   1.000  C
  H349     1.0000 0.30100  0.88610  0.73060  Biso   1.000  H
  C638     1.0000 0.25439  0.89246  0.71271  Biso   1.000  C
  H350     1.0000 0.26060  0.89390  0.69030  Biso   1.000  H
  C639     1.0000 0.11829  0.91030  0.65659  Biso   1.000  C
  H351     1.0000 0.11180  0.91280  0.67880  Biso   1.000  H
  O150     1.0000 0.28600  0.37593  0.32607  Biso   1.000  O
  C640     1.0000 0.27852  0.38733  0.23680  Biso   1.000  C
  H352     1.0000 0.30100  0.38610  0.23060  Biso   1.000  H
  C641     1.0000 0.25439  0.39246  0.21271  Biso   1.000  C
  H353     1.0000 0.26060  0.39390  0.19030  Biso   1.000  H
  C642     1.0000 0.11829  0.41030  0.15659  Biso   1.000  C
  H354     1.0000 0.11180  0.41280  0.17880  Biso   1.000  H
  O151     1.0000 0.78600  0.87593  0.32607  Biso   1.000  O
  C643     1.0000 0.77852  0.88733  0.23680  Biso   1.000  C
  H355     1.0000 0.80100  0.88610  0.23060  Biso   1.000  H
  C644     1.0000 0.75439  0.89246  0.21271  Biso   1.000  C
  H356     1.0000 0.76060  0.89390  0.19030  Biso   1.000  H
  C645     1.0000 0.61829  0.91030  0.15659  Biso   1.000  C
  H357     1.0000 0.61180  0.91280  0.17880  Biso   1.000  H
  O152     1.0000 0.78600  0.37593  0.82607  Biso   1.000  O
  C646     1.0000 0.77852  0.38733  0.73680  Biso   1.000  C
  H358     1.0000 0.80100  0.38610  0.73060  Biso   1.000  H
  C647     1.0000 0.75439  0.39246  0.71271  Biso   1.000  C
  H359     1.0000 0.76060  0.39390  0.69030  Biso   1.000  H
  C648     1.0000 0.61829  0.41030  0.65659  Biso   1.000  C
  H360     1.0000 0.61180  0.41280  0.67880  Biso   1.000  H
  O153     1.0000 0.78600  0.87407  0.42393  Biso   1.000  O
  C649     1.0000 0.77852  0.86267  0.51320  Biso   1.000  C
  H361     1.0000 0.80100  0.86390  0.51940  Biso   1.000  H
  C650     1.0000 0.75439  0.85754  0.53729  Biso   1.000  C
  H362     1.0000 0.76060  0.85610  0.55970  Biso   1.000  H
  C651     1.0000 0.61829  0.83970  0.59341  Biso   1.000  C
  H363     1.0000 0.61180  0.83720  0.57120  Biso   1.000  H
  O154     1.0000 0.78600  0.37407  0.92393  Biso   1.000  O
  C652     1.0000 0.77852  0.36267  0.01320  Biso   1.000  C
  H364     1.0000 0.80100  0.36390  0.01940  Biso   1.000  H
  C653     1.0000 0.75439  0.35754  0.03729  Biso   1.000  C
  H365     1.0000 0.76060  0.35610  0.05970  Biso   1.000  H
  C654     1.0000 0.61829  0.33970  0.09341  Biso   1.000  C
  H366     1.0000 0.61180  0.33720  0.07120  Biso   1.000  H
  O155     1.0000 0.28600  0.87407  0.92393  Biso   1.000  O
  C655     1.0000 0.27852  0.86267  0.01320  Biso   1.000  C
  H367     1.0000 0.30100  0.86390  0.01940  Biso   1.000  H
  C656     1.0000 0.25439  0.85754  0.03729  Biso   1.000  C
  H368     1.0000 0.26060  0.85610  0.05970  Biso   1.000  H
  C657     1.0000 0.11829  0.83970  0.09341  Biso   1.000  C
  H369     1.0000 0.11180  0.83720  0.07120  Biso   1.000  H
  O156     1.0000 0.28600  0.37407  0.42393  Biso   1.000  O
  C658     1.0000 0.27852  0.36267  0.51320  Biso   1.000  C
  H370     1.0000 0.30100  0.36390  0.51940  Biso   1.000  H
  C659     1.0000 0.25439  0.35754  0.53729  Biso   1.000  C
  H371     1.0000 0.26060  0.35610  0.55970  Biso   1.000  H
  C660     1.0000 0.11829  0.33970  0.59341  Biso   1.000  C
  H372     1.0000 0.11180  0.33720  0.57120  Biso   1.000  H
  O157     1.0000 0.46400  0.37407  0.32607  Biso   1.000  O
  C661     1.0000 0.47148  0.36267  0.23680  Biso   1.000  C
  H373     1.0000 0.44900  0.36390  0.23060  Biso   1.000  H
  C662     1.0000 0.49561  0.35754  0.21271  Biso   1.000  C
  H374     1.0000 0.48940  0.35610  0.19030  Biso   1.000  H
  C663     1.0000 0.63171  0.33970  0.15659  Biso   1.000  C
  H375     1.0000 0.63820  0.33720  0.17880  Biso   1.000  H
  O158     1.0000 0.46400  0.87407  0.82607  Biso   1.000  O
  C664     1.0000 0.47148  0.86267  0.73680  Biso   1.000  C
  H376     1.0000 0.44900  0.86390  0.73060  Biso   1.000  H
  C665     1.0000 0.49561  0.85754  0.71271  Biso   1.000  C
  H377     1.0000 0.48940  0.85610  0.69030  Biso   1.000  H
  C666     1.0000 0.63171  0.83970  0.65659  Biso   1.000  C
  H378     1.0000 0.63820  0.83720  0.67880  Biso   1.000  H
  O159     1.0000 0.96400  0.37407  0.82607  Biso   1.000  O
  C667     1.0000 0.97148  0.36267  0.73680  Biso   1.000  C
  H379     1.0000 0.94900  0.36390  0.73060  Biso   1.000  H
  C668     1.0000 0.99561  0.35754  0.71271  Biso   1.000  C
  H380     1.0000 0.98940  0.35610  0.69030  Biso   1.000  H
  C669     1.0000 0.13171  0.33970  0.65659  Biso   1.000  C
  H381     1.0000 0.13820  0.33720  0.67880  Biso   1.000  H
  O160     1.0000 0.96400  0.87407  0.32607  Biso   1.000  O
  C670     1.0000 0.97148  0.86267  0.23680  Biso   1.000  C
  H382     1.0000 0.94900  0.86390  0.23060  Biso   1.000  H
  C671     1.0000 0.99561  0.85754  0.21271  Biso   1.000  C
  H383     1.0000 0.98940  0.85610  0.19030  Biso   1.000  H
  C672     1.0000 0.13171  0.83970  0.15659  Biso   1.000  C
  H384     1.0000 0.13820  0.83720  0.17880  Biso   1.000  H
  O161     1.0000 0.87593  0.82607  0.28600  Biso   1.000  O
  C673     1.0000 0.88733  0.73680  0.27852  Biso   1.000  C
  H385     1.0000 0.88610  0.73060  0.30100  Biso   1.000  H
  C674     1.0000 0.89246  0.71271  0.25439  Biso   1.000  C
  H386     1.0000 0.89390  0.69030  0.26060  Biso   1.000  H
  C675     1.0000 0.91030  0.65659  0.11829  Biso   1.000  C
  H387     1.0000 0.91280  0.67880  0.11180  Biso   1.000  H
  O162     1.0000 0.87593  0.32607  0.78600  Biso   1.000  O
  C676     1.0000 0.88733  0.23680  0.77852  Biso   1.000  C
  H388     1.0000 0.88610  0.23060  0.80100  Biso   1.000  H
  C677     1.0000 0.89246  0.21271  0.75439  Biso   1.000  C
  H389     1.0000 0.89390  0.19030  0.76060  Biso   1.000  H
  C678     1.0000 0.91030  0.15659  0.61829  Biso   1.000  C
  H390     1.0000 0.91280  0.17880  0.61180  Biso   1.000  H
  O163     1.0000 0.37593  0.82607  0.78600  Biso   1.000  O
  C679     1.0000 0.38733  0.73680  0.77852  Biso   1.000  C
  H391     1.0000 0.38610  0.73060  0.80100  Biso   1.000  H
  C680     1.0000 0.39246  0.71271  0.75439  Biso   1.000  C
  H392     1.0000 0.39390  0.69030  0.76060  Biso   1.000  H
  C681     1.0000 0.41030  0.65659  0.61829  Biso   1.000  C
  H393     1.0000 0.41280  0.67880  0.61180  Biso   1.000  H
  O164     1.0000 0.37593  0.32607  0.28600  Biso   1.000  O
  C682     1.0000 0.38733  0.23680  0.27852  Biso   1.000  C
  H394     1.0000 0.38610  0.23060  0.30100  Biso   1.000  H
  C683     1.0000 0.39246  0.21271  0.25439  Biso   1.000  C
  H395     1.0000 0.39390  0.19030  0.26060  Biso   1.000  H
  C684     1.0000 0.41030  0.15659  0.11829  Biso   1.000  C
  H396     1.0000 0.41280  0.17880  0.11180  Biso   1.000  H
  O165     1.0000 0.37593  0.92393  0.96400  Biso   1.000  O
  C685     1.0000 0.38733  0.01320  0.97148  Biso   1.000  C
  H397     1.0000 0.38610  0.01940  0.94900  Biso   1.000  H
  C686     1.0000 0.39246  0.03729  0.99561  Biso   1.000  C
  H398     1.0000 0.39390  0.05970  0.98940  Biso   1.000  H
  C687     1.0000 0.41030  0.09341  0.13171  Biso   1.000  C
  H399     1.0000 0.41280  0.07120  0.13820  Biso   1.000  H
  O166     1.0000 0.37593  0.42393  0.46400  Biso   1.000  O
  C688     1.0000 0.38733  0.51320  0.47148  Biso   1.000  C
  H400     1.0000 0.38610  0.51940  0.44900  Biso   1.000  H
  C689     1.0000 0.39246  0.53729  0.49561  Biso   1.000  C
  H401     1.0000 0.39390  0.55970  0.48940  Biso   1.000  H
  C690     1.0000 0.41030  0.59341  0.63171  Biso   1.000  C
  H402     1.0000 0.41280  0.57120  0.63820  Biso   1.000  H
  O167     1.0000 0.87593  0.92393  0.46400  Biso   1.000  O
  C691     1.0000 0.88733  0.01320  0.47148  Biso   1.000  C
  H403     1.0000 0.88610  0.01940  0.44900  Biso   1.000  H
  C692     1.0000 0.89246  0.03729  0.49561  Biso   1.000  C
  H404     1.0000 0.89390  0.05970  0.48940  Biso   1.000  H
  C693     1.0000 0.91030  0.09341  0.63171  Biso   1.000  C
  H405     1.0000 0.91280  0.07120  0.63820  Biso   1.000  H
  O168     1.0000 0.87593  0.42393  0.96400  Biso   1.000  O
  C694     1.0000 0.88733  0.51320  0.97148  Biso   1.000  C
  H406     1.0000 0.88610  0.51940  0.94900  Biso   1.000  H
  C695     1.0000 0.89246  0.53729  0.99561  Biso   1.000  C
  H407     1.0000 0.89390  0.55970  0.98940  Biso   1.000  H
  C696     1.0000 0.91030  0.59341  0.13171  Biso   1.000  C
  H408     1.0000 0.91280  0.57120  0.13820  Biso   1.000  H
  O169     1.0000 0.37407  0.32607  0.46400  Biso   1.000  O
  C697     1.0000 0.36267  0.23680  0.47148  Biso   1.000  C
  H409     1.0000 0.36390  0.23060  0.44900  Biso   1.000  H
  C698     1.0000 0.35754  0.21271  0.49561  Biso   1.000  C
  H410     1.0000 0.35610  0.19030  0.48940  Biso   1.000  H
  C699     1.0000 0.33970  0.15659  0.63171  Biso   1.000  C
  H411     1.0000 0.33720  0.17880  0.63820  Biso   1.000  H
  O170     1.0000 0.37407  0.82607  0.96400  Biso   1.000  O
  C700     1.0000 0.36267  0.73680  0.97148  Biso   1.000  C
  H412     1.0000 0.36390  0.73060  0.94900  Biso   1.000  H
  C701     1.0000 0.35754  0.71271  0.99561  Biso   1.000  C
  H413     1.0000 0.35610  0.69030  0.98940  Biso   1.000  H
  C702     1.0000 0.33970  0.65659  0.13171  Biso   1.000  C
  H414     1.0000 0.33720  0.67880  0.13820  Biso   1.000  H
  O171     1.0000 0.87407  0.32607  0.96400  Biso   1.000  O
  C703     1.0000 0.86267  0.23680  0.97148  Biso   1.000  C
  H415     1.0000 0.86390  0.23060  0.94900  Biso   1.000  H
  C704     1.0000 0.85754  0.21271  0.99561  Biso   1.000  C
  H416     1.0000 0.85610  0.19030  0.98940  Biso   1.000  H
  C705     1.0000 0.83970  0.15659  0.13171  Biso   1.000  C
  H417     1.0000 0.83720  0.17880  0.13820  Biso   1.000  H
  O172     1.0000 0.87407  0.82607  0.46400  Biso   1.000  O
  C706     1.0000 0.86267  0.73680  0.47148  Biso   1.000  C
  H418     1.0000 0.86390  0.73060  0.44900  Biso   1.000  H
  C707     1.0000 0.85754  0.71271  0.49561  Biso   1.000  C
  H419     1.0000 0.85610  0.69030  0.48940  Biso   1.000  H
  C708     1.0000 0.83970  0.65659  0.63171  Biso   1.000  C
  H420     1.0000 0.83720  0.67880  0.63820  Biso   1.000  H
  O173     1.0000 0.87407  0.42393  0.78600  Biso   1.000  O
  C709     1.0000 0.86267  0.51320  0.77852  Biso   1.000  C
  H421     1.0000 0.86390  0.51940  0.80100  Biso   1.000  H
  C710     1.0000 0.85754  0.53729  0.75439  Biso   1.000  C
  H422     1.0000 0.85610  0.55970  0.76060  Biso   1.000  H
  C711     1.0000 0.83970  0.59341  0.61829  Biso   1.000  C
  H423     1.0000 0.83720  0.57120  0.61180  Biso   1.000  H
  O174     1.0000 0.87407  0.92393  0.28600  Biso   1.000  O
  C712     1.0000 0.86267  0.01320  0.27852  Biso   1.000  C
  H424     1.0000 0.86390  0.01940  0.30100  Biso   1.000  H
  C713     1.0000 0.85754  0.03729  0.25439  Biso   1.000  C
  H425     1.0000 0.85610  0.05970  0.26060  Biso   1.000  H
  C714     1.0000 0.83970  0.09341  0.11829  Biso   1.000  C
  H426     1.0000 0.83720  0.07120  0.11180  Biso   1.000  H
  O175     1.0000 0.37407  0.42393  0.28600  Biso   1.000  O
  C715     1.0000 0.36267  0.51320  0.27852  Biso   1.000  C
  H427     1.0000 0.36390  0.51940  0.30100  Biso   1.000  H
  C716     1.0000 0.35754  0.53729  0.25439  Biso   1.000  C
  H428     1.0000 0.35610  0.55970  0.26060  Biso   1.000  H
  C717     1.0000 0.33970  0.59341  0.11829  Biso   1.000  C
  H429     1.0000 0.33720  0.57120  0.11180  Biso   1.000  H
  O176     1.0000 0.37407  0.92393  0.78600  Biso   1.000  O
  C718     1.0000 0.36267  0.01320  0.77852  Biso   1.000  C
  H430     1.0000 0.36390  0.01940  0.80100  Biso   1.000  H
  C719     1.0000 0.35754  0.03729  0.75439  Biso   1.000  C
  H431     1.0000 0.35610  0.05970  0.76060  Biso   1.000  H
  C720     1.0000 0.33970  0.09341  0.61829  Biso   1.000  C
  H432     1.0000 0.33720  0.07120  0.61180  Biso   1.000  H
  O177     1.0000 0.78600  0.42393  0.87407  Biso   1.000  O
  C721     1.0000 0.77852  0.51320  0.86267  Biso   1.000  C
  H433     1.0000 0.80100  0.51940  0.86390  Biso   1.000  H
  C722     1.0000 0.75439  0.53729  0.85754  Biso   1.000  C
  H434     1.0000 0.76060  0.55970  0.85610  Biso   1.000  H
  C723     1.0000 0.61829  0.59341  0.83970  Biso   1.000  C
  H435     1.0000 0.61180  0.57120  0.83720  Biso   1.000  H
  O178     1.0000 0.78600  0.92393  0.37407  Biso   1.000  O
  C724     1.0000 0.77852  0.01320  0.36267  Biso   1.000  C
  H436     1.0000 0.80100  0.01940  0.36390  Biso   1.000  H
  C725     1.0000 0.75439  0.03729  0.35754  Biso   1.000  C
  H437     1.0000 0.76060  0.05970  0.35610  Biso   1.000  H
  C726     1.0000 0.61829  0.09341  0.33970  Biso   1.000  C
  H438     1.0000 0.61180  0.07120  0.33720  Biso   1.000  H
  O179     1.0000 0.28600  0.42393  0.37407  Biso   1.000  O
  C727     1.0000 0.27852  0.51320  0.36267  Biso   1.000  C
  H439     1.0000 0.30100  0.51940  0.36390  Biso   1.000  H
  C728     1.0000 0.25439  0.53729  0.35754  Biso   1.000  C
  H440     1.0000 0.26060  0.55970  0.35610  Biso   1.000  H
  C729     1.0000 0.11829  0.59341  0.33970  Biso   1.000  C
  H441     1.0000 0.11180  0.57120  0.33720  Biso   1.000  H
  O180     1.0000 0.28600  0.92393  0.87407  Biso   1.000  O
  C730     1.0000 0.27852  0.01320  0.86267  Biso   1.000  C
  H442     1.0000 0.30100  0.01940  0.86390  Biso   1.000  H
  C731     1.0000 0.25439  0.03729  0.85754  Biso   1.000  C
  H443     1.0000 0.26060  0.05970  0.85610  Biso   1.000  H
  C732     1.0000 0.11829  0.09341  0.83970  Biso   1.000  C
  H444     1.0000 0.11180  0.07120  0.83720  Biso   1.000  H
  O181     1.0000 0.46400  0.32607  0.37407  Biso   1.000  O
  C733     1.0000 0.47148  0.23680  0.36267  Biso   1.000  C
  H445     1.0000 0.44900  0.23060  0.36390  Biso   1.000  H
  C734     1.0000 0.49561  0.21271  0.35754  Biso   1.000  C
  H446     1.0000 0.48940  0.19030  0.35610  Biso   1.000  H
  C735     1.0000 0.63171  0.15659  0.33970  Biso   1.000  C
  H447     1.0000 0.63820  0.17880  0.33720  Biso   1.000  H
  O182     1.0000 0.46400  0.82607  0.87407  Biso   1.000  O
  C736     1.0000 0.47148  0.73680  0.86267  Biso   1.000  C
  H448     1.0000 0.44900  0.73060  0.86390  Biso   1.000  H
  C737     1.0000 0.49561  0.71271  0.85754  Biso   1.000  C
  H449     1.0000 0.48940  0.69030  0.85610  Biso   1.000  H
  C738     1.0000 0.63171  0.65659  0.83970  Biso   1.000  C
  H450     1.0000 0.63820  0.67880  0.83720  Biso   1.000  H
  O183     1.0000 0.96400  0.32607  0.87407  Biso   1.000  O
  C739     1.0000 0.97148  0.23680  0.86267  Biso   1.000  C
  H451     1.0000 0.94900  0.23060  0.86390  Biso   1.000  H
  C740     1.0000 0.99561  0.21271  0.85754  Biso   1.000  C
  H452     1.0000 0.98940  0.19030  0.85610  Biso   1.000  H
  C741     1.0000 0.13171  0.15659  0.83970  Biso   1.000  C
  H453     1.0000 0.13820  0.17880  0.83720  Biso   1.000  H
  O184     1.0000 0.96400  0.82607  0.37407  Biso   1.000  O
  C742     1.0000 0.97148  0.73680  0.36267  Biso   1.000  C
  H454     1.0000 0.94900  0.73060  0.36390  Biso   1.000  H
  C743     1.0000 0.99561  0.71271  0.35754  Biso   1.000  C
  H455     1.0000 0.98940  0.69030  0.35610  Biso   1.000  H
  C744     1.0000 0.13171  0.65659  0.33970  Biso   1.000  C
  H456     1.0000 0.13820  0.67880  0.33720  Biso   1.000  H
  O185     1.0000 0.96400  0.92393  0.37593  Biso   1.000  O
  C745     1.0000 0.97148  0.01320  0.38733  Biso   1.000  C
  H457     1.0000 0.94900  0.01940  0.38610  Biso   1.000  H
  C746     1.0000 0.99561  0.03729  0.39246  Biso   1.000  C
  H458     1.0000 0.98940  0.05970  0.39390  Biso   1.000  H
  C747     1.0000 0.13171  0.09341  0.41030  Biso   1.000  C
  H459     1.0000 0.13820  0.07120  0.41280  Biso   1.000  H
  O186     1.0000 0.96400  0.42393  0.87593  Biso   1.000  O
  C748     1.0000 0.97148  0.51320  0.88733  Biso   1.000  C
  H460     1.0000 0.94900  0.51940  0.88610  Biso   1.000  H
  C749     1.0000 0.99561  0.53729  0.89246  Biso   1.000  C
  H461     1.0000 0.98940  0.55970  0.89390  Biso   1.000  H
  C750     1.0000 0.13171  0.59341  0.91030  Biso   1.000  C
  H462     1.0000 0.13820  0.57120  0.91280  Biso   1.000  H
  O187     1.0000 0.46400  0.92393  0.87593  Biso   1.000  O
  C751     1.0000 0.47148  0.01320  0.88733  Biso   1.000  C
  H463     1.0000 0.44900  0.01940  0.88610  Biso   1.000  H
  C752     1.0000 0.49561  0.03729  0.89246  Biso   1.000  C
  H464     1.0000 0.48940  0.05970  0.89390  Biso   1.000  H
  C753     1.0000 0.63171  0.09341  0.91030  Biso   1.000  C
  H465     1.0000 0.63820  0.07120  0.91280  Biso   1.000  H
  O188     1.0000 0.46400  0.42393  0.37593  Biso   1.000  O
  C754     1.0000 0.47148  0.51320  0.38733  Biso   1.000  C
  H466     1.0000 0.44900  0.51940  0.38610  Biso   1.000  H
  C755     1.0000 0.49561  0.53729  0.39246  Biso   1.000  C
  H467     1.0000 0.48940  0.55970  0.39390  Biso   1.000  H
  C756     1.0000 0.63171  0.59341  0.41030  Biso   1.000  C
  H468     1.0000 0.63820  0.57120  0.41280  Biso   1.000  H
  O189     1.0000 0.28600  0.82607  0.87593  Biso   1.000  O
  C757     1.0000 0.27852  0.73680  0.88733  Biso   1.000  C
  H469     1.0000 0.30100  0.73060  0.88610  Biso   1.000  H
  C758     1.0000 0.25439  0.71271  0.89246  Biso   1.000  C
  H470     1.0000 0.26060  0.69030  0.89390  Biso   1.000  H
  C759     1.0000 0.11829  0.65659  0.91030  Biso   1.000  C
  H471     1.0000 0.11180  0.67880  0.91280  Biso   1.000  H
  O190     1.0000 0.28600  0.32607  0.37593  Biso   1.000  O
  C760     1.0000 0.27852  0.23680  0.38733  Biso   1.000  C
  H472     1.0000 0.30100  0.23060  0.38610  Biso   1.000  H
  C761     1.0000 0.25439  0.21271  0.39246  Biso   1.000  C
  H473     1.0000 0.26060  0.19030  0.39390  Biso   1.000  H
  C762     1.0000 0.11829  0.15659  0.41030  Biso   1.000  C
  H474     1.0000 0.11180  0.17880  0.41280  Biso   1.000  H
  O191     1.0000 0.78600  0.82607  0.37593  Biso   1.000  O
  C763     1.0000 0.77852  0.73680  0.38733  Biso   1.000  C
  H475     1.0000 0.80100  0.73060  0.38610  Biso   1.000  H
  C764     1.0000 0.75439  0.71271  0.39246  Biso   1.000  C
  H476     1.0000 0.76060  0.69030  0.39390  Biso   1.000  H
  C765     1.0000 0.61829  0.65659  0.41030  Biso   1.000  C
  H477     1.0000 0.61180  0.67880  0.41280  Biso   1.000  H
  O192     1.0000 0.78600  0.32607  0.87593  Biso   1.000  O
  C766     1.0000 0.77852  0.23680  0.88733  Biso   1.000  C
  H478     1.0000 0.80100  0.23060  0.88610  Biso   1.000  H
  C767     1.0000 0.75439  0.21271  0.89246  Biso   1.000  C
  H479     1.0000 0.76060  0.19030  0.89390  Biso   1.000  H
  C768     1.0000 0.61829  0.15659  0.91030  Biso   1.000  C
  H480     1.0000 0.61180  0.17880  0.91280  Biso   1.000  H
  O193     1.0000 0.87407  0.78600  0.42393  Biso   1.000  O
  C769     1.0000 0.86267  0.77852  0.51320  Biso   1.000  C
  H481     1.0000 0.86390  0.80100  0.51940  Biso   1.000  H
  C770     1.0000 0.85754  0.75439  0.53729  Biso   1.000  C
  H482     1.0000 0.85610  0.76060  0.55970  Biso   1.000  H
  C771     1.0000 0.83970  0.61829  0.59341  Biso   1.000  C
  H483     1.0000 0.83720  0.61180  0.57120  Biso   1.000  H
  O194     1.0000 0.87407  0.28600  0.92393  Biso   1.000  O
  C772     1.0000 0.86267  0.27852  0.01320  Biso   1.000  C
  H484     1.0000 0.86390  0.30100  0.01940  Biso   1.000  H
  C773     1.0000 0.85754  0.25439  0.03729  Biso   1.000  C
  H485     1.0000 0.85610  0.26060  0.05970  Biso   1.000  H
  C774     1.0000 0.83970  0.11829  0.09341  Biso   1.000  C
  H486     1.0000 0.83720  0.11180  0.07120  Biso   1.000  H
  O195     1.0000 0.37407  0.78600  0.92393  Biso   1.000  O
  C775     1.0000 0.36267  0.77852  0.01320  Biso   1.000  C
  H487     1.0000 0.36390  0.80100  0.01940  Biso   1.000  H
  C776     1.0000 0.35754  0.75439  0.03729  Biso   1.000  C
  H488     1.0000 0.35610  0.76060  0.05970  Biso   1.000  H
  C777     1.0000 0.33970  0.61829  0.09341  Biso   1.000  C
  H489     1.0000 0.33720  0.61180  0.07120  Biso   1.000  H
  O196     1.0000 0.37407  0.28600  0.42393  Biso   1.000  O
  C778     1.0000 0.36267  0.27852  0.51320  Biso   1.000  C
  H490     1.0000 0.36390  0.30100  0.51940  Biso   1.000  H
  C779     1.0000 0.35754  0.25439  0.53729  Biso   1.000  C
  H491     1.0000 0.35610  0.26060  0.55970  Biso   1.000  H
  C780     1.0000 0.33970  0.11829  0.59341  Biso   1.000  C
  H492     1.0000 0.33720  0.11180  0.57120  Biso   1.000  H
  O197     1.0000 0.37407  0.46400  0.32607  Biso   1.000  O
  C781     1.0000 0.36267  0.47148  0.23680  Biso   1.000  C
  H493     1.0000 0.36390  0.44900  0.23060  Biso   1.000  H
  C782     1.0000 0.35754  0.49561  0.21271  Biso   1.000  C
  H494     1.0000 0.35610  0.48940  0.19030  Biso   1.000  H
  C783     1.0000 0.33970  0.63171  0.15659  Biso   1.000  C
  H495     1.0000 0.33720  0.63820  0.17880  Biso   1.000  H
  O198     1.0000 0.37407  0.96400  0.82607  Biso   1.000  O
  C784     1.0000 0.36267  0.97148  0.73680  Biso   1.000  C
  H496     1.0000 0.36390  0.94900  0.73060  Biso   1.000  H
  C785     1.0000 0.35754  0.99561  0.71271  Biso   1.000  C
  H497     1.0000 0.35610  0.98940  0.69030  Biso   1.000  H
  C786     1.0000 0.33970  0.13171  0.65659  Biso   1.000  C
  H498     1.0000 0.33720  0.13820  0.67880  Biso   1.000  H
  O199     1.0000 0.87407  0.46400  0.82607  Biso   1.000  O
  C787     1.0000 0.86267  0.47148  0.73680  Biso   1.000  C
  H499     1.0000 0.86390  0.44900  0.73060  Biso   1.000  H
  C788     1.0000 0.85754  0.49561  0.71271  Biso   1.000  C
  H500     1.0000 0.85610  0.48940  0.69030  Biso   1.000  H
  C789     1.0000 0.83970  0.63171  0.65659  Biso   1.000  C
  H501     1.0000 0.83720  0.63820  0.67880  Biso   1.000  H
  O200     1.0000 0.87407  0.96400  0.32607  Biso   1.000  O
  C790     1.0000 0.86267  0.97148  0.23680  Biso   1.000  C
  H502     1.0000 0.86390  0.94900  0.23060  Biso   1.000  H
  C791     1.0000 0.85754  0.99561  0.21271  Biso   1.000  C
  H503     1.0000 0.85610  0.98940  0.19030  Biso   1.000  H
  C792     1.0000 0.83970  0.13171  0.15659  Biso   1.000  C
  H504     1.0000 0.83720  0.13820  0.17880  Biso   1.000  H
  O201     1.0000 0.37593  0.96400  0.92393  Biso   1.000  O
  C793     1.0000 0.38733  0.97148  0.01320  Biso   1.000  C
  H505     1.0000 0.38610  0.94900  0.01940  Biso   1.000  H
  C794     1.0000 0.39246  0.99561  0.03729  Biso   1.000  C
  H506     1.0000 0.39390  0.98940  0.05970  Biso   1.000  H
  C795     1.0000 0.41030  0.13171  0.09341  Biso   1.000  C
  H507     1.0000 0.41280  0.13820  0.07120  Biso   1.000  H
  O202     1.0000 0.37593  0.46400  0.42393  Biso   1.000  O
  C796     1.0000 0.38733  0.47148  0.51320  Biso   1.000  C
  H508     1.0000 0.38610  0.44900  0.51940  Biso   1.000  H
  C797     1.0000 0.39246  0.49561  0.53729  Biso   1.000  C
  H509     1.0000 0.39390  0.48940  0.55970  Biso   1.000  H
  C798     1.0000 0.41030  0.63171  0.59341  Biso   1.000  C
  H510     1.0000 0.41280  0.63820  0.57120  Biso   1.000  H
  O203     1.0000 0.87593  0.96400  0.42393  Biso   1.000  O
  C799     1.0000 0.88733  0.97148  0.51320  Biso   1.000  C
  H511     1.0000 0.88610  0.94900  0.51940  Biso   1.000  H
  C800     1.0000 0.89246  0.99561  0.53729  Biso   1.000  C
  H512     1.0000 0.89390  0.98940  0.55970  Biso   1.000  H
  C801     1.0000 0.91030  0.13171  0.59341  Biso   1.000  C
  H513     1.0000 0.91280  0.13820  0.57120  Biso   1.000  H
  O204     1.0000 0.87593  0.46400  0.92393  Biso   1.000  O
  C802     1.0000 0.88733  0.47148  0.01320  Biso   1.000  C
  H514     1.0000 0.88610  0.44900  0.01940  Biso   1.000  H
  C803     1.0000 0.89246  0.49561  0.03729  Biso   1.000  C
  H515     1.0000 0.89390  0.48940  0.05970  Biso   1.000  H
  C804     1.0000 0.91030  0.63171  0.09341  Biso   1.000  C
  H516     1.0000 0.91280  0.63820  0.07120  Biso   1.000  H
  O205     1.0000 0.87593  0.28600  0.82607  Biso   1.000  O
  C805     1.0000 0.88733  0.27852  0.73680  Biso   1.000  C
  H517     1.0000 0.88610  0.30100  0.73060  Biso   1.000  H
  C806     1.0000 0.89246  0.25439  0.71271  Biso   1.000  C
  H518     1.0000 0.89390  0.26060  0.69030  Biso   1.000  H
  C807     1.0000 0.91030  0.11829  0.65659  Biso   1.000  C
  H519     1.0000 0.91280  0.11180  0.67880  Biso   1.000  H
  O206     1.0000 0.87593  0.78600  0.32607  Biso   1.000  O
  C808     1.0000 0.88733  0.77852  0.23680  Biso   1.000  C
  H520     1.0000 0.88610  0.80100  0.23060  Biso   1.000  H
  C809     1.0000 0.89246  0.75439  0.21271  Biso   1.000  C
  H521     1.0000 0.89390  0.76060  0.19030  Biso   1.000  H
  C810     1.0000 0.91030  0.61829  0.15659  Biso   1.000  C
  H522     1.0000 0.91280  0.61180  0.17880  Biso   1.000  H
  O207     1.0000 0.37593  0.28600  0.32607  Biso   1.000  O
  C811     1.0000 0.38733  0.27852  0.23680  Biso   1.000  C
  H523     1.0000 0.38610  0.30100  0.23060  Biso   1.000  H
  C812     1.0000 0.39246  0.25439  0.21271  Biso   1.000  C
  H524     1.0000 0.39390  0.26060  0.19030  Biso   1.000  H
  C813     1.0000 0.41030  0.11829  0.15659  Biso   1.000  C
  H525     1.0000 0.41280  0.11180  0.17880  Biso   1.000  H
  O208     1.0000 0.37593  0.78600  0.82607  Biso   1.000  O
  C814     1.0000 0.38733  0.77852  0.73680  Biso   1.000  C
  H526     1.0000 0.38610  0.80100  0.73060  Biso   1.000  H
  C815     1.0000 0.39246  0.75439  0.71271  Biso   1.000  C
  H527     1.0000 0.39390  0.76060  0.69030  Biso   1.000  H
  C816     1.0000 0.41030  0.61829  0.65659  Biso   1.000  C
  H528     1.0000 0.41280  0.61180  0.67880  Biso   1.000  H
  O209     1.0000 0.42393  0.87407  0.78600  Biso   1.000  O
  C817     1.0000 0.51320  0.86267  0.77852  Biso   1.000  C
  H529     1.0000 0.51940  0.86390  0.80100  Biso   1.000  H
  C818     1.0000 0.53729  0.85754  0.75439  Biso   1.000  C
  H530     1.0000 0.55970  0.85610  0.76060  Biso   1.000  H
  C819     1.0000 0.59341  0.83970  0.61829  Biso   1.000  C
  H531     1.0000 0.57120  0.83720  0.61180  Biso   1.000  H
  O210     1.0000 0.42393  0.37407  0.28600  Biso   1.000  O
  C820     1.0000 0.51320  0.36267  0.27852  Biso   1.000  C
  H532     1.0000 0.51940  0.36390  0.30100  Biso   1.000  H
  C821     1.0000 0.53729  0.35754  0.25439  Biso   1.000  C
  H533     1.0000 0.55970  0.35610  0.26060  Biso   1.000  H
  C822     1.0000 0.59341  0.33970  0.11829  Biso   1.000  C
  H534     1.0000 0.57120  0.33720  0.11180  Biso   1.000  H
  O211     1.0000 0.92393  0.87407  0.28600  Biso   1.000  O
  C823     1.0000 0.01320  0.86267  0.27852  Biso   1.000  C
  H535     1.0000 0.01940  0.86390  0.30100  Biso   1.000  H
  C824     1.0000 0.03729  0.85754  0.25439  Biso   1.000  C
  H536     1.0000 0.05970  0.85610  0.26060  Biso   1.000  H
  C825     1.0000 0.09341  0.83970  0.11829  Biso   1.000  C
  H537     1.0000 0.07120  0.83720  0.11180  Biso   1.000  H
  O212     1.0000 0.92393  0.37407  0.78600  Biso   1.000  O
  C826     1.0000 0.01320  0.36267  0.77852  Biso   1.000  C
  H538     1.0000 0.01940  0.36390  0.80100  Biso   1.000  H
  C827     1.0000 0.03729  0.35754  0.75439  Biso   1.000  C
  H539     1.0000 0.05970  0.35610  0.76060  Biso   1.000  H
  C828     1.0000 0.09341  0.33970  0.61829  Biso   1.000  C
  H540     1.0000 0.07120  0.33720  0.61180  Biso   1.000  H
  O213     1.0000 0.32607  0.37407  0.46400  Biso   1.000  O
  C829     1.0000 0.23680  0.36267  0.47148  Biso   1.000  C
  H541     1.0000 0.23060  0.36390  0.44900  Biso   1.000  H
  C830     1.0000 0.21271  0.35754  0.49561  Biso   1.000  C
  H542     1.0000 0.19030  0.35610  0.48940  Biso   1.000  H
  C831     1.0000 0.15659  0.33970  0.63171  Biso   1.000  C
  H543     1.0000 0.17880  0.33720  0.63820  Biso   1.000  H
  O214     1.0000 0.32607  0.87407  0.96400  Biso   1.000  O
  C832     1.0000 0.23680  0.86267  0.97148  Biso   1.000  C
  H544     1.0000 0.23060  0.86390  0.94900  Biso   1.000  H
  C833     1.0000 0.21271  0.85754  0.99561  Biso   1.000  C
  H545     1.0000 0.19030  0.85610  0.98940  Biso   1.000  H
  C834     1.0000 0.15659  0.83970  0.13171  Biso   1.000  C
  H546     1.0000 0.17880  0.83720  0.13820  Biso   1.000  H
  O215     1.0000 0.82607  0.37407  0.96400  Biso   1.000  O
  C835     1.0000 0.73680  0.36267  0.97148  Biso   1.000  C
  H547     1.0000 0.73060  0.36390  0.94900  Biso   1.000  H
  C836     1.0000 0.71271  0.35754  0.99561  Biso   1.000  C
  H548     1.0000 0.69030  0.35610  0.98940  Biso   1.000  H
  C837     1.0000 0.65659  0.33970  0.13171  Biso   1.000  C
  H549     1.0000 0.67880  0.33720  0.13820  Biso   1.000  H
  O216     1.0000 0.82607  0.87407  0.46400  Biso   1.000  O
  C838     1.0000 0.73680  0.86267  0.47148  Biso   1.000  C
  H550     1.0000 0.73060  0.86390  0.44900  Biso   1.000  H
  C839     1.0000 0.71271  0.85754  0.49561  Biso   1.000  C
  H551     1.0000 0.69030  0.85610  0.48940  Biso   1.000  H
  C840     1.0000 0.65659  0.83970  0.63171  Biso   1.000  C
  H552     1.0000 0.67880  0.83720  0.63820  Biso   1.000  H
  O217     1.0000 0.92393  0.37593  0.96400  Biso   1.000  O
  C841     1.0000 0.01320  0.38733  0.97148  Biso   1.000  C
  H553     1.0000 0.01940  0.38610  0.94900  Biso   1.000  H
  C842     1.0000 0.03729  0.39246  0.99561  Biso   1.000  C
  H554     1.0000 0.05970  0.39390  0.98940  Biso   1.000  H
  C843     1.0000 0.09341  0.41030  0.13171  Biso   1.000  C
  H555     1.0000 0.07120  0.41280  0.13820  Biso   1.000  H
  O218     1.0000 0.92393  0.87593  0.46400  Biso   1.000  O
  C844     1.0000 0.01320  0.88733  0.47148  Biso   1.000  C
  H556     1.0000 0.01940  0.88610  0.44900  Biso   1.000  H
  C845     1.0000 0.03729  0.89246  0.49561  Biso   1.000  C
  H557     1.0000 0.05970  0.89390  0.48940  Biso   1.000  H
  C846     1.0000 0.09341  0.91030  0.63171  Biso   1.000  C
  H558     1.0000 0.07120  0.91280  0.63820  Biso   1.000  H
  O219     1.0000 0.42393  0.37593  0.46400  Biso   1.000  O
  C847     1.0000 0.51320  0.38733  0.47148  Biso   1.000  C
  H559     1.0000 0.51940  0.38610  0.44900  Biso   1.000  H
  C848     1.0000 0.53729  0.39246  0.49561  Biso   1.000  C
  H560     1.0000 0.55970  0.39390  0.48940  Biso   1.000  H
  C849     1.0000 0.59341  0.41030  0.63171  Biso   1.000  C
  H561     1.0000 0.57120  0.41280  0.63820  Biso   1.000  H
  O220     1.0000 0.42393  0.87593  0.96400  Biso   1.000  O
  C850     1.0000 0.51320  0.88733  0.97148  Biso   1.000  C
  H562     1.0000 0.51940  0.88610  0.94900  Biso   1.000  H
  C851     1.0000 0.53729  0.89246  0.99561  Biso   1.000  C
  H563     1.0000 0.55970  0.89390  0.98940  Biso   1.000  H
  C852     1.0000 0.59341  0.91030  0.13171  Biso   1.000  C
  H564     1.0000 0.57120  0.91280  0.13820  Biso   1.000  H
  O221     1.0000 0.82607  0.87593  0.28600  Biso   1.000  O
  C853     1.0000 0.73680  0.88733  0.27852  Biso   1.000  C
  H565     1.0000 0.73060  0.88610  0.30100  Biso   1.000  H
  C854     1.0000 0.71271  0.89246  0.25439  Biso   1.000  C
  H566     1.0000 0.69030  0.89390  0.26060  Biso   1.000  H
  C855     1.0000 0.65659  0.91030  0.11829  Biso   1.000  C
  H567     1.0000 0.67880  0.91280  0.11180  Biso   1.000  H
  O222     1.0000 0.82607  0.37593  0.78600  Biso   1.000  O
  C856     1.0000 0.73680  0.38733  0.77852  Biso   1.000  C
  H568     1.0000 0.73060  0.38610  0.80100  Biso   1.000  H
  C857     1.0000 0.71271  0.39246  0.75439  Biso   1.000  C
  H569     1.0000 0.69030  0.39390  0.76060  Biso   1.000  H
  C858     1.0000 0.65659  0.41030  0.61829  Biso   1.000  C
  H570     1.0000 0.67880  0.41280  0.61180  Biso   1.000  H
  O223     1.0000 0.32607  0.87593  0.78600  Biso   1.000  O
  C859     1.0000 0.23680  0.88733  0.77852  Biso   1.000  C
  H571     1.0000 0.23060  0.88610  0.80100  Biso   1.000  H
  C860     1.0000 0.21271  0.89246  0.75439  Biso   1.000  C
  H572     1.0000 0.19030  0.89390  0.76060  Biso   1.000  H
  C861     1.0000 0.15659  0.91030  0.61829  Biso   1.000  C
  H573     1.0000 0.17880  0.91280  0.61180  Biso   1.000  H
  O224     1.0000 0.32607  0.37593  0.28600  Biso   1.000  O
  C862     1.0000 0.23680  0.38733  0.27852  Biso   1.000  C
  H574     1.0000 0.23060  0.38610  0.30100  Biso   1.000  H
  C863     1.0000 0.21271  0.39246  0.25439  Biso   1.000  C
  H575     1.0000 0.19030  0.39390  0.26060  Biso   1.000  H
  C864     1.0000 0.15659  0.41030  0.11829  Biso   1.000  C
  H576     1.0000 0.17880  0.41280  0.11180  Biso   1.000  H
  Zr25     1.0000 0.37500  0.43719  0.37500  Biso   1.000  Zr
  Zr26     1.0000 0.37500  0.81281  0.87500  Biso   1.000  Zr
  Zr27     1.0000 0.37500  0.31281  0.37500  Biso   1.000  Zr
  Zr28     1.0000 0.87500  0.31281  0.87500  Biso   1.000  Zr
  Zr29     1.0000 0.87500  0.93719  0.37500  Biso   1.000  Zr
  Zr30     1.0000 0.87500  0.43719  0.87500  Biso   1.000  Zr
  Zr31     1.0000 0.93719  0.37500  0.87500  Biso   1.000  Zr
  Zr32     1.0000 0.31281  0.87500  0.87500  Biso   1.000  Zr
  Zr33     1.0000 0.31281  0.37500  0.37500  Biso   1.000  Zr
  Zr34     1.0000 0.81281  0.87500  0.37500  Biso   1.000  Zr
  Zr35     1.0000 0.43719  0.37500  0.37500  Biso   1.000  Zr
  Zr36     1.0000 0.43719  0.87500  0.87500  Biso   1.000  Zr
  Zr37     1.0000 0.87500  0.87500  0.31281  Biso   1.000  Zr
  Zr38     1.0000 0.37500  0.87500  0.93719  Biso   1.000  Zr
  Zr39     1.0000 0.37500  0.37500  0.43719  Biso   1.000  Zr
  Zr40     1.0000 0.87500  0.37500  0.81281  Biso   1.000  Zr
  Zr41     1.0000 0.81281  0.37500  0.87500  Biso   1.000  Zr
  Zr42     1.0000 0.93719  0.87500  0.37500  Biso   1.000  Zr
  Zr43     1.0000 0.87500  0.81281  0.37500  Biso   1.000  Zr
  Zr44     1.0000 0.37500  0.93719  0.87500  Biso   1.000  Zr
  Zr45     1.0000 0.37500  0.87500  0.81281  Biso   1.000  Zr
  Zr46     1.0000 0.37500  0.37500  0.31281  Biso   1.000  Zr
  Zr47     1.0000 0.87500  0.37500  0.93719  Biso   1.000  Zr
  Zr48     1.0000 0.87500  0.87500  0.43719  Biso   1.000  Zr
  O225     1.0000 0.34735  0.40265  0.34735  Biso   1.000  O
  O226     1.0000 0.40265  0.84735  0.84735  Biso   1.000  O
  O227     1.0000 0.84735  0.34735  0.90265  Biso   1.000  O
  O228     1.0000 0.90265  0.90265  0.40265  Biso   1.000  O
  O229     1.0000 0.90265  0.40265  0.90265  Biso   1.000  O
  O230     1.0000 0.34735  0.90265  0.84735  Biso   1.000  O
  O231     1.0000 0.84735  0.84735  0.40265  Biso   1.000  O
  O232     1.0000 0.40265  0.34735  0.34735  Biso   1.000  O
  O233     1.0000 0.90265  0.84735  0.34735  Biso   1.000  O
  O234     1.0000 0.40265  0.90265  0.90265  Biso   1.000  O
  O235     1.0000 0.40265  0.40265  0.40265  Biso   1.000  O
  O236     1.0000 0.34735  0.34735  0.40265  Biso   1.000  O
  O237     1.0000 0.84735  0.40265  0.84735  Biso   1.000  O
  O238     1.0000 0.34735  0.84735  0.90265  Biso   1.000  O
  O239     1.0000 0.90265  0.34735  0.84735  Biso   1.000  O
  O240     1.0000 0.84735  0.90265  0.34735  Biso   1.000  O
  C865     1.0000 0.22134  0.52866  0.35452  Biso   1.000  C
  C866     1.0000 0.19576  0.55424  0.34936  Biso   1.000  C
  C867     1.0000 0.17525  0.57475  0.34475  Biso   1.000  C
  C868     1.0000 0.14988  0.60012  0.34296  Biso   1.000  C
  C869     1.0000 0.29621  0.45379  0.37167  Biso   1.000  C
  C870     1.0000 0.26981  0.48019  0.36592  Biso   1.000  C
  C871     1.0000 0.22134  0.02866  0.85452  Biso   1.000  C
  C872     1.0000 0.19576  0.05424  0.84936  Biso   1.000  C
  C873     1.0000 0.17525  0.07475  0.84475  Biso   1.000  C
  C874     1.0000 0.14988  0.10012  0.84296  Biso   1.000  C
  C875     1.0000 0.29621  0.95379  0.87167  Biso   1.000  C
  C876     1.0000 0.26981  0.98019  0.86592  Biso   1.000  C
  C877     1.0000 0.52866  0.72134  0.85452  Biso   1.000  C
  C878     1.0000 0.55424  0.69576  0.84936  Biso   1.000  C
  C879     1.0000 0.57475  0.67525  0.84475  Biso   1.000  C
  C880     1.0000 0.60012  0.64988  0.84296  Biso   1.000  C
  C881     1.0000 0.45379  0.79621  0.87167  Biso   1.000  C
  C882     1.0000 0.48019  0.76981  0.86592  Biso   1.000  C
  C883     1.0000 0.02866  0.72134  0.35452  Biso   1.000  C
  C884     1.0000 0.05424  0.69576  0.34936  Biso   1.000  C
  C885     1.0000 0.07475  0.67525  0.34475  Biso   1.000  C
  C886     1.0000 0.10012  0.64988  0.34296  Biso   1.000  C
  C887     1.0000 0.95379  0.79621  0.37167  Biso   1.000  C
  C888     1.0000 0.98019  0.76981  0.36592  Biso   1.000  C
  C889     1.0000 0.72134  0.22134  0.89548  Biso   1.000  C
  C890     1.0000 0.69576  0.19576  0.90064  Biso   1.000  C
  C891     1.0000 0.67525  0.17525  0.90525  Biso   1.000  C
  C892     1.0000 0.64988  0.14988  0.90704  Biso   1.000  C
  C893     1.0000 0.79621  0.29621  0.87833  Biso   1.000  C
  C894     1.0000 0.76981  0.26981  0.88408  Biso   1.000  C
  C895     1.0000 0.72134  0.72134  0.39548  Biso   1.000  C
  C896     1.0000 0.69576  0.69576  0.40064  Biso   1.000  C
  C897     1.0000 0.67525  0.67525  0.40525  Biso   1.000  C
  C898     1.0000 0.64988  0.64988  0.40704  Biso   1.000  C
  C899     1.0000 0.79621  0.79621  0.37833  Biso   1.000  C
  C900     1.0000 0.76981  0.76981  0.38408  Biso   1.000  C
  C901     1.0000 0.02866  0.02866  0.39548  Biso   1.000  C
  C902     1.0000 0.05424  0.05424  0.40064  Biso   1.000  C
  C903     1.0000 0.07475  0.07475  0.40525  Biso   1.000  C
  C904     1.0000 0.10012  0.10012  0.40704  Biso   1.000  C
  C905     1.0000 0.95379  0.95379  0.37833  Biso   1.000  C
  C906     1.0000 0.98019  0.98019  0.38408  Biso   1.000  C
  C907     1.0000 0.02866  0.52866  0.89548  Biso   1.000  C
  C908     1.0000 0.05424  0.55424  0.90064  Biso   1.000  C
  C909     1.0000 0.07475  0.57475  0.90525  Biso   1.000  C
  C910     1.0000 0.10012  0.60012  0.90704  Biso   1.000  C
  C911     1.0000 0.95379  0.45379  0.87833  Biso   1.000  C
  C912     1.0000 0.98019  0.48019  0.88408  Biso   1.000  C
  C913     1.0000 0.52866  0.02866  0.89548  Biso   1.000  C
  C914     1.0000 0.55424  0.05424  0.90064  Biso   1.000  C
  C915     1.0000 0.57475  0.07475  0.90525  Biso   1.000  C
  C916     1.0000 0.60012  0.10012  0.90704  Biso   1.000  C
  C917     1.0000 0.45379  0.95379  0.87833  Biso   1.000  C
  C918     1.0000 0.48019  0.98019  0.88408  Biso   1.000  C
  C919     1.0000 0.52866  0.52866  0.39548  Biso   1.000  C
  C920     1.0000 0.55424  0.55424  0.40064  Biso   1.000  C
  C921     1.0000 0.57475  0.57475  0.40525  Biso   1.000  C
  C922     1.0000 0.60012  0.60012  0.40704  Biso   1.000  C
  C923     1.0000 0.45379  0.45379  0.37833  Biso   1.000  C
  C924     1.0000 0.48019  0.48019  0.38408  Biso   1.000  C
  C925     1.0000 0.02866  0.39548  0.02866  Biso   1.000  C
  C926     1.0000 0.05424  0.40064  0.05424  Biso   1.000  C
  C927     1.0000 0.07475  0.40525  0.07475  Biso   1.000  C
  C928     1.0000 0.10012  0.40704  0.10012  Biso   1.000  C
  C929     1.0000 0.95379  0.37833  0.95379  Biso   1.000  C
  C930     1.0000 0.98019  0.38408  0.98019  Biso   1.000  C
  C931     1.0000 0.02866  0.89548  0.52866  Biso   1.000  C
  C932     1.0000 0.05424  0.90064  0.55424  Biso   1.000  C
  C933     1.0000 0.07475  0.90525  0.57475  Biso   1.000  C
  C934     1.0000 0.10012  0.90704  0.60012  Biso   1.000  C
  C935     1.0000 0.95379  0.87833  0.45379  Biso   1.000  C
  C936     1.0000 0.98019  0.88408  0.48019  Biso   1.000  C
  C937     1.0000 0.52866  0.39548  0.52866  Biso   1.000  C
  C938     1.0000 0.55424  0.40064  0.55424  Biso   1.000  C
  C939     1.0000 0.57475  0.40525  0.57475  Biso   1.000  C
  C940     1.0000 0.60012  0.40704  0.60012  Biso   1.000  C
  C941     1.0000 0.45379  0.37833  0.45379  Biso   1.000  C
  C942     1.0000 0.48019  0.38408  0.48019  Biso   1.000  C
  C943     1.0000 0.52866  0.89548  0.02866  Biso   1.000  C
  C944     1.0000 0.55424  0.90064  0.05424  Biso   1.000  C
  C945     1.0000 0.57475  0.90525  0.07475  Biso   1.000  C
  C946     1.0000 0.60012  0.90704  0.10012  Biso   1.000  C
  C947     1.0000 0.45379  0.87833  0.95379  Biso   1.000  C
  C948     1.0000 0.48019  0.88408  0.98019  Biso   1.000  C
  C949     1.0000 0.22134  0.89548  0.72134  Biso   1.000  C
  C950     1.0000 0.19576  0.90064  0.69576  Biso   1.000  C
  C951     1.0000 0.17525  0.90525  0.67525  Biso   1.000  C
  C952     1.0000 0.14988  0.90704  0.64988  Biso   1.000  C
  C953     1.0000 0.29621  0.87833  0.79621  Biso   1.000  C
  C954     1.0000 0.26981  0.88408  0.76981  Biso   1.000  C
  C955     1.0000 0.22134  0.39548  0.22134  Biso   1.000  C
  C956     1.0000 0.19576  0.40064  0.19576  Biso   1.000  C
  C957     1.0000 0.17525  0.40525  0.17525  Biso   1.000  C
  C958     1.0000 0.14988  0.40704  0.14988  Biso   1.000  C
  C959     1.0000 0.29621  0.37833  0.29621  Biso   1.000  C
  C960     1.0000 0.26981  0.38408  0.26981  Biso   1.000  C
  C961     1.0000 0.72134  0.39548  0.72134  Biso   1.000  C
  C962     1.0000 0.69576  0.40064  0.69576  Biso   1.000  C
  C963     1.0000 0.67525  0.40525  0.67525  Biso   1.000  C
  C964     1.0000 0.64988  0.40704  0.64988  Biso   1.000  C
  C965     1.0000 0.79621  0.37833  0.79621  Biso   1.000  C
  C966     1.0000 0.76981  0.38408  0.76981  Biso   1.000  C
  C967     1.0000 0.72134  0.85452  0.52866  Biso   1.000  C
  C968     1.0000 0.69576  0.84936  0.55424  Biso   1.000  C
  C969     1.0000 0.67525  0.84475  0.57475  Biso   1.000  C
  C970     1.0000 0.64988  0.84296  0.60012  Biso   1.000  C
  C971     1.0000 0.79621  0.87167  0.45379  Biso   1.000  C
  C972     1.0000 0.76981  0.86592  0.48019  Biso   1.000  C
  C973     1.0000 0.72134  0.35452  0.02866  Biso   1.000  C
  C974     1.0000 0.69576  0.34936  0.05424  Biso   1.000  C
  C975     1.0000 0.67525  0.34475  0.07475  Biso   1.000  C
  C976     1.0000 0.64988  0.34296  0.10012  Biso   1.000  C
  C977     1.0000 0.79621  0.37167  0.95379  Biso   1.000  C
  C978     1.0000 0.76981  0.36592  0.98019  Biso   1.000  C
  C979     1.0000 0.52866  0.35452  0.22134  Biso   1.000  C
  C980     1.0000 0.55424  0.34936  0.19576  Biso   1.000  C
  C981     1.0000 0.57475  0.34475  0.17525  Biso   1.000  C
  C982     1.0000 0.60012  0.34296  0.14988  Biso   1.000  C
  C983     1.0000 0.45379  0.37167  0.29621  Biso   1.000  C
  C984     1.0000 0.48019  0.36592  0.26981  Biso   1.000  C
  C985     1.0000 0.02866  0.35452  0.72134  Biso   1.000  C
  C986     1.0000 0.05424  0.34936  0.69576  Biso   1.000  C
  C987     1.0000 0.07475  0.34475  0.67525  Biso   1.000  C
  C988     1.0000 0.10012  0.34296  0.64988  Biso   1.000  C
  C989     1.0000 0.95379  0.37167  0.79621  Biso   1.000  C
  C990     1.0000 0.98019  0.36592  0.76981  Biso   1.000  C
  C991     1.0000 0.89548  0.72134  0.22134  Biso   1.000  C
  C992     1.0000 0.90064  0.69576  0.19576  Biso   1.000  C
  C993     1.0000 0.90525  0.67525  0.17525  Biso   1.000  C
  C994     1.0000 0.90704  0.64988  0.14988  Biso   1.000  C
  C995     1.0000 0.87833  0.79621  0.29621  Biso   1.000  C
  C996     1.0000 0.88408  0.76981  0.26981  Biso   1.000  C
  C997     1.0000 0.39548  0.72134  0.72134  Biso   1.000  C
  C998     1.0000 0.40064  0.69576  0.69576  Biso   1.000  C
  C999     1.0000 0.40525  0.67525  0.67525  Biso   1.000  C
  C1000    1.0000 0.40704  0.64988  0.64988  Biso   1.000  C
  C1001    1.0000 0.37833  0.79621  0.79621  Biso   1.000  C
  C1002    1.0000 0.38408  0.76981  0.76981  Biso   1.000  C
  C1003    1.0000 0.39548  0.02866  0.02866  Biso   1.000  C
  C1004    1.0000 0.40064  0.05424  0.05424  Biso   1.000  C
  C1005    1.0000 0.40525  0.07475  0.07475  Biso   1.000  C
  C1006    1.0000 0.40704  0.10012  0.10012  Biso   1.000  C
  C1007    1.0000 0.37833  0.95379  0.95379  Biso   1.000  C
  C1008    1.0000 0.38408  0.98019  0.98019  Biso   1.000  C
  C1009    1.0000 0.39548  0.52866  0.52866  Biso   1.000  C
  C1010    1.0000 0.40064  0.55424  0.55424  Biso   1.000  C
  C1011    1.0000 0.40525  0.57475  0.57475  Biso   1.000  C
  C1012    1.0000 0.40704  0.60012  0.60012  Biso   1.000  C
  C1013    1.0000 0.37833  0.45379  0.45379  Biso   1.000  C
  C1014    1.0000 0.38408  0.48019  0.48019  Biso   1.000  C
  C1015    1.0000 0.89548  0.02866  0.52866  Biso   1.000  C
  C1016    1.0000 0.90064  0.05424  0.55424  Biso   1.000  C
  C1017    1.0000 0.90525  0.07475  0.57475  Biso   1.000  C
  C1018    1.0000 0.90704  0.10012  0.60012  Biso   1.000  C
  C1019    1.0000 0.87833  0.95379  0.45379  Biso   1.000  C
  C1020    1.0000 0.88408  0.98019  0.48019  Biso   1.000  C
  C1021    1.0000 0.89548  0.52866  0.02866  Biso   1.000  C
  C1022    1.0000 0.90064  0.55424  0.05424  Biso   1.000  C
  C1023    1.0000 0.90525  0.57475  0.07475  Biso   1.000  C
  C1024    1.0000 0.90704  0.60012  0.10012  Biso   1.000  C
  C1025    1.0000 0.87833  0.45379  0.95379  Biso   1.000  C
  C1026    1.0000 0.88408  0.48019  0.98019  Biso   1.000  C
  C1027    1.0000 0.35452  0.22134  0.52866  Biso   1.000  C
  C1028    1.0000 0.34936  0.19576  0.55424  Biso   1.000  C
  C1029    1.0000 0.34475  0.17525  0.57475  Biso   1.000  C
  C1030    1.0000 0.34296  0.14988  0.60012  Biso   1.000  C
  C1031    1.0000 0.37167  0.29621  0.45379  Biso   1.000  C
  C1032    1.0000 0.36592  0.26981  0.48019  Biso   1.000  C
  C1033    1.0000 0.35452  0.72134  0.02866  Biso   1.000  C
  C1034    1.0000 0.34936  0.69576  0.05424  Biso   1.000  C
  C1035    1.0000 0.34475  0.67525  0.07475  Biso   1.000  C
  C1036    1.0000 0.34296  0.64988  0.10012  Biso   1.000  C
  C1037    1.0000 0.37167  0.79621  0.95379  Biso   1.000  C
  C1038    1.0000 0.36592  0.76981  0.98019  Biso   1.000  C
  C1039    1.0000 0.85452  0.52866  0.72134  Biso   1.000  C
  C1040    1.0000 0.84936  0.55424  0.69576  Biso   1.000  C
  C1041    1.0000 0.84475  0.57475  0.67525  Biso   1.000  C
  C1042    1.0000 0.84296  0.60012  0.64988  Biso   1.000  C
  C1043    1.0000 0.87167  0.45379  0.79621  Biso   1.000  C
  C1044    1.0000 0.86592  0.48019  0.76981  Biso   1.000  C
  C1045    1.0000 0.85452  0.02866  0.22134  Biso   1.000  C
  C1046    1.0000 0.84936  0.05424  0.19576  Biso   1.000  C
  C1047    1.0000 0.84475  0.07475  0.17525  Biso   1.000  C
  C1048    1.0000 0.84296  0.10012  0.14988  Biso   1.000  C
  C1049    1.0000 0.87167  0.95379  0.29621  Biso   1.000  C
  C1050    1.0000 0.86592  0.98019  0.26981  Biso   1.000  C
  C1051    1.0000 0.72134  0.52866  0.85452  Biso   1.000  C
  C1052    1.0000 0.69576  0.55424  0.84936  Biso   1.000  C
  C1053    1.0000 0.67525  0.57475  0.84475  Biso   1.000  C
  C1054    1.0000 0.64988  0.60012  0.84296  Biso   1.000  C
  C1055    1.0000 0.79621  0.45379  0.87167  Biso   1.000  C
  C1056    1.0000 0.76981  0.48019  0.86592  Biso   1.000  C
  C1057    1.0000 0.72134  0.02866  0.35452  Biso   1.000  C
  C1058    1.0000 0.69576  0.05424  0.34936  Biso   1.000  C
  C1059    1.0000 0.67525  0.07475  0.34475  Biso   1.000  C
  C1060    1.0000 0.64988  0.10012  0.34296  Biso   1.000  C
  C1061    1.0000 0.79621  0.95379  0.37167  Biso   1.000  C
  C1062    1.0000 0.76981  0.98019  0.36592  Biso   1.000  C
  C1063    1.0000 0.52866  0.22134  0.35452  Biso   1.000  C
  C1064    1.0000 0.55424  0.19576  0.34936  Biso   1.000  C
  C1065    1.0000 0.57475  0.17525  0.34475  Biso   1.000  C
  C1066    1.0000 0.60012  0.14988  0.34296  Biso   1.000  C
  C1067    1.0000 0.45379  0.29621  0.37167  Biso   1.000  C
  C1068    1.0000 0.48019  0.26981  0.36592  Biso   1.000  C
  C1069    1.0000 0.02866  0.22134  0.85452  Biso   1.000  C
  C1070    1.0000 0.05424  0.19576  0.84936  Biso   1.000  C
  C1071    1.0000 0.07475  0.17525  0.84475  Biso   1.000  C
  C1072    1.0000 0.10012  0.14988  0.84296  Biso   1.000  C
  C1073    1.0000 0.95379  0.29621  0.87167  Biso   1.000  C
  C1074    1.0000 0.98019  0.26981  0.86592  Biso   1.000  C
  C1075    1.0000 0.22134  0.72134  0.89548  Biso   1.000  C
  C1076    1.0000 0.19576  0.69576  0.90064  Biso   1.000  C
  C1077    1.0000 0.17525  0.67525  0.90525  Biso   1.000  C
  C1078    1.0000 0.14988  0.64988  0.90704  Biso   1.000  C
  C1079    1.0000 0.29621  0.79621  0.87833  Biso   1.000  C
  C1080    1.0000 0.26981  0.76981  0.88408  Biso   1.000  C
  C1081    1.0000 0.22134  0.22134  0.39548  Biso   1.000  C
  C1082    1.0000 0.19576  0.19576  0.40064  Biso   1.000  C
  C1083    1.0000 0.17525  0.17525  0.40525  Biso   1.000  C
  C1084    1.0000 0.14988  0.14988  0.40704  Biso   1.000  C
  C1085    1.0000 0.29621  0.29621  0.37833  Biso   1.000  C
  C1086    1.0000 0.26981  0.26981  0.38408  Biso   1.000  C
  C1087    1.0000 0.85452  0.72134  0.52866  Biso   1.000  C
  C1088    1.0000 0.84936  0.69576  0.55424  Biso   1.000  C
  C1089    1.0000 0.84475  0.67525  0.57475  Biso   1.000  C
  C1090    1.0000 0.84296  0.64988  0.60012  Biso   1.000  C
  C1091    1.0000 0.87167  0.79621  0.45379  Biso   1.000  C
  C1092    1.0000 0.86592  0.76981  0.48019  Biso   1.000  C
  C1093    1.0000 0.85452  0.22134  0.02866  Biso   1.000  C
  C1094    1.0000 0.84936  0.19576  0.05424  Biso   1.000  C
  C1095    1.0000 0.84475  0.17525  0.07475  Biso   1.000  C
  C1096    1.0000 0.84296  0.14988  0.10012  Biso   1.000  C
  C1097    1.0000 0.87167  0.29621  0.95379  Biso   1.000  C
  C1098    1.0000 0.86592  0.26981  0.98019  Biso   1.000  C
  C1099    1.0000 0.35452  0.52866  0.22134  Biso   1.000  C
  C1100    1.0000 0.34936  0.55424  0.19576  Biso   1.000  C
  C1101    1.0000 0.34475  0.57475  0.17525  Biso   1.000  C
  C1102    1.0000 0.34296  0.60012  0.14988  Biso   1.000  C
  C1103    1.0000 0.37167  0.45379  0.29621  Biso   1.000  C
  C1104    1.0000 0.36592  0.48019  0.26981  Biso   1.000  C
  C1105    1.0000 0.35452  0.02866  0.72134  Biso   1.000  C
  C1106    1.0000 0.34936  0.05424  0.69576  Biso   1.000  C
  C1107    1.0000 0.34475  0.07475  0.67525  Biso   1.000  C
  C1108    1.0000 0.34296  0.10012  0.64988  Biso   1.000  C
  C1109    1.0000 0.37167  0.95379  0.79621  Biso   1.000  C
  C1110    1.0000 0.36592  0.98019  0.76981  Biso   1.000  C
  C1111    1.0000 0.89548  0.22134  0.72134  Biso   1.000  C
  C1112    1.0000 0.90064  0.19576  0.69576  Biso   1.000  C
  C1113    1.0000 0.90525  0.17525  0.67525  Biso   1.000  C
  C1114    1.0000 0.90704  0.14988  0.64988  Biso   1.000  C
  C1115    1.0000 0.87833  0.29621  0.79621  Biso   1.000  C
  C1116    1.0000 0.88408  0.26981  0.76981  Biso   1.000  C
  C1117    1.0000 0.39548  0.22134  0.22134  Biso   1.000  C
  C1118    1.0000 0.40064  0.19576  0.19576  Biso   1.000  C
  C1119    1.0000 0.40525  0.17525  0.17525  Biso   1.000  C
  C1120    1.0000 0.40704  0.14988  0.14988  Biso   1.000  C
  C1121    1.0000 0.37833  0.29621  0.29621  Biso   1.000  C
  C1122    1.0000 0.38408  0.26981  0.26981  Biso   1.000  C
  C1123    1.0000 0.52866  0.85452  0.72134  Biso   1.000  C
  C1124    1.0000 0.55424  0.84936  0.69576  Biso   1.000  C
  C1125    1.0000 0.57475  0.84475  0.67525  Biso   1.000  C
  C1126    1.0000 0.60012  0.84296  0.64988  Biso   1.000  C
  C1127    1.0000 0.45379  0.87167  0.79621  Biso   1.000  C
  C1128    1.0000 0.48019  0.86592  0.76981  Biso   1.000  C
  C1129    1.0000 0.02866  0.85452  0.22134  Biso   1.000  C
  C1130    1.0000 0.05424  0.84936  0.19576  Biso   1.000  C
  C1131    1.0000 0.07475  0.84475  0.17525  Biso   1.000  C
  C1132    1.0000 0.10012  0.84296  0.14988  Biso   1.000  C
  C1133    1.0000 0.95379  0.87167  0.29621  Biso   1.000  C
  C1134    1.0000 0.98019  0.86592  0.26981  Biso   1.000  C
  C1135    1.0000 0.22134  0.35452  0.52866  Biso   1.000  C
  C1136    1.0000 0.19576  0.34936  0.55424  Biso   1.000  C
  C1137    1.0000 0.17525  0.34475  0.57475  Biso   1.000  C
  C1138    1.0000 0.14988  0.34296  0.60012  Biso   1.000  C
  C1139    1.0000 0.29621  0.37167  0.45379  Biso   1.000  C
  C1140    1.0000 0.26981  0.36592  0.48019  Biso   1.000  C
  C1141    1.0000 0.22134  0.85452  0.02866  Biso   1.000  C
  C1142    1.0000 0.19576  0.84936  0.05424  Biso   1.000  C
  C1143    1.0000 0.17525  0.84475  0.07475  Biso   1.000  C
  C1144    1.0000 0.14988  0.84296  0.10012  Biso   1.000  C
  C1145    1.0000 0.29621  0.87167  0.95379  Biso   1.000  C
  C1146    1.0000 0.26981  0.86592  0.98019  Biso   1.000  C
  C1147    1.0000 0.72134  0.89548  0.22134  Biso   1.000  C
  C1148    1.0000 0.69576  0.90064  0.19576  Biso   1.000  C
  C1149    1.0000 0.67525  0.90525  0.17525  Biso   1.000  C
  C1150    1.0000 0.64988  0.90704  0.14988  Biso   1.000  C
  C1151    1.0000 0.79621  0.87833  0.29621  Biso   1.000  C
  C1152    1.0000 0.76981  0.88408  0.26981  Biso   1.000  C
  O241     1.0000 0.40864  0.40864  0.34136  Biso   1.000  O
  O242     1.0000 0.34136  0.84136  0.84136  Biso   1.000  O
  O243     1.0000 0.34136  0.34136  0.34136  Biso   1.000  O
  O244     1.0000 0.90864  0.34136  0.90864  Biso   1.000  O
  O245     1.0000 0.84136  0.90864  0.40864  Biso   1.000  O
  O246     1.0000 0.34136  0.90864  0.90864  Biso   1.000  O
  O247     1.0000 0.34136  0.40864  0.40864  Biso   1.000  O
  O248     1.0000 0.90864  0.40864  0.84136  Biso   1.000  O
  O249     1.0000 0.90864  0.90864  0.34136  Biso   1.000  O
  O250     1.0000 0.84136  0.84136  0.34136  Biso   1.000  O
  O251     1.0000 0.40864  0.34136  0.40864  Biso   1.000  O
  O252     1.0000 0.40864  0.84136  0.90864  Biso   1.000  O
  O253     1.0000 0.84136  0.34136  0.84136  Biso   1.000  O
  O254     1.0000 0.90864  0.84136  0.40864  Biso   1.000  O
  O255     1.0000 0.40864  0.90864  0.84136  Biso   1.000  O
  O256     1.0000 0.84136  0.40864  0.90864  Biso   1.000  O
