data_image0
_cell_length_a       39.7901
_cell_length_b       39.7901
_cell_length_c       39.7901
_cell_angle_alpha    90
_cell_angle_beta     90
_cell_angle_gamma    90

_symmetry_space_group_name_H-M    "P 1"
_symmetry_int_tables_number       1

loop_
  _symmetry_equiv_pos_as_xyz
  'x, y, z'

loop_
  _atom_site_label
  _atom_site_occupancy
  _atom_site_fract_x
  _atom_site_fract_y
  _atom_site_fract_z
  _atom_site_thermal_displace_type
  _atom_site_B_iso_or_equiv
  _atom_site_type_symbol
  O1       1.0000 0.53554  0.12415  0.07688  Biso   1.000  O
  C1       1.0000 0.48642  0.11396  0.02979  Biso   1.000  C
  C2       1.0000 0.46252  0.10766  0.00539  Biso   1.000  C
  H1       1.0000 0.48020  0.11610  0.05270  Biso   1.000  H
  H2       1.0000 0.43980  0.10420  0.01180  Biso   1.000  H
  C3       1.0000 0.36672  0.09170  0.90835  Biso   1.000  C
  H3       1.0000 0.36050  0.09050  0.93140  Biso   1.000  H
  O2       1.0000 0.53554  0.62415  0.57688  Biso   1.000  O
  C4       1.0000 0.48642  0.61396  0.52979  Biso   1.000  C
  C5       1.0000 0.46252  0.60766  0.50539  Biso   1.000  C
  H4       1.0000 0.48020  0.61610  0.55270  Biso   1.000  H
  H5       1.0000 0.43980  0.60420  0.51180  Biso   1.000  H
  C6       1.0000 0.36672  0.59170  0.40835  Biso   1.000  C
  H6       1.0000 0.36050  0.59050  0.43140  Biso   1.000  H
  O3       1.0000 0.03554  0.12415  0.57688  Biso   1.000  O
  C7       1.0000 0.98642  0.11396  0.52979  Biso   1.000  C
  C8       1.0000 0.96252  0.10766  0.50539  Biso   1.000  C
  H7       1.0000 0.98020  0.11610  0.55270  Biso   1.000  H
  H8       1.0000 0.93980  0.10420  0.51180  Biso   1.000  H
  C9       1.0000 0.86672  0.09170  0.40835  Biso   1.000  C
  H9       1.0000 0.86050  0.09050  0.43140  Biso   1.000  H
  O4       1.0000 0.03554  0.62415  0.07688  Biso   1.000  O
  C10      1.0000 0.98642  0.61396  0.02979  Biso   1.000  C
  C11      1.0000 0.96252  0.60766  0.00539  Biso   1.000  C
  H10      1.0000 0.98020  0.61610  0.05270  Biso   1.000  H
  H11      1.0000 0.93980  0.60420  0.01180  Biso   1.000  H
  C12      1.0000 0.86672  0.59170  0.90835  Biso   1.000  C
  H12      1.0000 0.86050  0.59050  0.93140  Biso   1.000  H
  O5       1.0000 0.21446  0.12585  0.57688  Biso   1.000  O
  C13      1.0000 0.26358  0.13604  0.52979  Biso   1.000  C
  C14      1.0000 0.28748  0.14234  0.50539  Biso   1.000  C
  H13      1.0000 0.26980  0.13390  0.55270  Biso   1.000  H
  H14      1.0000 0.31020  0.14580  0.51180  Biso   1.000  H
  C15      1.0000 0.38328  0.15830  0.40835  Biso   1.000  C
  H15      1.0000 0.38950  0.15950  0.43140  Biso   1.000  H
  O6       1.0000 0.21446  0.62585  0.07688  Biso   1.000  O
  C16      1.0000 0.26358  0.63604  0.02979  Biso   1.000  C
  C17      1.0000 0.28748  0.64234  0.00539  Biso   1.000  C
  H16      1.0000 0.26980  0.63390  0.05270  Biso   1.000  H
  H17      1.0000 0.31020  0.64580  0.01180  Biso   1.000  H
  C18      1.0000 0.38328  0.65830  0.90835  Biso   1.000  C
  H18      1.0000 0.38950  0.65950  0.93140  Biso   1.000  H
  O7       1.0000 0.71446  0.12585  0.07688  Biso   1.000  O
  C19      1.0000 0.76358  0.13604  0.02979  Biso   1.000  C
  C20      1.0000 0.78748  0.14234  0.00539  Biso   1.000  C
  H19      1.0000 0.76980  0.13390  0.05270  Biso   1.000  H
  H20      1.0000 0.81020  0.14580  0.01180  Biso   1.000  H
  C21      1.0000 0.88328  0.15830  0.90835  Biso   1.000  C
  H21      1.0000 0.88950  0.15950  0.93140  Biso   1.000  H
  O8       1.0000 0.71446  0.62585  0.57688  Biso   1.000  O
  C22      1.0000 0.76358  0.63604  0.52979  Biso   1.000  C
  C23      1.0000 0.78748  0.64234  0.50539  Biso   1.000  C
  H22      1.0000 0.76980  0.63390  0.55270  Biso   1.000  H
  H23      1.0000 0.81020  0.64580  0.51180  Biso   1.000  H
  C24      1.0000 0.88328  0.65830  0.40835  Biso   1.000  C
  H24      1.0000 0.88950  0.65950  0.43140  Biso   1.000  H
  O9       1.0000 0.71446  0.62415  0.67312  Biso   1.000  O
  C25      1.0000 0.76358  0.61396  0.72021  Biso   1.000  C
  C26      1.0000 0.78748  0.60766  0.74461  Biso   1.000  C
  H25      1.0000 0.76980  0.61610  0.69730  Biso   1.000  H
  H26      1.0000 0.81020  0.60420  0.73820  Biso   1.000  H
  C27      1.0000 0.88328  0.59170  0.84165  Biso   1.000  C
  H27      1.0000 0.88950  0.59050  0.81860  Biso   1.000  H
  O10      1.0000 0.71446  0.12415  0.17312  Biso   1.000  O
  C28      1.0000 0.76358  0.11396  0.22021  Biso   1.000  C
  C29      1.0000 0.78748  0.10766  0.24461  Biso   1.000  C
  H28      1.0000 0.76980  0.11610  0.19730  Biso   1.000  H
  H29      1.0000 0.81020  0.10420  0.23820  Biso   1.000  H
  C30      1.0000 0.88328  0.09170  0.34165  Biso   1.000  C
  H30      1.0000 0.88950  0.09050  0.31860  Biso   1.000  H
  O11      1.0000 0.21446  0.62415  0.17312  Biso   1.000  O
  C31      1.0000 0.26358  0.61396  0.22021  Biso   1.000  C
  C32      1.0000 0.28748  0.60766  0.24461  Biso   1.000  C
  H31      1.0000 0.26980  0.61610  0.19730  Biso   1.000  H
  H32      1.0000 0.31020  0.60420  0.23820  Biso   1.000  H
  C33      1.0000 0.38328  0.59170  0.34165  Biso   1.000  C
  H33      1.0000 0.38950  0.59050  0.31860  Biso   1.000  H
  O12      1.0000 0.21446  0.12415  0.67312  Biso   1.000  O
  C34      1.0000 0.26358  0.11396  0.72021  Biso   1.000  C
  C35      1.0000 0.28748  0.10766  0.74461  Biso   1.000  C
  H34      1.0000 0.26980  0.11610  0.69730  Biso   1.000  H
  H35      1.0000 0.31020  0.10420  0.73820  Biso   1.000  H
  C36      1.0000 0.38328  0.09170  0.84165  Biso   1.000  C
  H36      1.0000 0.38950  0.09050  0.81860  Biso   1.000  H
  O13      1.0000 0.03554  0.62585  0.17312  Biso   1.000  O
  C37      1.0000 0.98642  0.63604  0.22021  Biso   1.000  C
  C38      1.0000 0.96252  0.64234  0.24461  Biso   1.000  C
  H37      1.0000 0.98020  0.63390  0.19730  Biso   1.000  H
  H38      1.0000 0.93980  0.64580  0.23820  Biso   1.000  H
  C39      1.0000 0.86672  0.65830  0.34165  Biso   1.000  C
  H39      1.0000 0.86050  0.65950  0.31860  Biso   1.000  H
  O14      1.0000 0.03554  0.12585  0.67312  Biso   1.000  O
  C40      1.0000 0.98642  0.13604  0.72021  Biso   1.000  C
  C41      1.0000 0.96252  0.14234  0.74461  Biso   1.000  C
  H40      1.0000 0.98020  0.13390  0.69730  Biso   1.000  H
  H41      1.0000 0.93980  0.14580  0.73820  Biso   1.000  H
  C42      1.0000 0.86672  0.15830  0.84165  Biso   1.000  C
  H42      1.0000 0.86050  0.15950  0.81860  Biso   1.000  H
  O15      1.0000 0.53554  0.62585  0.67312  Biso   1.000  O
  C43      1.0000 0.48642  0.63604  0.72021  Biso   1.000  C
  C44      1.0000 0.46252  0.64234  0.74461  Biso   1.000  C
  H43      1.0000 0.48020  0.63390  0.69730  Biso   1.000  H
  H44      1.0000 0.43980  0.64580  0.73820  Biso   1.000  H
  C45      1.0000 0.36672  0.65830  0.84165  Biso   1.000  C
  H45      1.0000 0.36050  0.65950  0.81860  Biso   1.000  H
  O16      1.0000 0.53554  0.12585  0.17312  Biso   1.000  O
  C46      1.0000 0.48642  0.13604  0.22021  Biso   1.000  C
  C47      1.0000 0.46252  0.14234  0.24461  Biso   1.000  C
  H46      1.0000 0.48020  0.13390  0.19730  Biso   1.000  H
  H47      1.0000 0.43980  0.14580  0.23820  Biso   1.000  H
  C48      1.0000 0.36672  0.15830  0.34165  Biso   1.000  C
  H48      1.0000 0.36050  0.15950  0.31860  Biso   1.000  H
  O17      1.0000 0.07688  0.53554  0.12415  Biso   1.000  O
  C49      1.0000 0.02979  0.48642  0.11396  Biso   1.000  C
  C50      1.0000 0.00539  0.46252  0.10766  Biso   1.000  C
  H49      1.0000 0.05270  0.48020  0.11610  Biso   1.000  H
  H50      1.0000 0.01180  0.43980  0.10420  Biso   1.000  H
  C51      1.0000 0.90835  0.36672  0.09170  Biso   1.000  C
  H51      1.0000 0.93140  0.36050  0.09050  Biso   1.000  H
  O18      1.0000 0.07688  0.03554  0.62415  Biso   1.000  O
  C52      1.0000 0.02979  0.98642  0.61396  Biso   1.000  C
  C53      1.0000 0.00539  0.96252  0.60766  Biso   1.000  C
  H52      1.0000 0.05270  0.98020  0.61610  Biso   1.000  H
  H53      1.0000 0.01180  0.93980  0.60420  Biso   1.000  H
  C54      1.0000 0.90835  0.86672  0.59170  Biso   1.000  C
  H54      1.0000 0.93140  0.86050  0.59050  Biso   1.000  H
  O19      1.0000 0.57688  0.53554  0.62415  Biso   1.000  O
  C55      1.0000 0.52979  0.48642  0.61396  Biso   1.000  C
  C56      1.0000 0.50539  0.46252  0.60766  Biso   1.000  C
  H55      1.0000 0.55270  0.48020  0.61610  Biso   1.000  H
  H56      1.0000 0.51180  0.43980  0.60420  Biso   1.000  H
  C57      1.0000 0.40835  0.36672  0.59170  Biso   1.000  C
  H57      1.0000 0.43140  0.36050  0.59050  Biso   1.000  H
  O20      1.0000 0.57688  0.03554  0.12415  Biso   1.000  O
  C58      1.0000 0.52979  0.98642  0.11396  Biso   1.000  C
  C59      1.0000 0.50539  0.96252  0.10766  Biso   1.000  C
  H58      1.0000 0.55270  0.98020  0.11610  Biso   1.000  H
  H59      1.0000 0.51180  0.93980  0.10420  Biso   1.000  H
  C60      1.0000 0.40835  0.86672  0.09170  Biso   1.000  C
  H60      1.0000 0.43140  0.86050  0.09050  Biso   1.000  H
  O21      1.0000 0.57688  0.21446  0.12585  Biso   1.000  O
  C61      1.0000 0.52979  0.26358  0.13604  Biso   1.000  C
  C62      1.0000 0.50539  0.28748  0.14234  Biso   1.000  C
  H61      1.0000 0.55270  0.26980  0.13390  Biso   1.000  H
  H62      1.0000 0.51180  0.31020  0.14580  Biso   1.000  H
  C63      1.0000 0.40835  0.38328  0.15830  Biso   1.000  C
  H63      1.0000 0.43140  0.38950  0.15950  Biso   1.000  H
  O22      1.0000 0.57688  0.71446  0.62585  Biso   1.000  O
  C64      1.0000 0.52979  0.76358  0.63604  Biso   1.000  C
  C65      1.0000 0.50539  0.78748  0.64234  Biso   1.000  C
  H64      1.0000 0.55270  0.76980  0.63390  Biso   1.000  H
  H65      1.0000 0.51180  0.81020  0.64580  Biso   1.000  H
  C66      1.0000 0.40835  0.88328  0.65830  Biso   1.000  C
  H66      1.0000 0.43140  0.88950  0.65950  Biso   1.000  H
  O23      1.0000 0.07688  0.21446  0.62585  Biso   1.000  O
  C67      1.0000 0.02979  0.26358  0.63604  Biso   1.000  C
  C68      1.0000 0.00539  0.28748  0.64234  Biso   1.000  C
  H67      1.0000 0.05270  0.26980  0.63390  Biso   1.000  H
  H68      1.0000 0.01180  0.31020  0.64580  Biso   1.000  H
  C69      1.0000 0.90835  0.38328  0.65830  Biso   1.000  C
  H69      1.0000 0.93140  0.38950  0.65950  Biso   1.000  H
  O24      1.0000 0.07688  0.71446  0.12585  Biso   1.000  O
  C70      1.0000 0.02979  0.76358  0.13604  Biso   1.000  C
  C71      1.0000 0.00539  0.78748  0.14234  Biso   1.000  C
  H70      1.0000 0.05270  0.76980  0.13390  Biso   1.000  H
  H71      1.0000 0.01180  0.81020  0.14580  Biso   1.000  H
  C72      1.0000 0.90835  0.88328  0.15830  Biso   1.000  C
  H72      1.0000 0.93140  0.88950  0.15950  Biso   1.000  H
  O25      1.0000 0.67312  0.71446  0.62415  Biso   1.000  O
  C73      1.0000 0.72021  0.76358  0.61396  Biso   1.000  C
  C74      1.0000 0.74461  0.78748  0.60766  Biso   1.000  C
  H73      1.0000 0.69730  0.76980  0.61610  Biso   1.000  H
  H74      1.0000 0.73820  0.81020  0.60420  Biso   1.000  H
  C75      1.0000 0.84165  0.88328  0.59170  Biso   1.000  C
  H75      1.0000 0.81860  0.88950  0.59050  Biso   1.000  H
  O26      1.0000 0.67312  0.21446  0.12415  Biso   1.000  O
  C76      1.0000 0.72021  0.26358  0.11396  Biso   1.000  C
  C77      1.0000 0.74461  0.28748  0.10766  Biso   1.000  C
  H76      1.0000 0.69730  0.26980  0.11610  Biso   1.000  H
  H77      1.0000 0.73820  0.31020  0.10420  Biso   1.000  H
  C78      1.0000 0.84165  0.38328  0.09170  Biso   1.000  C
  H78      1.0000 0.81860  0.38950  0.09050  Biso   1.000  H
  O27      1.0000 0.17312  0.71446  0.12415  Biso   1.000  O
  C79      1.0000 0.22021  0.76358  0.11396  Biso   1.000  C
  C80      1.0000 0.24461  0.78748  0.10766  Biso   1.000  C
  H79      1.0000 0.19730  0.76980  0.11610  Biso   1.000  H
  H80      1.0000 0.23820  0.81020  0.10420  Biso   1.000  H
  C81      1.0000 0.34165  0.88328  0.09170  Biso   1.000  C
  H81      1.0000 0.31860  0.88950  0.09050  Biso   1.000  H
  O28      1.0000 0.17312  0.21446  0.62415  Biso   1.000  O
  C82      1.0000 0.22021  0.26358  0.61396  Biso   1.000  C
  C83      1.0000 0.24461  0.28748  0.60766  Biso   1.000  C
  H82      1.0000 0.19730  0.26980  0.61610  Biso   1.000  H
  H83      1.0000 0.23820  0.31020  0.60420  Biso   1.000  H
  C84      1.0000 0.34165  0.38328  0.59170  Biso   1.000  C
  H84      1.0000 0.31860  0.38950  0.59050  Biso   1.000  H
  O29      1.0000 0.17312  0.03554  0.62585  Biso   1.000  O
  C85      1.0000 0.22021  0.98642  0.63604  Biso   1.000  C
  C86      1.0000 0.24461  0.96252  0.64234  Biso   1.000  C
  H85      1.0000 0.19730  0.98020  0.63390  Biso   1.000  H
  H86      1.0000 0.23820  0.93980  0.64580  Biso   1.000  H
  C87      1.0000 0.34165  0.86672  0.65830  Biso   1.000  C
  H87      1.0000 0.31860  0.86050  0.65950  Biso   1.000  H
  O30      1.0000 0.17312  0.53554  0.12585  Biso   1.000  O
  C88      1.0000 0.22021  0.48642  0.13604  Biso   1.000  C
  C89      1.0000 0.24461  0.46252  0.14234  Biso   1.000  C
  H88      1.0000 0.19730  0.48020  0.13390  Biso   1.000  H
  H89      1.0000 0.23820  0.43980  0.14580  Biso   1.000  H
  C90      1.0000 0.34165  0.36672  0.15830  Biso   1.000  C
  H90      1.0000 0.31860  0.36050  0.15950  Biso   1.000  H
  O31      1.0000 0.67312  0.03554  0.12585  Biso   1.000  O
  C91      1.0000 0.72021  0.98642  0.13604  Biso   1.000  C
  C92      1.0000 0.74461  0.96252  0.14234  Biso   1.000  C
  H91      1.0000 0.69730  0.98020  0.13390  Biso   1.000  H
  H92      1.0000 0.73820  0.93980  0.14580  Biso   1.000  H
  C93      1.0000 0.84165  0.86672  0.15830  Biso   1.000  C
  H93      1.0000 0.81860  0.86050  0.15950  Biso   1.000  H
  O32      1.0000 0.67312  0.53554  0.62585  Biso   1.000  O
  C94      1.0000 0.72021  0.48642  0.63604  Biso   1.000  C
  C95      1.0000 0.74461  0.46252  0.64234  Biso   1.000  C
  H94      1.0000 0.69730  0.48020  0.63390  Biso   1.000  H
  H95      1.0000 0.73820  0.43980  0.64580  Biso   1.000  H
  C96      1.0000 0.84165  0.36672  0.65830  Biso   1.000  C
  H96      1.0000 0.81860  0.36050  0.65950  Biso   1.000  H
  O33      1.0000 0.12415  0.07688  0.53554  Biso   1.000  O
  C97      1.0000 0.11396  0.02979  0.48642  Biso   1.000  C
  C98      1.0000 0.10766  0.00539  0.46252  Biso   1.000  C
  H97      1.0000 0.11610  0.05270  0.48020  Biso   1.000  H
  H98      1.0000 0.10420  0.01180  0.43980  Biso   1.000  H
  C99      1.0000 0.09170  0.90835  0.36672  Biso   1.000  C
  H99      1.0000 0.09050  0.93140  0.36050  Biso   1.000  H
  O34      1.0000 0.12415  0.57688  0.03554  Biso   1.000  O
  C100     1.0000 0.11396  0.52979  0.98642  Biso   1.000  C
  C101     1.0000 0.10766  0.50539  0.96252  Biso   1.000  C
  H100     1.0000 0.11610  0.55270  0.98020  Biso   1.000  H
  H101     1.0000 0.10420  0.51180  0.93980  Biso   1.000  H
  C102     1.0000 0.09170  0.40835  0.86672  Biso   1.000  C
  H102     1.0000 0.09050  0.43140  0.86050  Biso   1.000  H
  O35      1.0000 0.62415  0.07688  0.03554  Biso   1.000  O
  C103     1.0000 0.61396  0.02979  0.98642  Biso   1.000  C
  C104     1.0000 0.60766  0.00539  0.96252  Biso   1.000  C
  H103     1.0000 0.61610  0.05270  0.98020  Biso   1.000  H
  H104     1.0000 0.60420  0.01180  0.93980  Biso   1.000  H
  C105     1.0000 0.59170  0.90835  0.86672  Biso   1.000  C
  H105     1.0000 0.59050  0.93140  0.86050  Biso   1.000  H
  O36      1.0000 0.62415  0.57688  0.53554  Biso   1.000  O
  C106     1.0000 0.61396  0.52979  0.48642  Biso   1.000  C
  C107     1.0000 0.60766  0.50539  0.46252  Biso   1.000  C
  H106     1.0000 0.61610  0.55270  0.48020  Biso   1.000  H
  H107     1.0000 0.60420  0.51180  0.43980  Biso   1.000  H
  C108     1.0000 0.59170  0.40835  0.36672  Biso   1.000  C
  H108     1.0000 0.59050  0.43140  0.36050  Biso   1.000  H
  O37      1.0000 0.12585  0.57688  0.21446  Biso   1.000  O
  C109     1.0000 0.13604  0.52979  0.26358  Biso   1.000  C
  C110     1.0000 0.14234  0.50539  0.28748  Biso   1.000  C
  H109     1.0000 0.13390  0.55270  0.26980  Biso   1.000  H
  H110     1.0000 0.14580  0.51180  0.31020  Biso   1.000  H
  C111     1.0000 0.15830  0.40835  0.38328  Biso   1.000  C
  H111     1.0000 0.15950  0.43140  0.38950  Biso   1.000  H
  O38      1.0000 0.12585  0.07688  0.71446  Biso   1.000  O
  C112     1.0000 0.13604  0.02979  0.76358  Biso   1.000  C
  C113     1.0000 0.14234  0.00539  0.78748  Biso   1.000  C
  H112     1.0000 0.13390  0.05270  0.76980  Biso   1.000  H
  H113     1.0000 0.14580  0.01180  0.81020  Biso   1.000  H
  C114     1.0000 0.15830  0.90835  0.88328  Biso   1.000  C
  H114     1.0000 0.15950  0.93140  0.88950  Biso   1.000  H
  O39      1.0000 0.62585  0.57688  0.71446  Biso   1.000  O
  C115     1.0000 0.63604  0.52979  0.76358  Biso   1.000  C
  C116     1.0000 0.64234  0.50539  0.78748  Biso   1.000  C
  H115     1.0000 0.63390  0.55270  0.76980  Biso   1.000  H
  H116     1.0000 0.64580  0.51180  0.81020  Biso   1.000  H
  C117     1.0000 0.65830  0.40835  0.88328  Biso   1.000  C
  H117     1.0000 0.65950  0.43140  0.88950  Biso   1.000  H
  O40      1.0000 0.62585  0.07688  0.21446  Biso   1.000  O
  C118     1.0000 0.63604  0.02979  0.26358  Biso   1.000  C
  C119     1.0000 0.64234  0.00539  0.28748  Biso   1.000  C
  H118     1.0000 0.63390  0.05270  0.26980  Biso   1.000  H
  H119     1.0000 0.64580  0.01180  0.31020  Biso   1.000  H
  C120     1.0000 0.65830  0.90835  0.38328  Biso   1.000  C
  H120     1.0000 0.65950  0.93140  0.38950  Biso   1.000  H
  O41      1.0000 0.62415  0.67312  0.71446  Biso   1.000  O
  C121     1.0000 0.61396  0.72021  0.76358  Biso   1.000  C
  C122     1.0000 0.60766  0.74461  0.78748  Biso   1.000  C
  H121     1.0000 0.61610  0.69730  0.76980  Biso   1.000  H
  H122     1.0000 0.60420  0.73820  0.81020  Biso   1.000  H
  C123     1.0000 0.59170  0.84165  0.88328  Biso   1.000  C
  H123     1.0000 0.59050  0.81860  0.88950  Biso   1.000  H
  O42      1.0000 0.62415  0.17312  0.21446  Biso   1.000  O
  C124     1.0000 0.61396  0.22021  0.26358  Biso   1.000  C
  C125     1.0000 0.60766  0.24461  0.28748  Biso   1.000  C
  H124     1.0000 0.61610  0.19730  0.26980  Biso   1.000  H
  H125     1.0000 0.60420  0.23820  0.31020  Biso   1.000  H
  C126     1.0000 0.59170  0.34165  0.38328  Biso   1.000  C
  H126     1.0000 0.59050  0.31860  0.38950  Biso   1.000  H
  O43      1.0000 0.12415  0.67312  0.21446  Biso   1.000  O
  C127     1.0000 0.11396  0.72021  0.26358  Biso   1.000  C
  C128     1.0000 0.10766  0.74461  0.28748  Biso   1.000  C
  H127     1.0000 0.11610  0.69730  0.26980  Biso   1.000  H
  H128     1.0000 0.10420  0.73820  0.31020  Biso   1.000  H
  C129     1.0000 0.09170  0.84165  0.38328  Biso   1.000  C
  H129     1.0000 0.09050  0.81860  0.38950  Biso   1.000  H
  O44      1.0000 0.12415  0.17312  0.71446  Biso   1.000  O
  C130     1.0000 0.11396  0.22021  0.76358  Biso   1.000  C
  C131     1.0000 0.10766  0.24461  0.78748  Biso   1.000  C
  H130     1.0000 0.11610  0.19730  0.76980  Biso   1.000  H
  H131     1.0000 0.10420  0.23820  0.81020  Biso   1.000  H
  C132     1.0000 0.09170  0.34165  0.88328  Biso   1.000  C
  H132     1.0000 0.09050  0.31860  0.88950  Biso   1.000  H
  O45      1.0000 0.62585  0.17312  0.03554  Biso   1.000  O
  C133     1.0000 0.63604  0.22021  0.98642  Biso   1.000  C
  C134     1.0000 0.64234  0.24461  0.96252  Biso   1.000  C
  H133     1.0000 0.63390  0.19730  0.98020  Biso   1.000  H
  H134     1.0000 0.64580  0.23820  0.93980  Biso   1.000  H
  C135     1.0000 0.65830  0.34165  0.86672  Biso   1.000  C
  H135     1.0000 0.65950  0.31860  0.86050  Biso   1.000  H
  O46      1.0000 0.62585  0.67312  0.53554  Biso   1.000  O
  C136     1.0000 0.63604  0.72021  0.48642  Biso   1.000  C
  C137     1.0000 0.64234  0.74461  0.46252  Biso   1.000  C
  H136     1.0000 0.63390  0.69730  0.48020  Biso   1.000  H
  H137     1.0000 0.64580  0.73820  0.43980  Biso   1.000  H
  C138     1.0000 0.65830  0.84165  0.36672  Biso   1.000  C
  H138     1.0000 0.65950  0.81860  0.36050  Biso   1.000  H
  O47      1.0000 0.12585  0.17312  0.53554  Biso   1.000  O
  C139     1.0000 0.13604  0.22021  0.48642  Biso   1.000  C
  C140     1.0000 0.14234  0.24461  0.46252  Biso   1.000  C
  H139     1.0000 0.13390  0.19730  0.48020  Biso   1.000  H
  H140     1.0000 0.14580  0.23820  0.43980  Biso   1.000  H
  C141     1.0000 0.15830  0.34165  0.36672  Biso   1.000  C
  H141     1.0000 0.15950  0.31860  0.36050  Biso   1.000  H
  O48      1.0000 0.12585  0.67312  0.03554  Biso   1.000  O
  C142     1.0000 0.13604  0.72021  0.98642  Biso   1.000  C
  C143     1.0000 0.14234  0.74461  0.96252  Biso   1.000  C
  H142     1.0000 0.13390  0.69730  0.98020  Biso   1.000  H
  H143     1.0000 0.14580  0.73820  0.93980  Biso   1.000  H
  C144     1.0000 0.15830  0.84165  0.86672  Biso   1.000  C
  H144     1.0000 0.15950  0.81860  0.86050  Biso   1.000  H
  O49      1.0000 0.12585  0.21446  0.57688  Biso   1.000  O
  C145     1.0000 0.13604  0.26358  0.52979  Biso   1.000  C
  C146     1.0000 0.14234  0.28748  0.50539  Biso   1.000  C
  H145     1.0000 0.13390  0.26980  0.55270  Biso   1.000  H
  H146     1.0000 0.14580  0.31020  0.51180  Biso   1.000  H
  C147     1.0000 0.15830  0.38328  0.40835  Biso   1.000  C
  H147     1.0000 0.15950  0.38950  0.43140  Biso   1.000  H
  O50      1.0000 0.12585  0.71446  0.07688  Biso   1.000  O
  C148     1.0000 0.13604  0.76358  0.02979  Biso   1.000  C
  C149     1.0000 0.14234  0.78748  0.00539  Biso   1.000  C
  H148     1.0000 0.13390  0.76980  0.05270  Biso   1.000  H
  H149     1.0000 0.14580  0.81020  0.01180  Biso   1.000  H
  C150     1.0000 0.15830  0.88328  0.90835  Biso   1.000  C
  H150     1.0000 0.15950  0.88950  0.93140  Biso   1.000  H
  O51      1.0000 0.62585  0.21446  0.07688  Biso   1.000  O
  C151     1.0000 0.63604  0.26358  0.02979  Biso   1.000  C
  C152     1.0000 0.64234  0.28748  0.00539  Biso   1.000  C
  H151     1.0000 0.63390  0.26980  0.05270  Biso   1.000  H
  H152     1.0000 0.64580  0.31020  0.01180  Biso   1.000  H
  C153     1.0000 0.65830  0.38328  0.90835  Biso   1.000  C
  H153     1.0000 0.65950  0.38950  0.93140  Biso   1.000  H
  O52      1.0000 0.62585  0.71446  0.57688  Biso   1.000  O
  C154     1.0000 0.63604  0.76358  0.52979  Biso   1.000  C
  C155     1.0000 0.64234  0.78748  0.50539  Biso   1.000  C
  H154     1.0000 0.63390  0.76980  0.55270  Biso   1.000  H
  H155     1.0000 0.64580  0.81020  0.51180  Biso   1.000  H
  C156     1.0000 0.65830  0.88328  0.40835  Biso   1.000  C
  H156     1.0000 0.65950  0.88950  0.43140  Biso   1.000  H
  O53      1.0000 0.12415  0.53554  0.07688  Biso   1.000  O
  C157     1.0000 0.11396  0.48642  0.02979  Biso   1.000  C
  C158     1.0000 0.10766  0.46252  0.00539  Biso   1.000  C
  H157     1.0000 0.11610  0.48020  0.05270  Biso   1.000  H
  H158     1.0000 0.10420  0.43980  0.01180  Biso   1.000  H
  C159     1.0000 0.09170  0.36672  0.90835  Biso   1.000  C
  H159     1.0000 0.09050  0.36050  0.93140  Biso   1.000  H
  O54      1.0000 0.12415  0.03554  0.57688  Biso   1.000  O
  C160     1.0000 0.11396  0.98642  0.52979  Biso   1.000  C
  C161     1.0000 0.10766  0.96252  0.50539  Biso   1.000  C
  H160     1.0000 0.11610  0.98020  0.55270  Biso   1.000  H
  H161     1.0000 0.10420  0.93980  0.51180  Biso   1.000  H
  C162     1.0000 0.09170  0.86672  0.40835  Biso   1.000  C
  H162     1.0000 0.09050  0.86050  0.43140  Biso   1.000  H
  O55      1.0000 0.62415  0.53554  0.57688  Biso   1.000  O
  C163     1.0000 0.61396  0.48642  0.52979  Biso   1.000  C
  C164     1.0000 0.60766  0.46252  0.50539  Biso   1.000  C
  H163     1.0000 0.61610  0.48020  0.55270  Biso   1.000  H
  H164     1.0000 0.60420  0.43980  0.51180  Biso   1.000  H
  C165     1.0000 0.59170  0.36672  0.40835  Biso   1.000  C
  H165     1.0000 0.59050  0.36050  0.43140  Biso   1.000  H
  O56      1.0000 0.62415  0.03554  0.07688  Biso   1.000  O
  C166     1.0000 0.61396  0.98642  0.02979  Biso   1.000  C
  C167     1.0000 0.60766  0.96252  0.00539  Biso   1.000  C
  H166     1.0000 0.61610  0.98020  0.05270  Biso   1.000  H
  H167     1.0000 0.60420  0.93980  0.01180  Biso   1.000  H
  C168     1.0000 0.59170  0.86672  0.90835  Biso   1.000  C
  H168     1.0000 0.59050  0.86050  0.93140  Biso   1.000  H
  O57      1.0000 0.62585  0.03554  0.17312  Biso   1.000  O
  C169     1.0000 0.63604  0.98642  0.22021  Biso   1.000  C
  C170     1.0000 0.64234  0.96252  0.24461  Biso   1.000  C
  H169     1.0000 0.63390  0.98020  0.19730  Biso   1.000  H
  H170     1.0000 0.64580  0.93980  0.23820  Biso   1.000  H
  C171     1.0000 0.65830  0.86672  0.34165  Biso   1.000  C
  H171     1.0000 0.65950  0.86050  0.31860  Biso   1.000  H
  O58      1.0000 0.62585  0.53554  0.67312  Biso   1.000  O
  C172     1.0000 0.63604  0.48642  0.72021  Biso   1.000  C
  C173     1.0000 0.64234  0.46252  0.74461  Biso   1.000  C
  H172     1.0000 0.63390  0.48020  0.69730  Biso   1.000  H
  H173     1.0000 0.64580  0.43980  0.73820  Biso   1.000  H
  C174     1.0000 0.65830  0.36672  0.84165  Biso   1.000  C
  H174     1.0000 0.65950  0.36050  0.81860  Biso   1.000  H
  O59      1.0000 0.12585  0.03554  0.67312  Biso   1.000  O
  C175     1.0000 0.13604  0.98642  0.72021  Biso   1.000  C
  C176     1.0000 0.14234  0.96252  0.74461  Biso   1.000  C
  H175     1.0000 0.13390  0.98020  0.69730  Biso   1.000  H
  H176     1.0000 0.14580  0.93980  0.73820  Biso   1.000  H
  C177     1.0000 0.15830  0.86672  0.84165  Biso   1.000  C
  H177     1.0000 0.15950  0.86050  0.81860  Biso   1.000  H
  O60      1.0000 0.12585  0.53554  0.17312  Biso   1.000  O
  C178     1.0000 0.13604  0.48642  0.22021  Biso   1.000  C
  C179     1.0000 0.14234  0.46252  0.24461  Biso   1.000  C
  H178     1.0000 0.13390  0.48020  0.19730  Biso   1.000  H
  H179     1.0000 0.14580  0.43980  0.23820  Biso   1.000  H
  C180     1.0000 0.15830  0.36672  0.34165  Biso   1.000  C
  H180     1.0000 0.15950  0.36050  0.31860  Biso   1.000  H
  O61      1.0000 0.62415  0.71446  0.67312  Biso   1.000  O
  C181     1.0000 0.61396  0.76358  0.72021  Biso   1.000  C
  C182     1.0000 0.60766  0.78748  0.74461  Biso   1.000  C
  H181     1.0000 0.61610  0.76980  0.69730  Biso   1.000  H
  H182     1.0000 0.60420  0.81020  0.73820  Biso   1.000  H
  C183     1.0000 0.59170  0.88328  0.84165  Biso   1.000  C
  H183     1.0000 0.59050  0.88950  0.81860  Biso   1.000  H
  O62      1.0000 0.62415  0.21446  0.17312  Biso   1.000  O
  C184     1.0000 0.61396  0.26358  0.22021  Biso   1.000  C
  C185     1.0000 0.60766  0.28748  0.24461  Biso   1.000  C
  H184     1.0000 0.61610  0.26980  0.19730  Biso   1.000  H
  H185     1.0000 0.60420  0.31020  0.23820  Biso   1.000  H
  C186     1.0000 0.59170  0.38328  0.34165  Biso   1.000  C
  H186     1.0000 0.59050  0.38950  0.31860  Biso   1.000  H
  O63      1.0000 0.12415  0.71446  0.17312  Biso   1.000  O
  C187     1.0000 0.11396  0.76358  0.22021  Biso   1.000  C
  C188     1.0000 0.10766  0.78748  0.24461  Biso   1.000  C
  H187     1.0000 0.11610  0.76980  0.19730  Biso   1.000  H
  H188     1.0000 0.10420  0.81020  0.23820  Biso   1.000  H
  C189     1.0000 0.09170  0.88328  0.34165  Biso   1.000  C
  H189     1.0000 0.09050  0.88950  0.31860  Biso   1.000  H
  O64      1.0000 0.12415  0.21446  0.67312  Biso   1.000  O
  C190     1.0000 0.11396  0.26358  0.72021  Biso   1.000  C
  C191     1.0000 0.10766  0.28748  0.74461  Biso   1.000  C
  H190     1.0000 0.11610  0.26980  0.69730  Biso   1.000  H
  H191     1.0000 0.10420  0.31020  0.73820  Biso   1.000  H
  C192     1.0000 0.09170  0.38328  0.84165  Biso   1.000  C
  H192     1.0000 0.09050  0.38950  0.81860  Biso   1.000  H
  O65      1.0000 0.71446  0.67312  0.62415  Biso   1.000  O
  C193     1.0000 0.76358  0.72021  0.61396  Biso   1.000  C
  C194     1.0000 0.78748  0.74461  0.60766  Biso   1.000  C
  H193     1.0000 0.76980  0.69730  0.61610  Biso   1.000  H
  H194     1.0000 0.81020  0.73820  0.60420  Biso   1.000  H
  C195     1.0000 0.88328  0.84165  0.59170  Biso   1.000  C
  H195     1.0000 0.88950  0.81860  0.59050  Biso   1.000  H
  O66      1.0000 0.71446  0.17312  0.12415  Biso   1.000  O
  C196     1.0000 0.76358  0.22021  0.11396  Biso   1.000  C
  C197     1.0000 0.78748  0.24461  0.10766  Biso   1.000  C
  H196     1.0000 0.76980  0.19730  0.11610  Biso   1.000  H
  H197     1.0000 0.81020  0.23820  0.10420  Biso   1.000  H
  C198     1.0000 0.88328  0.34165  0.09170  Biso   1.000  C
  H198     1.0000 0.88950  0.31860  0.09050  Biso   1.000  H
  O67      1.0000 0.21446  0.67312  0.12415  Biso   1.000  O
  C199     1.0000 0.26358  0.72021  0.11396  Biso   1.000  C
  C200     1.0000 0.28748  0.74461  0.10766  Biso   1.000  C
  H199     1.0000 0.26980  0.69730  0.11610  Biso   1.000  H
  H200     1.0000 0.31020  0.73820  0.10420  Biso   1.000  H
  C201     1.0000 0.38328  0.84165  0.09170  Biso   1.000  C
  H201     1.0000 0.38950  0.81860  0.09050  Biso   1.000  H
  O68      1.0000 0.21446  0.17312  0.62415  Biso   1.000  O
  C202     1.0000 0.26358  0.22021  0.61396  Biso   1.000  C
  C203     1.0000 0.28748  0.24461  0.60766  Biso   1.000  C
  H202     1.0000 0.26980  0.19730  0.61610  Biso   1.000  H
  H203     1.0000 0.31020  0.23820  0.60420  Biso   1.000  H
  C204     1.0000 0.38328  0.34165  0.59170  Biso   1.000  C
  H204     1.0000 0.38950  0.31860  0.59050  Biso   1.000  H
  O69      1.0000 0.03554  0.17312  0.62585  Biso   1.000  O
  C205     1.0000 0.98642  0.22021  0.63604  Biso   1.000  C
  C206     1.0000 0.96252  0.24461  0.64234  Biso   1.000  C
  H205     1.0000 0.98020  0.19730  0.63390  Biso   1.000  H
  H206     1.0000 0.93980  0.23820  0.64580  Biso   1.000  H
  C207     1.0000 0.86672  0.34165  0.65830  Biso   1.000  C
  H207     1.0000 0.86050  0.31860  0.65950  Biso   1.000  H
  O70      1.0000 0.03554  0.67312  0.12585  Biso   1.000  O
  C208     1.0000 0.98642  0.72021  0.13604  Biso   1.000  C
  C209     1.0000 0.96252  0.74461  0.14234  Biso   1.000  C
  H208     1.0000 0.98020  0.69730  0.13390  Biso   1.000  H
  H209     1.0000 0.93980  0.73820  0.14580  Biso   1.000  H
  C210     1.0000 0.86672  0.84165  0.15830  Biso   1.000  C
  H210     1.0000 0.86050  0.81860  0.15950  Biso   1.000  H
  O71      1.0000 0.53554  0.17312  0.12585  Biso   1.000  O
  C211     1.0000 0.48642  0.22021  0.13604  Biso   1.000  C
  C212     1.0000 0.46252  0.24461  0.14234  Biso   1.000  C
  H211     1.0000 0.48020  0.19730  0.13390  Biso   1.000  H
  H212     1.0000 0.43980  0.23820  0.14580  Biso   1.000  H
  C213     1.0000 0.36672  0.34165  0.15830  Biso   1.000  C
  H213     1.0000 0.36050  0.31860  0.15950  Biso   1.000  H
  O72      1.0000 0.53554  0.67312  0.62585  Biso   1.000  O
  C214     1.0000 0.48642  0.72021  0.63604  Biso   1.000  C
  C215     1.0000 0.46252  0.74461  0.64234  Biso   1.000  C
  H214     1.0000 0.48020  0.69730  0.63390  Biso   1.000  H
  H215     1.0000 0.43980  0.73820  0.64580  Biso   1.000  H
  C216     1.0000 0.36672  0.84165  0.65830  Biso   1.000  C
  H216     1.0000 0.36050  0.81860  0.65950  Biso   1.000  H
  O73      1.0000 0.53554  0.07688  0.12415  Biso   1.000  O
  C217     1.0000 0.48642  0.02979  0.11396  Biso   1.000  C
  C218     1.0000 0.46252  0.00539  0.10766  Biso   1.000  C
  H217     1.0000 0.48020  0.05270  0.11610  Biso   1.000  H
  H218     1.0000 0.43980  0.01180  0.10420  Biso   1.000  H
  C219     1.0000 0.36672  0.90835  0.09170  Biso   1.000  C
  H219     1.0000 0.36050  0.93140  0.09050  Biso   1.000  H
  O74      1.0000 0.53554  0.57688  0.62415  Biso   1.000  O
  C220     1.0000 0.48642  0.52979  0.61396  Biso   1.000  C
  C221     1.0000 0.46252  0.50539  0.60766  Biso   1.000  C
  H220     1.0000 0.48020  0.55270  0.61610  Biso   1.000  H
  H221     1.0000 0.43980  0.51180  0.60420  Biso   1.000  H
  C222     1.0000 0.36672  0.40835  0.59170  Biso   1.000  C
  H222     1.0000 0.36050  0.43140  0.59050  Biso   1.000  H
  O75      1.0000 0.03554  0.07688  0.62415  Biso   1.000  O
  C223     1.0000 0.98642  0.02979  0.61396  Biso   1.000  C
  C224     1.0000 0.96252  0.00539  0.60766  Biso   1.000  C
  H223     1.0000 0.98020  0.05270  0.61610  Biso   1.000  H
  H224     1.0000 0.93980  0.01180  0.60420  Biso   1.000  H
  C225     1.0000 0.86672  0.90835  0.59170  Biso   1.000  C
  H225     1.0000 0.86050  0.93140  0.59050  Biso   1.000  H
  O76      1.0000 0.03554  0.57688  0.12415  Biso   1.000  O
  C226     1.0000 0.98642  0.52979  0.11396  Biso   1.000  C
  C227     1.0000 0.96252  0.50539  0.10766  Biso   1.000  C
  H226     1.0000 0.98020  0.55270  0.11610  Biso   1.000  H
  H227     1.0000 0.93980  0.51180  0.10420  Biso   1.000  H
  C228     1.0000 0.86672  0.40835  0.09170  Biso   1.000  C
  H228     1.0000 0.86050  0.43140  0.09050  Biso   1.000  H
  O77      1.0000 0.21446  0.57688  0.12585  Biso   1.000  O
  C229     1.0000 0.26358  0.52979  0.13604  Biso   1.000  C
  C230     1.0000 0.28748  0.50539  0.14234  Biso   1.000  C
  H229     1.0000 0.26980  0.55270  0.13390  Biso   1.000  H
  H230     1.0000 0.31020  0.51180  0.14580  Biso   1.000  H
  C231     1.0000 0.38328  0.40835  0.15830  Biso   1.000  C
  H231     1.0000 0.38950  0.43140  0.15950  Biso   1.000  H
  O78      1.0000 0.21446  0.07688  0.62585  Biso   1.000  O
  C232     1.0000 0.26358  0.02979  0.63604  Biso   1.000  C
  C233     1.0000 0.28748  0.00539  0.64234  Biso   1.000  C
  H232     1.0000 0.26980  0.05270  0.63390  Biso   1.000  H
  H233     1.0000 0.31020  0.01180  0.64580  Biso   1.000  H
  C234     1.0000 0.38328  0.90835  0.65830  Biso   1.000  C
  H234     1.0000 0.38950  0.93140  0.65950  Biso   1.000  H
  O79      1.0000 0.71446  0.57688  0.62585  Biso   1.000  O
  C235     1.0000 0.76358  0.52979  0.63604  Biso   1.000  C
  C236     1.0000 0.78748  0.50539  0.64234  Biso   1.000  C
  H235     1.0000 0.76980  0.55270  0.63390  Biso   1.000  H
  H236     1.0000 0.81020  0.51180  0.64580  Biso   1.000  H
  C237     1.0000 0.88328  0.40835  0.65830  Biso   1.000  C
  H237     1.0000 0.88950  0.43140  0.65950  Biso   1.000  H
  O80      1.0000 0.71446  0.07688  0.12585  Biso   1.000  O
  C238     1.0000 0.76358  0.02979  0.13604  Biso   1.000  C
  C239     1.0000 0.78748  0.00539  0.14234  Biso   1.000  C
  H238     1.0000 0.76980  0.05270  0.13390  Biso   1.000  H
  H239     1.0000 0.81020  0.01180  0.14580  Biso   1.000  H
  C240     1.0000 0.88328  0.90835  0.15830  Biso   1.000  C
  H240     1.0000 0.88950  0.93140  0.15950  Biso   1.000  H
  O81      1.0000 0.17312  0.62585  0.03554  Biso   1.000  O
  C241     1.0000 0.22021  0.63604  0.98642  Biso   1.000  C
  C242     1.0000 0.24461  0.64234  0.96252  Biso   1.000  C
  H241     1.0000 0.19730  0.63390  0.98020  Biso   1.000  H
  H242     1.0000 0.23820  0.64580  0.93980  Biso   1.000  H
  C243     1.0000 0.34165  0.65830  0.86672  Biso   1.000  C
  H243     1.0000 0.31860  0.65950  0.86050  Biso   1.000  H
  O82      1.0000 0.17312  0.12585  0.53554  Biso   1.000  O
  C244     1.0000 0.22021  0.13604  0.48642  Biso   1.000  C
  C245     1.0000 0.24461  0.14234  0.46252  Biso   1.000  C
  H244     1.0000 0.19730  0.13390  0.48020  Biso   1.000  H
  H245     1.0000 0.23820  0.14580  0.43980  Biso   1.000  H
  C246     1.0000 0.34165  0.15830  0.36672  Biso   1.000  C
  H246     1.0000 0.31860  0.15950  0.36050  Biso   1.000  H
  O83      1.0000 0.67312  0.62585  0.53554  Biso   1.000  O
  C247     1.0000 0.72021  0.63604  0.48642  Biso   1.000  C
  C248     1.0000 0.74461  0.64234  0.46252  Biso   1.000  C
  H247     1.0000 0.69730  0.63390  0.48020  Biso   1.000  H
  H248     1.0000 0.73820  0.64580  0.43980  Biso   1.000  H
  C249     1.0000 0.84165  0.65830  0.36672  Biso   1.000  C
  H249     1.0000 0.81860  0.65950  0.36050  Biso   1.000  H
  O84      1.0000 0.67312  0.12585  0.03554  Biso   1.000  O
  C250     1.0000 0.72021  0.13604  0.98642  Biso   1.000  C
  C251     1.0000 0.74461  0.14234  0.96252  Biso   1.000  C
  H250     1.0000 0.69730  0.13390  0.98020  Biso   1.000  H
  H251     1.0000 0.73820  0.14580  0.93980  Biso   1.000  H
  C252     1.0000 0.84165  0.15830  0.86672  Biso   1.000  C
  H252     1.0000 0.81860  0.15950  0.86050  Biso   1.000  H
  O85      1.0000 0.67312  0.62415  0.71446  Biso   1.000  O
  C253     1.0000 0.72021  0.61396  0.76358  Biso   1.000  C
  C254     1.0000 0.74461  0.60766  0.78748  Biso   1.000  C
  H253     1.0000 0.69730  0.61610  0.76980  Biso   1.000  H
  H254     1.0000 0.73820  0.60420  0.81020  Biso   1.000  H
  C255     1.0000 0.84165  0.59170  0.88328  Biso   1.000  C
  H255     1.0000 0.81860  0.59050  0.88950  Biso   1.000  H
  O86      1.0000 0.67312  0.12415  0.21446  Biso   1.000  O
  C256     1.0000 0.72021  0.11396  0.26358  Biso   1.000  C
  C257     1.0000 0.74461  0.10766  0.28748  Biso   1.000  C
  H256     1.0000 0.69730  0.11610  0.26980  Biso   1.000  H
  H257     1.0000 0.73820  0.10420  0.31020  Biso   1.000  H
  C258     1.0000 0.84165  0.09170  0.38328  Biso   1.000  C
  H258     1.0000 0.81860  0.09050  0.38950  Biso   1.000  H
  O87      1.0000 0.17312  0.62415  0.21446  Biso   1.000  O
  C259     1.0000 0.22021  0.61396  0.26358  Biso   1.000  C
  C260     1.0000 0.24461  0.60766  0.28748  Biso   1.000  C
  H259     1.0000 0.19730  0.61610  0.26980  Biso   1.000  H
  H260     1.0000 0.23820  0.60420  0.31020  Biso   1.000  H
  C261     1.0000 0.34165  0.59170  0.38328  Biso   1.000  C
  H261     1.0000 0.31860  0.59050  0.38950  Biso   1.000  H
  O88      1.0000 0.17312  0.12415  0.71446  Biso   1.000  O
  C262     1.0000 0.22021  0.11396  0.76358  Biso   1.000  C
  C263     1.0000 0.24461  0.10766  0.78748  Biso   1.000  C
  H262     1.0000 0.19730  0.11610  0.76980  Biso   1.000  H
  H263     1.0000 0.23820  0.10420  0.81020  Biso   1.000  H
  C264     1.0000 0.34165  0.09170  0.88328  Biso   1.000  C
  H264     1.0000 0.31860  0.09050  0.88950  Biso   1.000  H
  O89      1.0000 0.57688  0.12585  0.21446  Biso   1.000  O
  C265     1.0000 0.52979  0.13604  0.26358  Biso   1.000  C
  C266     1.0000 0.50539  0.14234  0.28748  Biso   1.000  C
  H265     1.0000 0.55270  0.13390  0.26980  Biso   1.000  H
  H266     1.0000 0.51180  0.14580  0.31020  Biso   1.000  H
  C267     1.0000 0.40835  0.15830  0.38328  Biso   1.000  C
  H267     1.0000 0.43140  0.15950  0.38950  Biso   1.000  H
  O90      1.0000 0.57688  0.62585  0.71446  Biso   1.000  O
  C268     1.0000 0.52979  0.63604  0.76358  Biso   1.000  C
  C269     1.0000 0.50539  0.64234  0.78748  Biso   1.000  C
  H268     1.0000 0.55270  0.63390  0.76980  Biso   1.000  H
  H269     1.0000 0.51180  0.64580  0.81020  Biso   1.000  H
  C270     1.0000 0.40835  0.65830  0.88328  Biso   1.000  C
  H270     1.0000 0.43140  0.65950  0.88950  Biso   1.000  H
  O91      1.0000 0.07688  0.12585  0.71446  Biso   1.000  O
  C271     1.0000 0.02979  0.13604  0.76358  Biso   1.000  C
  C272     1.0000 0.00539  0.14234  0.78748  Biso   1.000  C
  H271     1.0000 0.05270  0.13390  0.76980  Biso   1.000  H
  H272     1.0000 0.01180  0.14580  0.81020  Biso   1.000  H
  C273     1.0000 0.90835  0.15830  0.88328  Biso   1.000  C
  H273     1.0000 0.93140  0.15950  0.88950  Biso   1.000  H
  O92      1.0000 0.07688  0.62585  0.21446  Biso   1.000  O
  C274     1.0000 0.02979  0.63604  0.26358  Biso   1.000  C
  C275     1.0000 0.00539  0.64234  0.28748  Biso   1.000  C
  H274     1.0000 0.05270  0.63390  0.26980  Biso   1.000  H
  H275     1.0000 0.01180  0.64580  0.31020  Biso   1.000  H
  C276     1.0000 0.90835  0.65830  0.38328  Biso   1.000  C
  H276     1.0000 0.93140  0.65950  0.38950  Biso   1.000  H
  O93      1.0000 0.07688  0.12415  0.53554  Biso   1.000  O
  C277     1.0000 0.02979  0.11396  0.48642  Biso   1.000  C
  C278     1.0000 0.00539  0.10766  0.46252  Biso   1.000  C
  H277     1.0000 0.05270  0.11610  0.48020  Biso   1.000  H
  H278     1.0000 0.01180  0.10420  0.43980  Biso   1.000  H
  C279     1.0000 0.90835  0.09170  0.36672  Biso   1.000  C
  H279     1.0000 0.93140  0.09050  0.36050  Biso   1.000  H
  O94      1.0000 0.07688  0.62415  0.03554  Biso   1.000  O
  C280     1.0000 0.02979  0.61396  0.98642  Biso   1.000  C
  C281     1.0000 0.00539  0.60766  0.96252  Biso   1.000  C
  H280     1.0000 0.05270  0.61610  0.98020  Biso   1.000  H
  H281     1.0000 0.01180  0.60420  0.93980  Biso   1.000  H
  C282     1.0000 0.90835  0.59170  0.86672  Biso   1.000  C
  H282     1.0000 0.93140  0.59050  0.86050  Biso   1.000  H
  O95      1.0000 0.57688  0.12415  0.03554  Biso   1.000  O
  C283     1.0000 0.52979  0.11396  0.98642  Biso   1.000  C
  C284     1.0000 0.50539  0.10766  0.96252  Biso   1.000  C
  H283     1.0000 0.55270  0.11610  0.98020  Biso   1.000  H
  H284     1.0000 0.51180  0.10420  0.93980  Biso   1.000  H
  C285     1.0000 0.40835  0.09170  0.86672  Biso   1.000  C
  H285     1.0000 0.43140  0.09050  0.86050  Biso   1.000  H
  O96      1.0000 0.57688  0.62415  0.53554  Biso   1.000  O
  C286     1.0000 0.52979  0.61396  0.48642  Biso   1.000  C
  C287     1.0000 0.50539  0.60766  0.46252  Biso   1.000  C
  H286     1.0000 0.55270  0.61610  0.48020  Biso   1.000  H
  H287     1.0000 0.51180  0.60420  0.43980  Biso   1.000  H
  C288     1.0000 0.40835  0.59170  0.36672  Biso   1.000  C
  H288     1.0000 0.43140  0.59050  0.36050  Biso   1.000  H
  Hf1      1.0000 0.56313  0.12500  0.12500  Biso   1.000  Hf
  Hf2      1.0000 0.56313  0.62500  0.62500  Biso   1.000  Hf
  Hf3      1.0000 0.06313  0.12500  0.62500  Biso   1.000  Hf
  Hf4      1.0000 0.06313  0.62500  0.12500  Biso   1.000  Hf
  Hf5      1.0000 0.18687  0.12500  0.62500  Biso   1.000  Hf
  Hf6      1.0000 0.68687  0.62500  0.62500  Biso   1.000  Hf
  Hf7      1.0000 0.68687  0.12500  0.12500  Biso   1.000  Hf
  Hf8      1.0000 0.12500  0.56313  0.12500  Biso   1.000  Hf
  Hf9      1.0000 0.12500  0.06313  0.62500  Biso   1.000  Hf
  Hf10     1.0000 0.62500  0.06313  0.12500  Biso   1.000  Hf
  Hf11     1.0000 0.62500  0.18687  0.12500  Biso   1.000  Hf
  Hf12     1.0000 0.62500  0.68687  0.62500  Biso   1.000  Hf
  Hf13     1.0000 0.62500  0.56313  0.62500  Biso   1.000  Hf
  Hf14     1.0000 0.12500  0.12500  0.56313  Biso   1.000  Hf
  Hf15     1.0000 0.12500  0.62500  0.06313  Biso   1.000  Hf
  Hf16     1.0000 0.62500  0.12500  0.06313  Biso   1.000  Hf
  Hf17     1.0000 0.12500  0.62500  0.18687  Biso   1.000  Hf
  Hf18     1.0000 0.12500  0.12500  0.68687  Biso   1.000  Hf
  Hf19     1.0000 0.62500  0.62500  0.68687  Biso   1.000  Hf
  Hf20     1.0000 0.62500  0.62500  0.56313  Biso   1.000  Hf
  Hf21     1.0000 0.12500  0.18687  0.62500  Biso   1.000  Hf
  Hf22     1.0000 0.12500  0.68687  0.12500  Biso   1.000  Hf
  Hf23     1.0000 0.18687  0.62500  0.12500  Biso   1.000  Hf
  Hf24     1.0000 0.62500  0.12500  0.18687  Biso   1.000  Hf
  O97      1.0000 0.59118  0.15882  0.09118  Biso   1.000  O
  O98      1.0000 0.59118  0.65882  0.59118  Biso   1.000  O
  O99      1.0000 0.15882  0.09118  0.59118  Biso   1.000  O
  O100     1.0000 0.65882  0.09118  0.09118  Biso   1.000  O
  O101     1.0000 0.65882  0.59118  0.59118  Biso   1.000  O
  O102     1.0000 0.65882  0.65882  0.65882  Biso   1.000  O
  O103     1.0000 0.65882  0.15882  0.15882  Biso   1.000  O
  O104     1.0000 0.15882  0.65882  0.15882  Biso   1.000  O
  O105     1.0000 0.15882  0.15882  0.65882  Biso   1.000  O
  O106     1.0000 0.09118  0.59118  0.15882  Biso   1.000  O
  O107     1.0000 0.09118  0.09118  0.65882  Biso   1.000  O
  O108     1.0000 0.59118  0.09118  0.15882  Biso   1.000  O
  O109     1.0000 0.09118  0.15882  0.59118  Biso   1.000  O
  O110     1.0000 0.09118  0.65882  0.09118  Biso   1.000  O
  O111     1.0000 0.15882  0.59118  0.09118  Biso   1.000  O
  O112     1.0000 0.59118  0.59118  0.65882  Biso   1.000  O
  O113     1.0000 0.59668  0.09668  0.09668  Biso   1.000  O
  O114     1.0000 0.59668  0.59668  0.59668  Biso   1.000  O
  O115     1.0000 0.15332  0.15332  0.59668  Biso   1.000  O
  O116     1.0000 0.15332  0.65332  0.09668  Biso   1.000  O
  O117     1.0000 0.65332  0.15332  0.09668  Biso   1.000  O
  O118     1.0000 0.65332  0.59668  0.65332  Biso   1.000  O
  O119     1.0000 0.15332  0.09668  0.65332  Biso   1.000  O
  O120     1.0000 0.09668  0.65332  0.15332  Biso   1.000  O
  O121     1.0000 0.09668  0.59668  0.09668  Biso   1.000  O
  O122     1.0000 0.59668  0.15332  0.15332  Biso   1.000  O
  O123     1.0000 0.09668  0.15332  0.65332  Biso   1.000  O
  O124     1.0000 0.65332  0.65332  0.59668  Biso   1.000  O
  O125     1.0000 0.09668  0.09668  0.59668  Biso   1.000  O
  O126     1.0000 0.15332  0.59668  0.15332  Biso   1.000  O
  O127     1.0000 0.65332  0.09668  0.15332  Biso   1.000  O
  O128     1.0000 0.59668  0.65332  0.65332  Biso   1.000  O
  C289     1.0000 0.54627  0.12155  0.04627  Biso   1.000  C
  C290     1.0000 0.51994  0.11713  0.01994  Biso   1.000  C
  C291     1.0000 0.47122  0.10630  0.97122  Biso   1.000  C
  C292     1.0000 0.44628  0.10100  0.94628  Biso   1.000  C
  C293     1.0000 0.42511  0.09620  0.92511  Biso   1.000  C
  C294     1.0000 0.39964  0.09340  0.89964  Biso   1.000  C
  C295     1.0000 0.54627  0.62155  0.54627  Biso   1.000  C
  C296     1.0000 0.51994  0.61713  0.51994  Biso   1.000  C
  C297     1.0000 0.47122  0.60630  0.47122  Biso   1.000  C
  C298     1.0000 0.44628  0.60100  0.44628  Biso   1.000  C
  C299     1.0000 0.42511  0.59620  0.42511  Biso   1.000  C
  C300     1.0000 0.39964  0.59340  0.39964  Biso   1.000  C
  C301     1.0000 0.20373  0.12845  0.54627  Biso   1.000  C
  C302     1.0000 0.23006  0.13287  0.51994  Biso   1.000  C
  C303     1.0000 0.27878  0.14370  0.47122  Biso   1.000  C
  C304     1.0000 0.30372  0.14900  0.44628  Biso   1.000  C
  C305     1.0000 0.32489  0.15380  0.42511  Biso   1.000  C
  C306     1.0000 0.35036  0.15660  0.39964  Biso   1.000  C
  C307     1.0000 0.20373  0.62845  0.04627  Biso   1.000  C
  C308     1.0000 0.23006  0.63287  0.01994  Biso   1.000  C
  C309     1.0000 0.27878  0.64370  0.97122  Biso   1.000  C
  C310     1.0000 0.30372  0.64900  0.94628  Biso   1.000  C
  C311     1.0000 0.32489  0.65380  0.92511  Biso   1.000  C
  C312     1.0000 0.35036  0.65660  0.89964  Biso   1.000  C
  C313     1.0000 0.70373  0.12845  0.04627  Biso   1.000  C
  C314     1.0000 0.73006  0.13287  0.01994  Biso   1.000  C
  C315     1.0000 0.77878  0.14370  0.97122  Biso   1.000  C
  C316     1.0000 0.80372  0.14900  0.94628  Biso   1.000  C
  C317     1.0000 0.82489  0.15380  0.92511  Biso   1.000  C
  C318     1.0000 0.85036  0.15660  0.89964  Biso   1.000  C
  C319     1.0000 0.70373  0.62155  0.70373  Biso   1.000  C
  C320     1.0000 0.73006  0.61713  0.73006  Biso   1.000  C
  C321     1.0000 0.77878  0.60630  0.77878  Biso   1.000  C
  C322     1.0000 0.80372  0.60100  0.80372  Biso   1.000  C
  C323     1.0000 0.82489  0.59620  0.82489  Biso   1.000  C
  C324     1.0000 0.85036  0.59340  0.85036  Biso   1.000  C
  C325     1.0000 0.70373  0.12155  0.20373  Biso   1.000  C
  C326     1.0000 0.73006  0.11713  0.23006  Biso   1.000  C
  C327     1.0000 0.77878  0.10630  0.27878  Biso   1.000  C
  C328     1.0000 0.80372  0.10100  0.30372  Biso   1.000  C
  C329     1.0000 0.82489  0.09620  0.32489  Biso   1.000  C
  C330     1.0000 0.85036  0.09340  0.35036  Biso   1.000  C
  C331     1.0000 0.20373  0.62155  0.20373  Biso   1.000  C
  C332     1.0000 0.23006  0.61713  0.23006  Biso   1.000  C
  C333     1.0000 0.27878  0.60630  0.27878  Biso   1.000  C
  C334     1.0000 0.30372  0.60100  0.30372  Biso   1.000  C
  C335     1.0000 0.32489  0.59620  0.32489  Biso   1.000  C
  C336     1.0000 0.35036  0.59340  0.35036  Biso   1.000  C
  C337     1.0000 0.20373  0.12155  0.70373  Biso   1.000  C
  C338     1.0000 0.23006  0.11713  0.73006  Biso   1.000  C
  C339     1.0000 0.27878  0.10630  0.77878  Biso   1.000  C
  C340     1.0000 0.30372  0.10100  0.80372  Biso   1.000  C
  C341     1.0000 0.32489  0.09620  0.82489  Biso   1.000  C
  C342     1.0000 0.35036  0.09340  0.85036  Biso   1.000  C
  C343     1.0000 0.04627  0.62845  0.20373  Biso   1.000  C
  C344     1.0000 0.01994  0.63287  0.23006  Biso   1.000  C
  C345     1.0000 0.97122  0.64370  0.27878  Biso   1.000  C
  C346     1.0000 0.94628  0.64900  0.30372  Biso   1.000  C
  C347     1.0000 0.92511  0.65380  0.32489  Biso   1.000  C
  C348     1.0000 0.89964  0.65660  0.35036  Biso   1.000  C
  C349     1.0000 0.04627  0.12845  0.70373  Biso   1.000  C
  C350     1.0000 0.01994  0.13287  0.73006  Biso   1.000  C
  C351     1.0000 0.97122  0.14370  0.77878  Biso   1.000  C
  C352     1.0000 0.94628  0.14900  0.80372  Biso   1.000  C
  C353     1.0000 0.92511  0.15380  0.82489  Biso   1.000  C
  C354     1.0000 0.89964  0.15660  0.85036  Biso   1.000  C
  C355     1.0000 0.04627  0.54627  0.12155  Biso   1.000  C
  C356     1.0000 0.01994  0.51994  0.11713  Biso   1.000  C
  C357     1.0000 0.97122  0.47122  0.10630  Biso   1.000  C
  C358     1.0000 0.94628  0.44628  0.10100  Biso   1.000  C
  C359     1.0000 0.92511  0.42511  0.09620  Biso   1.000  C
  C360     1.0000 0.89964  0.39964  0.09340  Biso   1.000  C
  C361     1.0000 0.04627  0.04627  0.62155  Biso   1.000  C
  C362     1.0000 0.01994  0.01994  0.61713  Biso   1.000  C
  C363     1.0000 0.97122  0.97122  0.60630  Biso   1.000  C
  C364     1.0000 0.94628  0.94628  0.60100  Biso   1.000  C
  C365     1.0000 0.92511  0.92511  0.59620  Biso   1.000  C
  C366     1.0000 0.89964  0.89964  0.59340  Biso   1.000  C
  C367     1.0000 0.54627  0.54627  0.62155  Biso   1.000  C
  C368     1.0000 0.51994  0.51994  0.61713  Biso   1.000  C
  C369     1.0000 0.47122  0.47122  0.60630  Biso   1.000  C
  C370     1.0000 0.44628  0.44628  0.60100  Biso   1.000  C
  C371     1.0000 0.42511  0.42511  0.59620  Biso   1.000  C
  C372     1.0000 0.39964  0.39964  0.59340  Biso   1.000  C
  C373     1.0000 0.54627  0.20373  0.12845  Biso   1.000  C
  C374     1.0000 0.51994  0.23006  0.13287  Biso   1.000  C
  C375     1.0000 0.47122  0.27878  0.14370  Biso   1.000  C
  C376     1.0000 0.44628  0.30372  0.14900  Biso   1.000  C
  C377     1.0000 0.42511  0.32489  0.15380  Biso   1.000  C
  C378     1.0000 0.39964  0.35036  0.15660  Biso   1.000  C
  C379     1.0000 0.54627  0.70373  0.62845  Biso   1.000  C
  C380     1.0000 0.51994  0.73006  0.63287  Biso   1.000  C
  C381     1.0000 0.47122  0.77878  0.64370  Biso   1.000  C
  C382     1.0000 0.44628  0.80372  0.64900  Biso   1.000  C
  C383     1.0000 0.42511  0.82489  0.65380  Biso   1.000  C
  C384     1.0000 0.39964  0.85036  0.65660  Biso   1.000  C
  C385     1.0000 0.04627  0.20373  0.62845  Biso   1.000  C
  C386     1.0000 0.01994  0.23006  0.63287  Biso   1.000  C
  C387     1.0000 0.97122  0.27878  0.64370  Biso   1.000  C
  C388     1.0000 0.94628  0.30372  0.64900  Biso   1.000  C
  C389     1.0000 0.92511  0.32489  0.65380  Biso   1.000  C
  C390     1.0000 0.89964  0.35036  0.65660  Biso   1.000  C
  C391     1.0000 0.70373  0.70373  0.62155  Biso   1.000  C
  C392     1.0000 0.73006  0.73006  0.61713  Biso   1.000  C
  C393     1.0000 0.77878  0.77878  0.60630  Biso   1.000  C
  C394     1.0000 0.80372  0.80372  0.60100  Biso   1.000  C
  C395     1.0000 0.82489  0.82489  0.59620  Biso   1.000  C
  C396     1.0000 0.85036  0.85036  0.59340  Biso   1.000  C
  C397     1.0000 0.70373  0.20373  0.12155  Biso   1.000  C
  C398     1.0000 0.73006  0.23006  0.11713  Biso   1.000  C
  C399     1.0000 0.77878  0.27878  0.10630  Biso   1.000  C
  C400     1.0000 0.80372  0.30372  0.10100  Biso   1.000  C
  C401     1.0000 0.82489  0.32489  0.09620  Biso   1.000  C
  C402     1.0000 0.85036  0.35036  0.09340  Biso   1.000  C
  C403     1.0000 0.20373  0.70373  0.12155  Biso   1.000  C
  C404     1.0000 0.23006  0.73006  0.11713  Biso   1.000  C
  C405     1.0000 0.27878  0.77878  0.10630  Biso   1.000  C
  C406     1.0000 0.30372  0.80372  0.10100  Biso   1.000  C
  C407     1.0000 0.32489  0.82489  0.09620  Biso   1.000  C
  C408     1.0000 0.35036  0.85036  0.09340  Biso   1.000  C
  C409     1.0000 0.20373  0.20373  0.62155  Biso   1.000  C
  C410     1.0000 0.23006  0.23006  0.61713  Biso   1.000  C
  C411     1.0000 0.27878  0.27878  0.60630  Biso   1.000  C
  C412     1.0000 0.30372  0.30372  0.60100  Biso   1.000  C
  C413     1.0000 0.32489  0.32489  0.59620  Biso   1.000  C
  C414     1.0000 0.35036  0.35036  0.59340  Biso   1.000  C
  C415     1.0000 0.20373  0.04627  0.62845  Biso   1.000  C
  C416     1.0000 0.23006  0.01994  0.63287  Biso   1.000  C
  C417     1.0000 0.27878  0.97122  0.64370  Biso   1.000  C
  C418     1.0000 0.30372  0.94628  0.64900  Biso   1.000  C
  C419     1.0000 0.32489  0.92511  0.65380  Biso   1.000  C
  C420     1.0000 0.35036  0.89964  0.65660  Biso   1.000  C
  C421     1.0000 0.70373  0.04627  0.12845  Biso   1.000  C
  C422     1.0000 0.73006  0.01994  0.13287  Biso   1.000  C
  C423     1.0000 0.77878  0.97122  0.14370  Biso   1.000  C
  C424     1.0000 0.80372  0.94628  0.14900  Biso   1.000  C
  C425     1.0000 0.82489  0.92511  0.15380  Biso   1.000  C
  C426     1.0000 0.85036  0.89964  0.15660  Biso   1.000  C
  C427     1.0000 0.12155  0.04627  0.54627  Biso   1.000  C
  C428     1.0000 0.11713  0.01994  0.51994  Biso   1.000  C
  C429     1.0000 0.10630  0.97122  0.47122  Biso   1.000  C
  C430     1.0000 0.10100  0.94628  0.44628  Biso   1.000  C
  C431     1.0000 0.09620  0.92511  0.42511  Biso   1.000  C
  C432     1.0000 0.09340  0.89964  0.39964  Biso   1.000  C
  C433     1.0000 0.62155  0.04627  0.04627  Biso   1.000  C
  C434     1.0000 0.61713  0.01994  0.01994  Biso   1.000  C
  C435     1.0000 0.60630  0.97122  0.97122  Biso   1.000  C
  C436     1.0000 0.60100  0.94628  0.94628  Biso   1.000  C
  C437     1.0000 0.59620  0.92511  0.92511  Biso   1.000  C
  C438     1.0000 0.59340  0.89964  0.89964  Biso   1.000  C
  C439     1.0000 0.62155  0.54627  0.54627  Biso   1.000  C
  C440     1.0000 0.61713  0.51994  0.51994  Biso   1.000  C
  C441     1.0000 0.60630  0.47122  0.47122  Biso   1.000  C
  C442     1.0000 0.60100  0.44628  0.44628  Biso   1.000  C
  C443     1.0000 0.59620  0.42511  0.42511  Biso   1.000  C
  C444     1.0000 0.59340  0.39964  0.39964  Biso   1.000  C
  C445     1.0000 0.12845  0.54627  0.20373  Biso   1.000  C
  C446     1.0000 0.13287  0.51994  0.23006  Biso   1.000  C
  C447     1.0000 0.14370  0.47122  0.27878  Biso   1.000  C
  C448     1.0000 0.14900  0.44628  0.30372  Biso   1.000  C
  C449     1.0000 0.15380  0.42511  0.32489  Biso   1.000  C
  C450     1.0000 0.15660  0.39964  0.35036  Biso   1.000  C
  C451     1.0000 0.12845  0.04627  0.70373  Biso   1.000  C
  C452     1.0000 0.13287  0.01994  0.73006  Biso   1.000  C
  C453     1.0000 0.14370  0.97122  0.77878  Biso   1.000  C
  C454     1.0000 0.14900  0.94628  0.80372  Biso   1.000  C
  C455     1.0000 0.15380  0.92511  0.82489  Biso   1.000  C
  C456     1.0000 0.15660  0.89964  0.85036  Biso   1.000  C
  C457     1.0000 0.62845  0.04627  0.20373  Biso   1.000  C
  C458     1.0000 0.63287  0.01994  0.23006  Biso   1.000  C
  C459     1.0000 0.64370  0.97122  0.27878  Biso   1.000  C
  C460     1.0000 0.64900  0.94628  0.30372  Biso   1.000  C
  C461     1.0000 0.65380  0.92511  0.32489  Biso   1.000  C
  C462     1.0000 0.65660  0.89964  0.35036  Biso   1.000  C
  C463     1.0000 0.62155  0.70373  0.70373  Biso   1.000  C
  C464     1.0000 0.61713  0.73006  0.73006  Biso   1.000  C
  C465     1.0000 0.60630  0.77878  0.77878  Biso   1.000  C
  C466     1.0000 0.60100  0.80372  0.80372  Biso   1.000  C
  C467     1.0000 0.59620  0.82489  0.82489  Biso   1.000  C
  C468     1.0000 0.59340  0.85036  0.85036  Biso   1.000  C
  C469     1.0000 0.62155  0.20373  0.20373  Biso   1.000  C
  C470     1.0000 0.61713  0.23006  0.23006  Biso   1.000  C
  C471     1.0000 0.60630  0.27878  0.27878  Biso   1.000  C
  C472     1.0000 0.60100  0.30372  0.30372  Biso   1.000  C
  C473     1.0000 0.59620  0.32489  0.32489  Biso   1.000  C
  C474     1.0000 0.59340  0.35036  0.35036  Biso   1.000  C
  C475     1.0000 0.12155  0.70373  0.20373  Biso   1.000  C
  C476     1.0000 0.11713  0.73006  0.23006  Biso   1.000  C
  C477     1.0000 0.10630  0.77878  0.27878  Biso   1.000  C
  C478     1.0000 0.10100  0.80372  0.30372  Biso   1.000  C
  C479     1.0000 0.09620  0.82489  0.32489  Biso   1.000  C
  C480     1.0000 0.09340  0.85036  0.35036  Biso   1.000  C
  C481     1.0000 0.12155  0.20373  0.70373  Biso   1.000  C
  C482     1.0000 0.11713  0.23006  0.73006  Biso   1.000  C
  C483     1.0000 0.10630  0.27878  0.77878  Biso   1.000  C
  C484     1.0000 0.10100  0.30372  0.80372  Biso   1.000  C
  C485     1.0000 0.09620  0.32489  0.82489  Biso   1.000  C
  C486     1.0000 0.09340  0.35036  0.85036  Biso   1.000  C
  C487     1.0000 0.62845  0.20373  0.04627  Biso   1.000  C
  C488     1.0000 0.63287  0.23006  0.01994  Biso   1.000  C
  C489     1.0000 0.64370  0.27878  0.97122  Biso   1.000  C
  C490     1.0000 0.64900  0.30372  0.94628  Biso   1.000  C
  C491     1.0000 0.65380  0.32489  0.92511  Biso   1.000  C
  C492     1.0000 0.65660  0.35036  0.89964  Biso   1.000  C
  C493     1.0000 0.62845  0.70373  0.54627  Biso   1.000  C
  C494     1.0000 0.63287  0.73006  0.51994  Biso   1.000  C
  C495     1.0000 0.64370  0.77878  0.47122  Biso   1.000  C
  C496     1.0000 0.64900  0.80372  0.44628  Biso   1.000  C
  C497     1.0000 0.65380  0.82489  0.42511  Biso   1.000  C
  C498     1.0000 0.65660  0.85036  0.39964  Biso   1.000  C
  C499     1.0000 0.12845  0.20373  0.54627  Biso   1.000  C
  C500     1.0000 0.13287  0.23006  0.51994  Biso   1.000  C
  C501     1.0000 0.14370  0.27878  0.47122  Biso   1.000  C
  C502     1.0000 0.14900  0.30372  0.44628  Biso   1.000  C
  C503     1.0000 0.15380  0.32489  0.42511  Biso   1.000  C
  C504     1.0000 0.15660  0.35036  0.39964  Biso   1.000  C
  C505     1.0000 0.12845  0.70373  0.04627  Biso   1.000  C
  C506     1.0000 0.13287  0.73006  0.01994  Biso   1.000  C
  C507     1.0000 0.14370  0.77878  0.97122  Biso   1.000  C
  C508     1.0000 0.14900  0.80372  0.94628  Biso   1.000  C
  C509     1.0000 0.15380  0.82489  0.92511  Biso   1.000  C
  C510     1.0000 0.15660  0.85036  0.89964  Biso   1.000  C
  C511     1.0000 0.12155  0.54627  0.04627  Biso   1.000  C
  C512     1.0000 0.11713  0.51994  0.01994  Biso   1.000  C
  C513     1.0000 0.10630  0.47122  0.97122  Biso   1.000  C
  C514     1.0000 0.10100  0.44628  0.94628  Biso   1.000  C
  C515     1.0000 0.09620  0.42511  0.92511  Biso   1.000  C
  C516     1.0000 0.09340  0.39964  0.89964  Biso   1.000  C
  C517     1.0000 0.62845  0.54627  0.70373  Biso   1.000  C
  C518     1.0000 0.63287  0.51994  0.73006  Biso   1.000  C
  C519     1.0000 0.64370  0.47122  0.77878  Biso   1.000  C
  C520     1.0000 0.64900  0.44628  0.80372  Biso   1.000  C
  C521     1.0000 0.65380  0.42511  0.82489  Biso   1.000  C
  C522     1.0000 0.65660  0.39964  0.85036  Biso   1.000  C
  C523     1.0000 0.04627  0.70373  0.12845  Biso   1.000  C
  C524     1.0000 0.01994  0.73006  0.13287  Biso   1.000  C
  C525     1.0000 0.97122  0.77878  0.14370  Biso   1.000  C
  C526     1.0000 0.94628  0.80372  0.14900  Biso   1.000  C
  C527     1.0000 0.92511  0.82489  0.15380  Biso   1.000  C
  C528     1.0000 0.89964  0.85036  0.15660  Biso   1.000  C
  C529     1.0000 0.54627  0.04627  0.12155  Biso   1.000  C
  C530     1.0000 0.51994  0.01994  0.11713  Biso   1.000  C
  C531     1.0000 0.47122  0.97122  0.10630  Biso   1.000  C
  C532     1.0000 0.44628  0.94628  0.10100  Biso   1.000  C
  C533     1.0000 0.42511  0.92511  0.09620  Biso   1.000  C
  C534     1.0000 0.39964  0.89964  0.09340  Biso   1.000  C
  C535     1.0000 0.20373  0.54627  0.12845  Biso   1.000  C
  C536     1.0000 0.23006  0.51994  0.13287  Biso   1.000  C
  C537     1.0000 0.27878  0.47122  0.14370  Biso   1.000  C
  C538     1.0000 0.30372  0.44628  0.14900  Biso   1.000  C
  C539     1.0000 0.32489  0.42511  0.15380  Biso   1.000  C
  C540     1.0000 0.35036  0.39964  0.15660  Biso   1.000  C
  C541     1.0000 0.70373  0.54627  0.62845  Biso   1.000  C
  C542     1.0000 0.73006  0.51994  0.63287  Biso   1.000  C
  C543     1.0000 0.77878  0.47122  0.64370  Biso   1.000  C
  C544     1.0000 0.80372  0.44628  0.64900  Biso   1.000  C
  C545     1.0000 0.82489  0.42511  0.65380  Biso   1.000  C
  C546     1.0000 0.85036  0.39964  0.65660  Biso   1.000  C
  C547     1.0000 0.70373  0.62845  0.54627  Biso   1.000  C
  C548     1.0000 0.73006  0.63287  0.51994  Biso   1.000  C
  C549     1.0000 0.77878  0.64370  0.47122  Biso   1.000  C
  C550     1.0000 0.80372  0.64900  0.44628  Biso   1.000  C
  C551     1.0000 0.82489  0.65380  0.42511  Biso   1.000  C
  C552     1.0000 0.85036  0.65660  0.39964  Biso   1.000  C
  C553     1.0000 0.54627  0.12845  0.20373  Biso   1.000  C
  C554     1.0000 0.51994  0.13287  0.23006  Biso   1.000  C
  C555     1.0000 0.47122  0.14370  0.27878  Biso   1.000  C
  C556     1.0000 0.44628  0.14900  0.30372  Biso   1.000  C
  C557     1.0000 0.42511  0.15380  0.32489  Biso   1.000  C
  C558     1.0000 0.39964  0.15660  0.35036  Biso   1.000  C
  C559     1.0000 0.54627  0.62845  0.70373  Biso   1.000  C
  C560     1.0000 0.51994  0.63287  0.73006  Biso   1.000  C
  C561     1.0000 0.47122  0.64370  0.77878  Biso   1.000  C
  C562     1.0000 0.44628  0.64900  0.80372  Biso   1.000  C
  C563     1.0000 0.42511  0.65380  0.82489  Biso   1.000  C
  C564     1.0000 0.39964  0.65660  0.85036  Biso   1.000  C
  C565     1.0000 0.04627  0.12155  0.54627  Biso   1.000  C
  C566     1.0000 0.01994  0.11713  0.51994  Biso   1.000  C
  C567     1.0000 0.97122  0.10630  0.47122  Biso   1.000  C
  C568     1.0000 0.94628  0.10100  0.44628  Biso   1.000  C
  C569     1.0000 0.92511  0.09620  0.42511  Biso   1.000  C
  C570     1.0000 0.89964  0.09340  0.39964  Biso   1.000  C
  C571     1.0000 0.04627  0.62155  0.04627  Biso   1.000  C
  C572     1.0000 0.01994  0.61713  0.01994  Biso   1.000  C
  C573     1.0000 0.97122  0.60630  0.97122  Biso   1.000  C
  C574     1.0000 0.94628  0.60100  0.94628  Biso   1.000  C
  C575     1.0000 0.92511  0.59620  0.92511  Biso   1.000  C
  C576     1.0000 0.89964  0.59340  0.89964  Biso   1.000  C
  O129     1.0000 0.87415  0.78554  0.42312  Biso   1.000  O
  C577     1.0000 0.86396  0.73642  0.47021  Biso   1.000  C
  C578     1.0000 0.85766  0.71252  0.49461  Biso   1.000  C
  H289     1.0000 0.86610  0.73020  0.44730  Biso   1.000  H
  H290     1.0000 0.85420  0.68980  0.48820  Biso   1.000  H
  C579     1.0000 0.84170  0.61672  0.59165  Biso   1.000  C
  H291     1.0000 0.84050  0.61050  0.56860  Biso   1.000  H
  O130     1.0000 0.87415  0.28554  0.92312  Biso   1.000  O
  C580     1.0000 0.86396  0.23642  0.97021  Biso   1.000  C
  C581     1.0000 0.85766  0.21252  0.99461  Biso   1.000  C
  H292     1.0000 0.86610  0.23020  0.94730  Biso   1.000  H
  H293     1.0000 0.85420  0.18980  0.98820  Biso   1.000  H
  C582     1.0000 0.84170  0.11672  0.09165  Biso   1.000  C
  H294     1.0000 0.84050  0.11050  0.06860  Biso   1.000  H
  O131     1.0000 0.37415  0.78554  0.92312  Biso   1.000  O
  C583     1.0000 0.36396  0.73642  0.97021  Biso   1.000  C
  C584     1.0000 0.35766  0.71252  0.99461  Biso   1.000  C
  H295     1.0000 0.36610  0.73020  0.94730  Biso   1.000  H
  H296     1.0000 0.35420  0.68980  0.98820  Biso   1.000  H
  C585     1.0000 0.34170  0.61672  0.09165  Biso   1.000  C
  H297     1.0000 0.34050  0.61050  0.06860  Biso   1.000  H
  O132     1.0000 0.37415  0.28554  0.42312  Biso   1.000  O
  C586     1.0000 0.36396  0.23642  0.47021  Biso   1.000  C
  C587     1.0000 0.35766  0.21252  0.49461  Biso   1.000  C
  H298     1.0000 0.36610  0.23020  0.44730  Biso   1.000  H
  H299     1.0000 0.35420  0.18980  0.48820  Biso   1.000  H
  C588     1.0000 0.34170  0.11672  0.59165  Biso   1.000  C
  H300     1.0000 0.34050  0.11050  0.56860  Biso   1.000  H
  O133     1.0000 0.87585  0.46446  0.92312  Biso   1.000  O
  C589     1.0000 0.88604  0.51358  0.97021  Biso   1.000  C
  C590     1.0000 0.89234  0.53748  0.99461  Biso   1.000  C
  H301     1.0000 0.88390  0.51980  0.94730  Biso   1.000  H
  H302     1.0000 0.89580  0.56020  0.98820  Biso   1.000  H
  C591     1.0000 0.90830  0.63328  0.09165  Biso   1.000  C
  H303     1.0000 0.90950  0.63950  0.06860  Biso   1.000  H
  O134     1.0000 0.87585  0.96446  0.42312  Biso   1.000  O
  C592     1.0000 0.88604  0.01358  0.47021  Biso   1.000  C
  C593     1.0000 0.89234  0.03748  0.49461  Biso   1.000  C
  H304     1.0000 0.88390  0.01980  0.44730  Biso   1.000  H
  H305     1.0000 0.89580  0.06020  0.48820  Biso   1.000  H
  C594     1.0000 0.90830  0.13328  0.59165  Biso   1.000  C
  H306     1.0000 0.90950  0.13950  0.56860  Biso   1.000  H
  O135     1.0000 0.37585  0.46446  0.42312  Biso   1.000  O
  C595     1.0000 0.38604  0.51358  0.47021  Biso   1.000  C
  C596     1.0000 0.39234  0.53748  0.49461  Biso   1.000  C
  H307     1.0000 0.38390  0.51980  0.44730  Biso   1.000  H
  H308     1.0000 0.39580  0.56020  0.48820  Biso   1.000  H
  C597     1.0000 0.40830  0.63328  0.59165  Biso   1.000  C
  H309     1.0000 0.40950  0.63950  0.56860  Biso   1.000  H
  O136     1.0000 0.37585  0.96446  0.92312  Biso   1.000  O
  C598     1.0000 0.38604  0.01358  0.97021  Biso   1.000  C
  C599     1.0000 0.39234  0.03748  0.99461  Biso   1.000  C
  H310     1.0000 0.38390  0.01980  0.94730  Biso   1.000  H
  H311     1.0000 0.39580  0.06020  0.98820  Biso   1.000  H
  C600     1.0000 0.40830  0.13328  0.09165  Biso   1.000  C
  H312     1.0000 0.40950  0.13950  0.06860  Biso   1.000  H
  O137     1.0000 0.37415  0.96446  0.82688  Biso   1.000  O
  C601     1.0000 0.36396  0.01358  0.77979  Biso   1.000  C
  C602     1.0000 0.35766  0.03748  0.75539  Biso   1.000  C
  H313     1.0000 0.36610  0.01980  0.80270  Biso   1.000  H
  H314     1.0000 0.35420  0.06020  0.76180  Biso   1.000  H
  C603     1.0000 0.34170  0.13328  0.65835  Biso   1.000  C
  H315     1.0000 0.34050  0.13950  0.68140  Biso   1.000  H
  O138     1.0000 0.37415  0.46446  0.32688  Biso   1.000  O
  C604     1.0000 0.36396  0.51358  0.27979  Biso   1.000  C
  C605     1.0000 0.35766  0.53748  0.25539  Biso   1.000  C
  H316     1.0000 0.36610  0.51980  0.30270  Biso   1.000  H
  H317     1.0000 0.35420  0.56020  0.26180  Biso   1.000  H
  C606     1.0000 0.34170  0.63328  0.15835  Biso   1.000  C
  H318     1.0000 0.34050  0.63950  0.18140  Biso   1.000  H
  O139     1.0000 0.87415  0.96446  0.32688  Biso   1.000  O
  C607     1.0000 0.86396  0.01358  0.27979  Biso   1.000  C
  C608     1.0000 0.85766  0.03748  0.25539  Biso   1.000  C
  H319     1.0000 0.86610  0.01980  0.30270  Biso   1.000  H
  H320     1.0000 0.85420  0.06020  0.26180  Biso   1.000  H
  C609     1.0000 0.84170  0.13328  0.15835  Biso   1.000  C
  H321     1.0000 0.84050  0.13950  0.18140  Biso   1.000  H
  O140     1.0000 0.87415  0.46446  0.82688  Biso   1.000  O
  C610     1.0000 0.86396  0.51358  0.77979  Biso   1.000  C
  C611     1.0000 0.85766  0.53748  0.75539  Biso   1.000  C
  H322     1.0000 0.86610  0.51980  0.80270  Biso   1.000  H
  H323     1.0000 0.85420  0.56020  0.76180  Biso   1.000  H
  C612     1.0000 0.84170  0.63328  0.65835  Biso   1.000  C
  H324     1.0000 0.84050  0.63950  0.68140  Biso   1.000  H
  O141     1.0000 0.37585  0.28554  0.32688  Biso   1.000  O
  C613     1.0000 0.38604  0.23642  0.27979  Biso   1.000  C
  C614     1.0000 0.39234  0.21252  0.25539  Biso   1.000  C
  H325     1.0000 0.38390  0.23020  0.30270  Biso   1.000  H
  H326     1.0000 0.39580  0.18980  0.26180  Biso   1.000  H
  C615     1.0000 0.40830  0.11672  0.15835  Biso   1.000  C
  H327     1.0000 0.40950  0.11050  0.18140  Biso   1.000  H
  O142     1.0000 0.37585  0.78554  0.82688  Biso   1.000  O
  C616     1.0000 0.38604  0.73642  0.77979  Biso   1.000  C
  C617     1.0000 0.39234  0.71252  0.75539  Biso   1.000  C
  H328     1.0000 0.38390  0.73020  0.80270  Biso   1.000  H
  H329     1.0000 0.39580  0.68980  0.76180  Biso   1.000  H
  C618     1.0000 0.40830  0.61672  0.65835  Biso   1.000  C
  H330     1.0000 0.40950  0.61050  0.68140  Biso   1.000  H
  O143     1.0000 0.87585  0.28554  0.82688  Biso   1.000  O
  C619     1.0000 0.88604  0.23642  0.77979  Biso   1.000  C
  C620     1.0000 0.89234  0.21252  0.75539  Biso   1.000  C
  H331     1.0000 0.88390  0.23020  0.80270  Biso   1.000  H
  H332     1.0000 0.89580  0.18980  0.76180  Biso   1.000  H
  C621     1.0000 0.90830  0.11672  0.65835  Biso   1.000  C
  H333     1.0000 0.90950  0.11050  0.68140  Biso   1.000  H
  O144     1.0000 0.87585  0.78554  0.32688  Biso   1.000  O
  C622     1.0000 0.88604  0.73642  0.27979  Biso   1.000  C
  C623     1.0000 0.89234  0.71252  0.25539  Biso   1.000  C
  H334     1.0000 0.88390  0.73020  0.30270  Biso   1.000  H
  H335     1.0000 0.89580  0.68980  0.26180  Biso   1.000  H
  C624     1.0000 0.90830  0.61672  0.15835  Biso   1.000  C
  H336     1.0000 0.90950  0.61050  0.18140  Biso   1.000  H
  O145     1.0000 0.28554  0.32688  0.37585  Biso   1.000  O
  C625     1.0000 0.23642  0.27979  0.38604  Biso   1.000  C
  C626     1.0000 0.21252  0.25539  0.39234  Biso   1.000  C
  H337     1.0000 0.23020  0.30270  0.38390  Biso   1.000  H
  H338     1.0000 0.18980  0.26180  0.39580  Biso   1.000  H
  C627     1.0000 0.11672  0.15835  0.40830  Biso   1.000  C
  H339     1.0000 0.11050  0.18140  0.40950  Biso   1.000  H
  O146     1.0000 0.28554  0.82688  0.87585  Biso   1.000  O
  C628     1.0000 0.23642  0.77979  0.88604  Biso   1.000  C
  C629     1.0000 0.21252  0.75539  0.89234  Biso   1.000  C
  H340     1.0000 0.23020  0.80270  0.88390  Biso   1.000  H
  H341     1.0000 0.18980  0.76180  0.89580  Biso   1.000  H
  C630     1.0000 0.11672  0.65835  0.90830  Biso   1.000  C
  H342     1.0000 0.11050  0.68140  0.90950  Biso   1.000  H
  O147     1.0000 0.78554  0.32688  0.87585  Biso   1.000  O
  C631     1.0000 0.73642  0.27979  0.88604  Biso   1.000  C
  C632     1.0000 0.71252  0.25539  0.89234  Biso   1.000  C
  H343     1.0000 0.73020  0.30270  0.88390  Biso   1.000  H
  H344     1.0000 0.68980  0.26180  0.89580  Biso   1.000  H
  C633     1.0000 0.61672  0.15835  0.90830  Biso   1.000  C
  H345     1.0000 0.61050  0.18140  0.90950  Biso   1.000  H
  O148     1.0000 0.78554  0.82688  0.37585  Biso   1.000  O
  C634     1.0000 0.73642  0.77979  0.38604  Biso   1.000  C
  C635     1.0000 0.71252  0.75539  0.39234  Biso   1.000  C
  H346     1.0000 0.73020  0.80270  0.38390  Biso   1.000  H
  H347     1.0000 0.68980  0.76180  0.39580  Biso   1.000  H
  C636     1.0000 0.61672  0.65835  0.40830  Biso   1.000  C
  H348     1.0000 0.61050  0.68140  0.40950  Biso   1.000  H
  O149     1.0000 0.96446  0.82688  0.37415  Biso   1.000  O
  C637     1.0000 0.01358  0.77979  0.36396  Biso   1.000  C
  C638     1.0000 0.03748  0.75539  0.35766  Biso   1.000  C
  H349     1.0000 0.01980  0.80270  0.36610  Biso   1.000  H
  H350     1.0000 0.06020  0.76180  0.35420  Biso   1.000  H
  C639     1.0000 0.13328  0.65835  0.34170  Biso   1.000  C
  H351     1.0000 0.13950  0.68140  0.34050  Biso   1.000  H
  O150     1.0000 0.96446  0.32688  0.87415  Biso   1.000  O
  C640     1.0000 0.01358  0.27979  0.86396  Biso   1.000  C
  C641     1.0000 0.03748  0.25539  0.85766  Biso   1.000  C
  H352     1.0000 0.01980  0.30270  0.86610  Biso   1.000  H
  H353     1.0000 0.06020  0.26180  0.85420  Biso   1.000  H
  C642     1.0000 0.13328  0.15835  0.84170  Biso   1.000  C
  H354     1.0000 0.13950  0.18140  0.84050  Biso   1.000  H
  O151     1.0000 0.46446  0.82688  0.87415  Biso   1.000  O
  C643     1.0000 0.51358  0.77979  0.86396  Biso   1.000  C
  C644     1.0000 0.53748  0.75539  0.85766  Biso   1.000  C
  H355     1.0000 0.51980  0.80270  0.86610  Biso   1.000  H
  H356     1.0000 0.56020  0.76180  0.85420  Biso   1.000  H
  C645     1.0000 0.63328  0.65835  0.84170  Biso   1.000  C
  H357     1.0000 0.63950  0.68140  0.84050  Biso   1.000  H
  O152     1.0000 0.46446  0.32688  0.37415  Biso   1.000  O
  C646     1.0000 0.51358  0.27979  0.36396  Biso   1.000  C
  C647     1.0000 0.53748  0.25539  0.35766  Biso   1.000  C
  H358     1.0000 0.51980  0.30270  0.36610  Biso   1.000  H
  H359     1.0000 0.56020  0.26180  0.35420  Biso   1.000  H
  C648     1.0000 0.63328  0.15835  0.34170  Biso   1.000  C
  H360     1.0000 0.63950  0.18140  0.34050  Biso   1.000  H
  O153     1.0000 0.46446  0.92312  0.87585  Biso   1.000  O
  C649     1.0000 0.51358  0.97021  0.88604  Biso   1.000  C
  C650     1.0000 0.53748  0.99461  0.89234  Biso   1.000  C
  H361     1.0000 0.51980  0.94730  0.88390  Biso   1.000  H
  H362     1.0000 0.56020  0.98820  0.89580  Biso   1.000  H
  C651     1.0000 0.63328  0.09165  0.90830  Biso   1.000  C
  H363     1.0000 0.63950  0.06860  0.90950  Biso   1.000  H
  O154     1.0000 0.46446  0.42312  0.37585  Biso   1.000  O
  C652     1.0000 0.51358  0.47021  0.38604  Biso   1.000  C
  C653     1.0000 0.53748  0.49461  0.39234  Biso   1.000  C
  H364     1.0000 0.51980  0.44730  0.38390  Biso   1.000  H
  H365     1.0000 0.56020  0.48820  0.39580  Biso   1.000  H
  C654     1.0000 0.63328  0.59165  0.40830  Biso   1.000  C
  H366     1.0000 0.63950  0.56860  0.40950  Biso   1.000  H
  O155     1.0000 0.96446  0.92312  0.37585  Biso   1.000  O
  C655     1.0000 0.01358  0.97021  0.38604  Biso   1.000  C
  C656     1.0000 0.03748  0.99461  0.39234  Biso   1.000  C
  H367     1.0000 0.01980  0.94730  0.38390  Biso   1.000  H
  H368     1.0000 0.06020  0.98820  0.39580  Biso   1.000  H
  C657     1.0000 0.13328  0.09165  0.40830  Biso   1.000  C
  H369     1.0000 0.13950  0.06860  0.40950  Biso   1.000  H
  O156     1.0000 0.96446  0.42312  0.87585  Biso   1.000  O
  C658     1.0000 0.01358  0.47021  0.88604  Biso   1.000  C
  C659     1.0000 0.03748  0.49461  0.89234  Biso   1.000  C
  H370     1.0000 0.01980  0.44730  0.88390  Biso   1.000  H
  H371     1.0000 0.06020  0.48820  0.89580  Biso   1.000  H
  C660     1.0000 0.13328  0.59165  0.90830  Biso   1.000  C
  H372     1.0000 0.13950  0.56860  0.90950  Biso   1.000  H
  O157     1.0000 0.78554  0.42312  0.87415  Biso   1.000  O
  C661     1.0000 0.73642  0.47021  0.86396  Biso   1.000  C
  C662     1.0000 0.71252  0.49461  0.85766  Biso   1.000  C
  H373     1.0000 0.73020  0.44730  0.86610  Biso   1.000  H
  H374     1.0000 0.68980  0.48820  0.85420  Biso   1.000  H
  C663     1.0000 0.61672  0.59165  0.84170  Biso   1.000  C
  H375     1.0000 0.61050  0.56860  0.84050  Biso   1.000  H
  O158     1.0000 0.78554  0.92312  0.37415  Biso   1.000  O
  C664     1.0000 0.73642  0.97021  0.36396  Biso   1.000  C
  C665     1.0000 0.71252  0.99461  0.35766  Biso   1.000  C
  H376     1.0000 0.73020  0.94730  0.36610  Biso   1.000  H
  H377     1.0000 0.68980  0.98820  0.35420  Biso   1.000  H
  C666     1.0000 0.61672  0.09165  0.34170  Biso   1.000  C
  H378     1.0000 0.61050  0.06860  0.34050  Biso   1.000  H
  O159     1.0000 0.28554  0.42312  0.37415  Biso   1.000  O
  C667     1.0000 0.23642  0.47021  0.36396  Biso   1.000  C
  C668     1.0000 0.21252  0.49461  0.35766  Biso   1.000  C
  H379     1.0000 0.23020  0.44730  0.36610  Biso   1.000  H
  H380     1.0000 0.18980  0.48820  0.35420  Biso   1.000  H
  C669     1.0000 0.11672  0.59165  0.34170  Biso   1.000  C
  H381     1.0000 0.11050  0.56860  0.34050  Biso   1.000  H
  O160     1.0000 0.28554  0.92312  0.87415  Biso   1.000  O
  C670     1.0000 0.23642  0.97021  0.86396  Biso   1.000  C
  C671     1.0000 0.21252  0.99461  0.85766  Biso   1.000  C
  H382     1.0000 0.23020  0.94730  0.86610  Biso   1.000  H
  H383     1.0000 0.18980  0.98820  0.85420  Biso   1.000  H
  C672     1.0000 0.11672  0.09165  0.84170  Biso   1.000  C
  H384     1.0000 0.11050  0.06860  0.84050  Biso   1.000  H
  O161     1.0000 0.82688  0.37415  0.96446  Biso   1.000  O
  C673     1.0000 0.77979  0.36396  0.01358  Biso   1.000  C
  C674     1.0000 0.75539  0.35766  0.03748  Biso   1.000  C
  H385     1.0000 0.80270  0.36610  0.01980  Biso   1.000  H
  H386     1.0000 0.76180  0.35420  0.06020  Biso   1.000  H
  C675     1.0000 0.65835  0.34170  0.13328  Biso   1.000  C
  H387     1.0000 0.68140  0.34050  0.13950  Biso   1.000  H
  O162     1.0000 0.82688  0.87415  0.46446  Biso   1.000  O
  C676     1.0000 0.77979  0.86396  0.51358  Biso   1.000  C
  C677     1.0000 0.75539  0.85766  0.53748  Biso   1.000  C
  H388     1.0000 0.80270  0.86610  0.51980  Biso   1.000  H
  H389     1.0000 0.76180  0.85420  0.56020  Biso   1.000  H
  C678     1.0000 0.65835  0.84170  0.63328  Biso   1.000  C
  H390     1.0000 0.68140  0.84050  0.63950  Biso   1.000  H
  O163     1.0000 0.32688  0.37415  0.46446  Biso   1.000  O
  C679     1.0000 0.27979  0.36396  0.51358  Biso   1.000  C
  C680     1.0000 0.25539  0.35766  0.53748  Biso   1.000  C
  H391     1.0000 0.30270  0.36610  0.51980  Biso   1.000  H
  H392     1.0000 0.26180  0.35420  0.56020  Biso   1.000  H
  C681     1.0000 0.15835  0.34170  0.63328  Biso   1.000  C
  H393     1.0000 0.18140  0.34050  0.63950  Biso   1.000  H
  O164     1.0000 0.32688  0.87415  0.96446  Biso   1.000  O
  C682     1.0000 0.27979  0.86396  0.01358  Biso   1.000  C
  C683     1.0000 0.25539  0.85766  0.03748  Biso   1.000  C
  H394     1.0000 0.30270  0.86610  0.01980  Biso   1.000  H
  H395     1.0000 0.26180  0.85420  0.06020  Biso   1.000  H
  C684     1.0000 0.15835  0.84170  0.13328  Biso   1.000  C
  H396     1.0000 0.18140  0.84050  0.13950  Biso   1.000  H
  O165     1.0000 0.32688  0.37585  0.28554  Biso   1.000  O
  C685     1.0000 0.27979  0.38604  0.23642  Biso   1.000  C
  C686     1.0000 0.25539  0.39234  0.21252  Biso   1.000  C
  H397     1.0000 0.30270  0.38390  0.23020  Biso   1.000  H
  H398     1.0000 0.26180  0.39580  0.18980  Biso   1.000  H
  C687     1.0000 0.15835  0.40830  0.11672  Biso   1.000  C
  H399     1.0000 0.18140  0.40950  0.11050  Biso   1.000  H
  O166     1.0000 0.32688  0.87585  0.78554  Biso   1.000  O
  C688     1.0000 0.27979  0.88604  0.73642  Biso   1.000  C
  C689     1.0000 0.25539  0.89234  0.71252  Biso   1.000  C
  H400     1.0000 0.30270  0.88390  0.73020  Biso   1.000  H
  H401     1.0000 0.26180  0.89580  0.68980  Biso   1.000  H
  C690     1.0000 0.15835  0.90830  0.61672  Biso   1.000  C
  H402     1.0000 0.18140  0.90950  0.61050  Biso   1.000  H
  O167     1.0000 0.82688  0.37585  0.78554  Biso   1.000  O
  C691     1.0000 0.77979  0.38604  0.73642  Biso   1.000  C
  C692     1.0000 0.75539  0.39234  0.71252  Biso   1.000  C
  H403     1.0000 0.80270  0.38390  0.73020  Biso   1.000  H
  H404     1.0000 0.76180  0.39580  0.68980  Biso   1.000  H
  C693     1.0000 0.65835  0.40830  0.61672  Biso   1.000  C
  H405     1.0000 0.68140  0.40950  0.61050  Biso   1.000  H
  O168     1.0000 0.82688  0.87585  0.28554  Biso   1.000  O
  C694     1.0000 0.77979  0.88604  0.23642  Biso   1.000  C
  C695     1.0000 0.75539  0.89234  0.21252  Biso   1.000  C
  H406     1.0000 0.80270  0.88390  0.23020  Biso   1.000  H
  H407     1.0000 0.76180  0.89580  0.18980  Biso   1.000  H
  C696     1.0000 0.65835  0.90830  0.11672  Biso   1.000  C
  H408     1.0000 0.68140  0.90950  0.11050  Biso   1.000  H
  O169     1.0000 0.42312  0.87415  0.78554  Biso   1.000  O
  C697     1.0000 0.47021  0.86396  0.73642  Biso   1.000  C
  C698     1.0000 0.49461  0.85766  0.71252  Biso   1.000  C
  H409     1.0000 0.44730  0.86610  0.73020  Biso   1.000  H
  H410     1.0000 0.48820  0.85420  0.68980  Biso   1.000  H
  C699     1.0000 0.59165  0.84170  0.61672  Biso   1.000  C
  H411     1.0000 0.56860  0.84050  0.61050  Biso   1.000  H
  O170     1.0000 0.42312  0.37415  0.28554  Biso   1.000  O
  C700     1.0000 0.47021  0.36396  0.23642  Biso   1.000  C
  C701     1.0000 0.49461  0.35766  0.21252  Biso   1.000  C
  H412     1.0000 0.44730  0.36610  0.23020  Biso   1.000  H
  H413     1.0000 0.48820  0.35420  0.18980  Biso   1.000  H
  C702     1.0000 0.59165  0.34170  0.11672  Biso   1.000  C
  H414     1.0000 0.56860  0.34050  0.11050  Biso   1.000  H
  O171     1.0000 0.92312  0.87415  0.28554  Biso   1.000  O
  C703     1.0000 0.97021  0.86396  0.23642  Biso   1.000  C
  C704     1.0000 0.99461  0.85766  0.21252  Biso   1.000  C
  H415     1.0000 0.94730  0.86610  0.23020  Biso   1.000  H
  H416     1.0000 0.98820  0.85420  0.18980  Biso   1.000  H
  C705     1.0000 0.09165  0.84170  0.11672  Biso   1.000  C
  H417     1.0000 0.06860  0.84050  0.11050  Biso   1.000  H
  O172     1.0000 0.92312  0.37415  0.78554  Biso   1.000  O
  C706     1.0000 0.97021  0.36396  0.73642  Biso   1.000  C
  C707     1.0000 0.99461  0.35766  0.71252  Biso   1.000  C
  H418     1.0000 0.94730  0.36610  0.73020  Biso   1.000  H
  H419     1.0000 0.98820  0.35420  0.68980  Biso   1.000  H
  C708     1.0000 0.09165  0.34170  0.61672  Biso   1.000  C
  H420     1.0000 0.06860  0.34050  0.61050  Biso   1.000  H
  O173     1.0000 0.92312  0.87585  0.46446  Biso   1.000  O
  C709     1.0000 0.97021  0.88604  0.51358  Biso   1.000  C
  C710     1.0000 0.99461  0.89234  0.53748  Biso   1.000  C
  H421     1.0000 0.94730  0.88390  0.51980  Biso   1.000  H
  H422     1.0000 0.98820  0.89580  0.56020  Biso   1.000  H
  C711     1.0000 0.09165  0.90830  0.63328  Biso   1.000  C
  H423     1.0000 0.06860  0.90950  0.63950  Biso   1.000  H
  O174     1.0000 0.92312  0.37585  0.96446  Biso   1.000  O
  C712     1.0000 0.97021  0.38604  0.01358  Biso   1.000  C
  C713     1.0000 0.99461  0.39234  0.03748  Biso   1.000  C
  H424     1.0000 0.94730  0.38390  0.01980  Biso   1.000  H
  H425     1.0000 0.98820  0.39580  0.06020  Biso   1.000  H
  C714     1.0000 0.09165  0.40830  0.13328  Biso   1.000  C
  H426     1.0000 0.06860  0.40950  0.13950  Biso   1.000  H
  O175     1.0000 0.42312  0.87585  0.96446  Biso   1.000  O
  C715     1.0000 0.47021  0.88604  0.01358  Biso   1.000  C
  C716     1.0000 0.49461  0.89234  0.03748  Biso   1.000  C
  H427     1.0000 0.44730  0.88390  0.01980  Biso   1.000  H
  H428     1.0000 0.48820  0.89580  0.06020  Biso   1.000  H
  C717     1.0000 0.59165  0.90830  0.13328  Biso   1.000  C
  H429     1.0000 0.56860  0.90950  0.13950  Biso   1.000  H
  O176     1.0000 0.42312  0.37585  0.46446  Biso   1.000  O
  C718     1.0000 0.47021  0.38604  0.51358  Biso   1.000  C
  C719     1.0000 0.49461  0.39234  0.53748  Biso   1.000  C
  H430     1.0000 0.44730  0.38390  0.51980  Biso   1.000  H
  H431     1.0000 0.48820  0.39580  0.56020  Biso   1.000  H
  C720     1.0000 0.59165  0.40830  0.63328  Biso   1.000  C
  H432     1.0000 0.56860  0.40950  0.63950  Biso   1.000  H
  O177     1.0000 0.46446  0.87585  0.92312  Biso   1.000  O
  C721     1.0000 0.51358  0.88604  0.97021  Biso   1.000  C
  C722     1.0000 0.53748  0.89234  0.99461  Biso   1.000  C
  H433     1.0000 0.51980  0.88390  0.94730  Biso   1.000  H
  H434     1.0000 0.56020  0.89580  0.98820  Biso   1.000  H
  C723     1.0000 0.63328  0.90830  0.09165  Biso   1.000  C
  H435     1.0000 0.63950  0.90950  0.06860  Biso   1.000  H
  O178     1.0000 0.46446  0.37585  0.42312  Biso   1.000  O
  C724     1.0000 0.51358  0.38604  0.47021  Biso   1.000  C
  C725     1.0000 0.53748  0.39234  0.49461  Biso   1.000  C
  H436     1.0000 0.51980  0.38390  0.44730  Biso   1.000  H
  H437     1.0000 0.56020  0.39580  0.48820  Biso   1.000  H
  C726     1.0000 0.63328  0.40830  0.59165  Biso   1.000  C
  H438     1.0000 0.63950  0.40950  0.56860  Biso   1.000  H
  O179     1.0000 0.96446  0.87585  0.42312  Biso   1.000  O
  C727     1.0000 0.01358  0.88604  0.47021  Biso   1.000  C
  C728     1.0000 0.03748  0.89234  0.49461  Biso   1.000  C
  H439     1.0000 0.01980  0.88390  0.44730  Biso   1.000  H
  H440     1.0000 0.06020  0.89580  0.48820  Biso   1.000  H
  C729     1.0000 0.13328  0.90830  0.59165  Biso   1.000  C
  H441     1.0000 0.13950  0.90950  0.56860  Biso   1.000  H
  O180     1.0000 0.96446  0.37585  0.92312  Biso   1.000  O
  C730     1.0000 0.01358  0.38604  0.97021  Biso   1.000  C
  C731     1.0000 0.03748  0.39234  0.99461  Biso   1.000  C
  H442     1.0000 0.01980  0.38390  0.94730  Biso   1.000  H
  H443     1.0000 0.06020  0.39580  0.98820  Biso   1.000  H
  C732     1.0000 0.13328  0.40830  0.09165  Biso   1.000  C
  H444     1.0000 0.13950  0.40950  0.06860  Biso   1.000  H
  O181     1.0000 0.78554  0.87415  0.42312  Biso   1.000  O
  C733     1.0000 0.73642  0.86396  0.47021  Biso   1.000  C
  C734     1.0000 0.71252  0.85766  0.49461  Biso   1.000  C
  H445     1.0000 0.73020  0.86610  0.44730  Biso   1.000  H
  H446     1.0000 0.68980  0.85420  0.48820  Biso   1.000  H
  C735     1.0000 0.61672  0.84170  0.59165  Biso   1.000  C
  H447     1.0000 0.61050  0.84050  0.56860  Biso   1.000  H
  O182     1.0000 0.78554  0.37415  0.92312  Biso   1.000  O
  C736     1.0000 0.73642  0.36396  0.97021  Biso   1.000  C
  C737     1.0000 0.71252  0.35766  0.99461  Biso   1.000  C
  H448     1.0000 0.73020  0.36610  0.94730  Biso   1.000  H
  H449     1.0000 0.68980  0.35420  0.98820  Biso   1.000  H
  C738     1.0000 0.61672  0.34170  0.09165  Biso   1.000  C
  H450     1.0000 0.61050  0.34050  0.06860  Biso   1.000  H
  O183     1.0000 0.28554  0.87415  0.92312  Biso   1.000  O
  C739     1.0000 0.23642  0.86396  0.97021  Biso   1.000  C
  C740     1.0000 0.21252  0.85766  0.99461  Biso   1.000  C
  H451     1.0000 0.23020  0.86610  0.94730  Biso   1.000  H
  H452     1.0000 0.18980  0.85420  0.98820  Biso   1.000  H
  C741     1.0000 0.11672  0.84170  0.09165  Biso   1.000  C
  H453     1.0000 0.11050  0.84050  0.06860  Biso   1.000  H
  O184     1.0000 0.28554  0.37415  0.42312  Biso   1.000  O
  C742     1.0000 0.23642  0.36396  0.47021  Biso   1.000  C
  C743     1.0000 0.21252  0.35766  0.49461  Biso   1.000  C
  H454     1.0000 0.23020  0.36610  0.44730  Biso   1.000  H
  H455     1.0000 0.18980  0.35420  0.48820  Biso   1.000  H
  C744     1.0000 0.11672  0.34170  0.59165  Biso   1.000  C
  H456     1.0000 0.11050  0.34050  0.56860  Biso   1.000  H
  O185     1.0000 0.28554  0.37585  0.32688  Biso   1.000  O
  C745     1.0000 0.23642  0.38604  0.27979  Biso   1.000  C
  C746     1.0000 0.21252  0.39234  0.25539  Biso   1.000  C
  H457     1.0000 0.23020  0.38390  0.30270  Biso   1.000  H
  H458     1.0000 0.18980  0.39580  0.26180  Biso   1.000  H
  C747     1.0000 0.11672  0.40830  0.15835  Biso   1.000  C
  H459     1.0000 0.11050  0.40950  0.18140  Biso   1.000  H
  O186     1.0000 0.28554  0.87585  0.82688  Biso   1.000  O
  C748     1.0000 0.23642  0.88604  0.77979  Biso   1.000  C
  C749     1.0000 0.21252  0.89234  0.75539  Biso   1.000  C
  H460     1.0000 0.23020  0.88390  0.80270  Biso   1.000  H
  H461     1.0000 0.18980  0.89580  0.76180  Biso   1.000  H
  C750     1.0000 0.11672  0.90830  0.65835  Biso   1.000  C
  H462     1.0000 0.11050  0.90950  0.68140  Biso   1.000  H
  O187     1.0000 0.78554  0.37585  0.82688  Biso   1.000  O
  C751     1.0000 0.73642  0.38604  0.77979  Biso   1.000  C
  C752     1.0000 0.71252  0.39234  0.75539  Biso   1.000  C
  H463     1.0000 0.73020  0.38390  0.80270  Biso   1.000  H
  H464     1.0000 0.68980  0.39580  0.76180  Biso   1.000  H
  C753     1.0000 0.61672  0.40830  0.65835  Biso   1.000  C
  H465     1.0000 0.61050  0.40950  0.68140  Biso   1.000  H
  O188     1.0000 0.78554  0.87585  0.32688  Biso   1.000  O
  C754     1.0000 0.73642  0.88604  0.27979  Biso   1.000  C
  C755     1.0000 0.71252  0.89234  0.25539  Biso   1.000  C
  H466     1.0000 0.73020  0.88390  0.30270  Biso   1.000  H
  H467     1.0000 0.68980  0.89580  0.26180  Biso   1.000  H
  C756     1.0000 0.61672  0.90830  0.15835  Biso   1.000  C
  H468     1.0000 0.61050  0.90950  0.18140  Biso   1.000  H
  O189     1.0000 0.96446  0.37415  0.82688  Biso   1.000  O
  C757     1.0000 0.01358  0.36396  0.77979  Biso   1.000  C
  C758     1.0000 0.03748  0.35766  0.75539  Biso   1.000  C
  H469     1.0000 0.01980  0.36610  0.80270  Biso   1.000  H
  H470     1.0000 0.06020  0.35420  0.76180  Biso   1.000  H
  C759     1.0000 0.13328  0.34170  0.65835  Biso   1.000  C
  H471     1.0000 0.13950  0.34050  0.68140  Biso   1.000  H
  O190     1.0000 0.96446  0.87415  0.32688  Biso   1.000  O
  C760     1.0000 0.01358  0.86396  0.27979  Biso   1.000  C
  C761     1.0000 0.03748  0.85766  0.25539  Biso   1.000  C
  H472     1.0000 0.01980  0.86610  0.30270  Biso   1.000  H
  H473     1.0000 0.06020  0.85420  0.26180  Biso   1.000  H
  C762     1.0000 0.13328  0.84170  0.15835  Biso   1.000  C
  H474     1.0000 0.13950  0.84050  0.18140  Biso   1.000  H
  O191     1.0000 0.46446  0.37415  0.32688  Biso   1.000  O
  C763     1.0000 0.51358  0.36396  0.27979  Biso   1.000  C
  C764     1.0000 0.53748  0.35766  0.25539  Biso   1.000  C
  H475     1.0000 0.51980  0.36610  0.30270  Biso   1.000  H
  H476     1.0000 0.56020  0.35420  0.26180  Biso   1.000  H
  C765     1.0000 0.63328  0.34170  0.15835  Biso   1.000  C
  H477     1.0000 0.63950  0.34050  0.18140  Biso   1.000  H
  O192     1.0000 0.46446  0.87415  0.82688  Biso   1.000  O
  C766     1.0000 0.51358  0.86396  0.77979  Biso   1.000  C
  C767     1.0000 0.53748  0.85766  0.75539  Biso   1.000  C
  H478     1.0000 0.51980  0.86610  0.80270  Biso   1.000  H
  H479     1.0000 0.56020  0.85420  0.76180  Biso   1.000  H
  C768     1.0000 0.63328  0.84170  0.65835  Biso   1.000  C
  H480     1.0000 0.63950  0.84050  0.68140  Biso   1.000  H
  O193     1.0000 0.92312  0.46446  0.87585  Biso   1.000  O
  C769     1.0000 0.97021  0.51358  0.88604  Biso   1.000  C
  C770     1.0000 0.99461  0.53748  0.89234  Biso   1.000  C
  H481     1.0000 0.94730  0.51980  0.88390  Biso   1.000  H
  H482     1.0000 0.98820  0.56020  0.89580  Biso   1.000  H
  C771     1.0000 0.09165  0.63328  0.90830  Biso   1.000  C
  H483     1.0000 0.06860  0.63950  0.90950  Biso   1.000  H
  O194     1.0000 0.92312  0.96446  0.37585  Biso   1.000  O
  C772     1.0000 0.97021  0.01358  0.38604  Biso   1.000  C
  C773     1.0000 0.99461  0.03748  0.39234  Biso   1.000  C
  H484     1.0000 0.94730  0.01980  0.38390  Biso   1.000  H
  H485     1.0000 0.98820  0.06020  0.39580  Biso   1.000  H
  C774     1.0000 0.09165  0.13328  0.40830  Biso   1.000  C
  H486     1.0000 0.06860  0.13950  0.40950  Biso   1.000  H
  O195     1.0000 0.42312  0.46446  0.37585  Biso   1.000  O
  C775     1.0000 0.47021  0.51358  0.38604  Biso   1.000  C
  C776     1.0000 0.49461  0.53748  0.39234  Biso   1.000  C
  H487     1.0000 0.44730  0.51980  0.38390  Biso   1.000  H
  H488     1.0000 0.48820  0.56020  0.39580  Biso   1.000  H
  C777     1.0000 0.59165  0.63328  0.40830  Biso   1.000  C
  H489     1.0000 0.56860  0.63950  0.40950  Biso   1.000  H
  O196     1.0000 0.42312  0.96446  0.87585  Biso   1.000  O
  C778     1.0000 0.47021  0.01358  0.88604  Biso   1.000  C
  C779     1.0000 0.49461  0.03748  0.89234  Biso   1.000  C
  H490     1.0000 0.44730  0.01980  0.88390  Biso   1.000  H
  H491     1.0000 0.48820  0.06020  0.89580  Biso   1.000  H
  C780     1.0000 0.59165  0.13328  0.90830  Biso   1.000  C
  H492     1.0000 0.56860  0.13950  0.90950  Biso   1.000  H
  O197     1.0000 0.42312  0.78554  0.87415  Biso   1.000  O
  C781     1.0000 0.47021  0.73642  0.86396  Biso   1.000  C
  C782     1.0000 0.49461  0.71252  0.85766  Biso   1.000  C
  H493     1.0000 0.44730  0.73020  0.86610  Biso   1.000  H
  H494     1.0000 0.48820  0.68980  0.85420  Biso   1.000  H
  C783     1.0000 0.59165  0.61672  0.84170  Biso   1.000  C
  H495     1.0000 0.56860  0.61050  0.84050  Biso   1.000  H
  O198     1.0000 0.42312  0.28554  0.37415  Biso   1.000  O
  C784     1.0000 0.47021  0.23642  0.36396  Biso   1.000  C
  C785     1.0000 0.49461  0.21252  0.35766  Biso   1.000  C
  H496     1.0000 0.44730  0.23020  0.36610  Biso   1.000  H
  H497     1.0000 0.48820  0.18980  0.35420  Biso   1.000  H
  C786     1.0000 0.59165  0.11672  0.34170  Biso   1.000  C
  H498     1.0000 0.56860  0.11050  0.34050  Biso   1.000  H
  O199     1.0000 0.92312  0.78554  0.37415  Biso   1.000  O
  C787     1.0000 0.97021  0.73642  0.36396  Biso   1.000  C
  C788     1.0000 0.99461  0.71252  0.35766  Biso   1.000  C
  H499     1.0000 0.94730  0.73020  0.36610  Biso   1.000  H
  H500     1.0000 0.98820  0.68980  0.35420  Biso   1.000  H
  C789     1.0000 0.09165  0.61672  0.34170  Biso   1.000  C
  H501     1.0000 0.06860  0.61050  0.34050  Biso   1.000  H
  O200     1.0000 0.92312  0.28554  0.87415  Biso   1.000  O
  C790     1.0000 0.97021  0.23642  0.86396  Biso   1.000  C
  C791     1.0000 0.99461  0.21252  0.85766  Biso   1.000  C
  H502     1.0000 0.94730  0.23020  0.86610  Biso   1.000  H
  H503     1.0000 0.98820  0.18980  0.85420  Biso   1.000  H
  C792     1.0000 0.09165  0.11672  0.84170  Biso   1.000  C
  H504     1.0000 0.06860  0.11050  0.84050  Biso   1.000  H
  O201     1.0000 0.32688  0.28554  0.37585  Biso   1.000  O
  C793     1.0000 0.27979  0.23642  0.38604  Biso   1.000  C
  C794     1.0000 0.25539  0.21252  0.39234  Biso   1.000  C
  H505     1.0000 0.30270  0.23020  0.38390  Biso   1.000  H
  H506     1.0000 0.26180  0.18980  0.39580  Biso   1.000  H
  C795     1.0000 0.15835  0.11672  0.40830  Biso   1.000  C
  H507     1.0000 0.18140  0.11050  0.40950  Biso   1.000  H
  O202     1.0000 0.32688  0.78554  0.87585  Biso   1.000  O
  C796     1.0000 0.27979  0.73642  0.88604  Biso   1.000  C
  C797     1.0000 0.25539  0.71252  0.89234  Biso   1.000  C
  H508     1.0000 0.30270  0.73020  0.88390  Biso   1.000  H
  H509     1.0000 0.26180  0.68980  0.89580  Biso   1.000  H
  C798     1.0000 0.15835  0.61672  0.90830  Biso   1.000  C
  H510     1.0000 0.18140  0.61050  0.90950  Biso   1.000  H
  O203     1.0000 0.82688  0.28554  0.87585  Biso   1.000  O
  C799     1.0000 0.77979  0.23642  0.88604  Biso   1.000  C
  C800     1.0000 0.75539  0.21252  0.89234  Biso   1.000  C
  H511     1.0000 0.80270  0.23020  0.88390  Biso   1.000  H
  H512     1.0000 0.76180  0.18980  0.89580  Biso   1.000  H
  C801     1.0000 0.65835  0.11672  0.90830  Biso   1.000  C
  H513     1.0000 0.68140  0.11050  0.90950  Biso   1.000  H
  O204     1.0000 0.82688  0.78554  0.37585  Biso   1.000  O
  C802     1.0000 0.77979  0.73642  0.38604  Biso   1.000  C
  C803     1.0000 0.75539  0.71252  0.39234  Biso   1.000  C
  H514     1.0000 0.80270  0.73020  0.38390  Biso   1.000  H
  H515     1.0000 0.76180  0.68980  0.39580  Biso   1.000  H
  C804     1.0000 0.65835  0.61672  0.40830  Biso   1.000  C
  H516     1.0000 0.68140  0.61050  0.40950  Biso   1.000  H
  O205     1.0000 0.82688  0.96446  0.37415  Biso   1.000  O
  C805     1.0000 0.77979  0.01358  0.36396  Biso   1.000  C
  C806     1.0000 0.75539  0.03748  0.35766  Biso   1.000  C
  H517     1.0000 0.80270  0.01980  0.36610  Biso   1.000  H
  H518     1.0000 0.76180  0.06020  0.35420  Biso   1.000  H
  C807     1.0000 0.65835  0.13328  0.34170  Biso   1.000  C
  H519     1.0000 0.68140  0.13950  0.34050  Biso   1.000  H
  O206     1.0000 0.82688  0.46446  0.87415  Biso   1.000  O
  C808     1.0000 0.77979  0.51358  0.86396  Biso   1.000  C
  C809     1.0000 0.75539  0.53748  0.85766  Biso   1.000  C
  H520     1.0000 0.80270  0.51980  0.86610  Biso   1.000  H
  H521     1.0000 0.76180  0.56020  0.85420  Biso   1.000  H
  C810     1.0000 0.65835  0.63328  0.84170  Biso   1.000  C
  H522     1.0000 0.68140  0.63950  0.84050  Biso   1.000  H
  O207     1.0000 0.32688  0.96446  0.87415  Biso   1.000  O
  C811     1.0000 0.27979  0.01358  0.86396  Biso   1.000  C
  C812     1.0000 0.25539  0.03748  0.85766  Biso   1.000  C
  H523     1.0000 0.30270  0.01980  0.86610  Biso   1.000  H
  H524     1.0000 0.26180  0.06020  0.85420  Biso   1.000  H
  C813     1.0000 0.15835  0.13328  0.84170  Biso   1.000  C
  H525     1.0000 0.18140  0.13950  0.84050  Biso   1.000  H
  O208     1.0000 0.32688  0.46446  0.37415  Biso   1.000  O
  C814     1.0000 0.27979  0.51358  0.36396  Biso   1.000  C
  C815     1.0000 0.25539  0.53748  0.35766  Biso   1.000  C
  H526     1.0000 0.30270  0.51980  0.36610  Biso   1.000  H
  H527     1.0000 0.26180  0.56020  0.35420  Biso   1.000  H
  C816     1.0000 0.15835  0.63328  0.34170  Biso   1.000  C
  H528     1.0000 0.18140  0.63950  0.34050  Biso   1.000  H
  O209     1.0000 0.87585  0.92312  0.46446  Biso   1.000  O
  C817     1.0000 0.88604  0.97021  0.51358  Biso   1.000  C
  C818     1.0000 0.89234  0.99461  0.53748  Biso   1.000  C
  H529     1.0000 0.88390  0.94730  0.51980  Biso   1.000  H
  H530     1.0000 0.89580  0.98820  0.56020  Biso   1.000  H
  C819     1.0000 0.90830  0.09165  0.63328  Biso   1.000  C
  H531     1.0000 0.90950  0.06860  0.63950  Biso   1.000  H
  O210     1.0000 0.87585  0.42312  0.96446  Biso   1.000  O
  C820     1.0000 0.88604  0.47021  0.01358  Biso   1.000  C
  C821     1.0000 0.89234  0.49461  0.03748  Biso   1.000  C
  H532     1.0000 0.88390  0.44730  0.01980  Biso   1.000  H
  H533     1.0000 0.89580  0.48820  0.06020  Biso   1.000  H
  C822     1.0000 0.90830  0.59165  0.13328  Biso   1.000  C
  H534     1.0000 0.90950  0.56860  0.13950  Biso   1.000  H
  O211     1.0000 0.37585  0.92312  0.96446  Biso   1.000  O
  C823     1.0000 0.38604  0.97021  0.01358  Biso   1.000  C
  C824     1.0000 0.39234  0.99461  0.03748  Biso   1.000  C
  H535     1.0000 0.38390  0.94730  0.01980  Biso   1.000  H
  H536     1.0000 0.39580  0.98820  0.06020  Biso   1.000  H
  C825     1.0000 0.40830  0.09165  0.13328  Biso   1.000  C
  H537     1.0000 0.40950  0.06860  0.13950  Biso   1.000  H
  O212     1.0000 0.37585  0.42312  0.46446  Biso   1.000  O
  C826     1.0000 0.38604  0.47021  0.51358  Biso   1.000  C
  C827     1.0000 0.39234  0.49461  0.53748  Biso   1.000  C
  H538     1.0000 0.38390  0.44730  0.51980  Biso   1.000  H
  H539     1.0000 0.39580  0.48820  0.56020  Biso   1.000  H
  C828     1.0000 0.40830  0.59165  0.63328  Biso   1.000  C
  H540     1.0000 0.40950  0.56860  0.63950  Biso   1.000  H
  O213     1.0000 0.87415  0.42312  0.78554  Biso   1.000  O
  C829     1.0000 0.86396  0.47021  0.73642  Biso   1.000  C
  C830     1.0000 0.85766  0.49461  0.71252  Biso   1.000  C
  H541     1.0000 0.86610  0.44730  0.73020  Biso   1.000  H
  H542     1.0000 0.85420  0.48820  0.68980  Biso   1.000  H
  C831     1.0000 0.84170  0.59165  0.61672  Biso   1.000  C
  H543     1.0000 0.84050  0.56860  0.61050  Biso   1.000  H
  O214     1.0000 0.87415  0.92312  0.28554  Biso   1.000  O
  C832     1.0000 0.86396  0.97021  0.23642  Biso   1.000  C
  C833     1.0000 0.85766  0.99461  0.21252  Biso   1.000  C
  H544     1.0000 0.86610  0.94730  0.23020  Biso   1.000  H
  H545     1.0000 0.85420  0.98820  0.18980  Biso   1.000  H
  C834     1.0000 0.84170  0.09165  0.11672  Biso   1.000  C
  H546     1.0000 0.84050  0.06860  0.11050  Biso   1.000  H
  O215     1.0000 0.37415  0.42312  0.28554  Biso   1.000  O
  C835     1.0000 0.36396  0.47021  0.23642  Biso   1.000  C
  C836     1.0000 0.35766  0.49461  0.21252  Biso   1.000  C
  H547     1.0000 0.36610  0.44730  0.23020  Biso   1.000  H
  H548     1.0000 0.35420  0.48820  0.18980  Biso   1.000  H
  C837     1.0000 0.34170  0.59165  0.11672  Biso   1.000  C
  H549     1.0000 0.34050  0.56860  0.11050  Biso   1.000  H
  O216     1.0000 0.37415  0.92312  0.78554  Biso   1.000  O
  C838     1.0000 0.36396  0.97021  0.73642  Biso   1.000  C
  C839     1.0000 0.35766  0.99461  0.71252  Biso   1.000  C
  H550     1.0000 0.36610  0.94730  0.73020  Biso   1.000  H
  H551     1.0000 0.35420  0.98820  0.68980  Biso   1.000  H
  C840     1.0000 0.34170  0.09165  0.61672  Biso   1.000  C
  H552     1.0000 0.34050  0.06860  0.61050  Biso   1.000  H
  O217     1.0000 0.37585  0.32688  0.28554  Biso   1.000  O
  C841     1.0000 0.38604  0.27979  0.23642  Biso   1.000  C
  C842     1.0000 0.39234  0.25539  0.21252  Biso   1.000  C
  H553     1.0000 0.38390  0.30270  0.23020  Biso   1.000  H
  H554     1.0000 0.39580  0.26180  0.18980  Biso   1.000  H
  C843     1.0000 0.40830  0.15835  0.11672  Biso   1.000  C
  H555     1.0000 0.40950  0.18140  0.11050  Biso   1.000  H
  O218     1.0000 0.37585  0.82688  0.78554  Biso   1.000  O
  C844     1.0000 0.38604  0.77979  0.73642  Biso   1.000  C
  C845     1.0000 0.39234  0.75539  0.71252  Biso   1.000  C
  H556     1.0000 0.38390  0.80270  0.73020  Biso   1.000  H
  H557     1.0000 0.39580  0.76180  0.68980  Biso   1.000  H
  C846     1.0000 0.40830  0.65835  0.61672  Biso   1.000  C
  H558     1.0000 0.40950  0.68140  0.61050  Biso   1.000  H
  O219     1.0000 0.87585  0.32688  0.78554  Biso   1.000  O
  C847     1.0000 0.88604  0.27979  0.73642  Biso   1.000  C
  C848     1.0000 0.89234  0.25539  0.71252  Biso   1.000  C
  H559     1.0000 0.88390  0.30270  0.73020  Biso   1.000  H
  H560     1.0000 0.89580  0.26180  0.68980  Biso   1.000  H
  C849     1.0000 0.90830  0.15835  0.61672  Biso   1.000  C
  H561     1.0000 0.90950  0.18140  0.61050  Biso   1.000  H
  O220     1.0000 0.87585  0.82688  0.28554  Biso   1.000  O
  C850     1.0000 0.88604  0.77979  0.23642  Biso   1.000  C
  C851     1.0000 0.89234  0.75539  0.21252  Biso   1.000  C
  H562     1.0000 0.88390  0.80270  0.23020  Biso   1.000  H
  H563     1.0000 0.89580  0.76180  0.18980  Biso   1.000  H
  C852     1.0000 0.90830  0.65835  0.11672  Biso   1.000  C
  H564     1.0000 0.90950  0.68140  0.11050  Biso   1.000  H
  O221     1.0000 0.37415  0.82688  0.96446  Biso   1.000  O
  C853     1.0000 0.36396  0.77979  0.01358  Biso   1.000  C
  C854     1.0000 0.35766  0.75539  0.03748  Biso   1.000  C
  H565     1.0000 0.36610  0.80270  0.01980  Biso   1.000  H
  H566     1.0000 0.35420  0.76180  0.06020  Biso   1.000  H
  C855     1.0000 0.34170  0.65835  0.13328  Biso   1.000  C
  H567     1.0000 0.34050  0.68140  0.13950  Biso   1.000  H
  O222     1.0000 0.37415  0.32688  0.46446  Biso   1.000  O
  C856     1.0000 0.36396  0.27979  0.51358  Biso   1.000  C
  C857     1.0000 0.35766  0.25539  0.53748  Biso   1.000  C
  H568     1.0000 0.36610  0.30270  0.51980  Biso   1.000  H
  H569     1.0000 0.35420  0.26180  0.56020  Biso   1.000  H
  C858     1.0000 0.34170  0.15835  0.63328  Biso   1.000  C
  H570     1.0000 0.34050  0.18140  0.63950  Biso   1.000  H
  O223     1.0000 0.87415  0.82688  0.46446  Biso   1.000  O
  C859     1.0000 0.86396  0.77979  0.51358  Biso   1.000  C
  C860     1.0000 0.85766  0.75539  0.53748  Biso   1.000  C
  H571     1.0000 0.86610  0.80270  0.51980  Biso   1.000  H
  H572     1.0000 0.85420  0.76180  0.56020  Biso   1.000  H
  C861     1.0000 0.84170  0.65835  0.63328  Biso   1.000  C
  H573     1.0000 0.84050  0.68140  0.63950  Biso   1.000  H
  O224     1.0000 0.87415  0.32688  0.96446  Biso   1.000  O
  C862     1.0000 0.86396  0.27979  0.01358  Biso   1.000  C
  C863     1.0000 0.85766  0.25539  0.03748  Biso   1.000  C
  H574     1.0000 0.86610  0.30270  0.01980  Biso   1.000  H
  H575     1.0000 0.85420  0.26180  0.06020  Biso   1.000  H
  C864     1.0000 0.84170  0.15835  0.13328  Biso   1.000  C
  H576     1.0000 0.84050  0.18140  0.13950  Biso   1.000  H
  Hf25     1.0000 0.87500  0.81313  0.37500  Biso   1.000  Hf
  Hf26     1.0000 0.87500  0.31313  0.87500  Biso   1.000  Hf
  Hf27     1.0000 0.87500  0.43687  0.87500  Biso   1.000  Hf
  Hf28     1.0000 0.37500  0.93687  0.87500  Biso   1.000  Hf
  Hf29     1.0000 0.37500  0.43687  0.37500  Biso   1.000  Hf
  Hf30     1.0000 0.37500  0.31313  0.37500  Biso   1.000  Hf
  Hf31     1.0000 0.31313  0.37500  0.37500  Biso   1.000  Hf
  Hf32     1.0000 0.31313  0.87500  0.87500  Biso   1.000  Hf
  Hf33     1.0000 0.93687  0.87500  0.37500  Biso   1.000  Hf
  Hf34     1.0000 0.43687  0.87500  0.87500  Biso   1.000  Hf
  Hf35     1.0000 0.43687  0.37500  0.37500  Biso   1.000  Hf
  Hf36     1.0000 0.81313  0.37500  0.87500  Biso   1.000  Hf
  Hf37     1.0000 0.87500  0.37500  0.93687  Biso   1.000  Hf
  Hf38     1.0000 0.37500  0.37500  0.31313  Biso   1.000  Hf
  Hf39     1.0000 0.87500  0.87500  0.31313  Biso   1.000  Hf
  Hf40     1.0000 0.37500  0.87500  0.81313  Biso   1.000  Hf
  Hf41     1.0000 0.87500  0.87500  0.43687  Biso   1.000  Hf
  Hf42     1.0000 0.81313  0.87500  0.37500  Biso   1.000  Hf
  Hf43     1.0000 0.93687  0.37500  0.87500  Biso   1.000  Hf
  Hf44     1.0000 0.37500  0.81313  0.87500  Biso   1.000  Hf
  Hf45     1.0000 0.87500  0.93687  0.37500  Biso   1.000  Hf
  Hf46     1.0000 0.87500  0.37500  0.81313  Biso   1.000  Hf
  Hf47     1.0000 0.37500  0.87500  0.93687  Biso   1.000  Hf
  Hf48     1.0000 0.37500  0.37500  0.43687  Biso   1.000  Hf
  O225     1.0000 0.90882  0.84118  0.40882  Biso   1.000  O
  O226     1.0000 0.90882  0.34118  0.90882  Biso   1.000  O
  O227     1.0000 0.84118  0.40882  0.90882  Biso   1.000  O
  O228     1.0000 0.34118  0.40882  0.40882  Biso   1.000  O
  O229     1.0000 0.40882  0.90882  0.84118  Biso   1.000  O
  O230     1.0000 0.40882  0.40882  0.34118  Biso   1.000  O
  O231     1.0000 0.34118  0.34118  0.34118  Biso   1.000  O
  O232     1.0000 0.34118  0.84118  0.84118  Biso   1.000  O
  O233     1.0000 0.84118  0.34118  0.84118  Biso   1.000  O
  O234     1.0000 0.84118  0.84118  0.34118  Biso   1.000  O
  O235     1.0000 0.34118  0.90882  0.90882  Biso   1.000  O
  O236     1.0000 0.84118  0.90882  0.40882  Biso   1.000  O
  O237     1.0000 0.40882  0.84118  0.90882  Biso   1.000  O
  O238     1.0000 0.40882  0.34118  0.40882  Biso   1.000  O
  O239     1.0000 0.90882  0.40882  0.84118  Biso   1.000  O
  O240     1.0000 0.90882  0.90882  0.34118  Biso   1.000  O
  O241     1.0000 0.84668  0.84668  0.40332  Biso   1.000  O
  O242     1.0000 0.90332  0.40332  0.90332  Biso   1.000  O
  O243     1.0000 0.34668  0.90332  0.84668  Biso   1.000  O
  O244     1.0000 0.34668  0.40332  0.34668  Biso   1.000  O
  O245     1.0000 0.84668  0.40332  0.84668  Biso   1.000  O
  O246     1.0000 0.40332  0.34668  0.34668  Biso   1.000  O
  O247     1.0000 0.34668  0.34668  0.40332  Biso   1.000  O
  O248     1.0000 0.90332  0.84668  0.34668  Biso   1.000  O
  O249     1.0000 0.40332  0.84668  0.84668  Biso   1.000  O
  O250     1.0000 0.40332  0.90332  0.90332  Biso   1.000  O
  O251     1.0000 0.40332  0.40332  0.40332  Biso   1.000  O
  O252     1.0000 0.84668  0.34668  0.90332  Biso   1.000  O
  O253     1.0000 0.90332  0.90332  0.40332  Biso   1.000  O
  O254     1.0000 0.90332  0.34668  0.84668  Biso   1.000  O
  O255     1.0000 0.84668  0.90332  0.34668  Biso   1.000  O
  O256     1.0000 0.34668  0.84668  0.90332  Biso   1.000  O
  C865     1.0000 0.87155  0.79627  0.45373  Biso   1.000  C
  C866     1.0000 0.86713  0.76994  0.48006  Biso   1.000  C
  C867     1.0000 0.85630  0.72122  0.52878  Biso   1.000  C
  C868     1.0000 0.85100  0.69628  0.55372  Biso   1.000  C
  C869     1.0000 0.84620  0.67511  0.57489  Biso   1.000  C
  C870     1.0000 0.84340  0.64964  0.60036  Biso   1.000  C
  C871     1.0000 0.87155  0.29627  0.95373  Biso   1.000  C
  C872     1.0000 0.86713  0.26994  0.98006  Biso   1.000  C
  C873     1.0000 0.85630  0.22122  0.02878  Biso   1.000  C
  C874     1.0000 0.85100  0.19628  0.05372  Biso   1.000  C
  C875     1.0000 0.84620  0.17511  0.07489  Biso   1.000  C
  C876     1.0000 0.84340  0.14964  0.10036  Biso   1.000  C
  C877     1.0000 0.87845  0.45373  0.95373  Biso   1.000  C
  C878     1.0000 0.88287  0.48006  0.98006  Biso   1.000  C
  C879     1.0000 0.89370  0.52878  0.02878  Biso   1.000  C
  C880     1.0000 0.89900  0.55372  0.05372  Biso   1.000  C
  C881     1.0000 0.90380  0.57489  0.07489  Biso   1.000  C
  C882     1.0000 0.90660  0.60036  0.10036  Biso   1.000  C
  C883     1.0000 0.37845  0.45373  0.45373  Biso   1.000  C
  C884     1.0000 0.38287  0.48006  0.48006  Biso   1.000  C
  C885     1.0000 0.39370  0.52878  0.52878  Biso   1.000  C
  C886     1.0000 0.39900  0.55372  0.55372  Biso   1.000  C
  C887     1.0000 0.40380  0.57489  0.57489  Biso   1.000  C
  C888     1.0000 0.40660  0.60036  0.60036  Biso   1.000  C
  C889     1.0000 0.37845  0.95373  0.95373  Biso   1.000  C
  C890     1.0000 0.38287  0.98006  0.98006  Biso   1.000  C
  C891     1.0000 0.39370  0.02878  0.02878  Biso   1.000  C
  C892     1.0000 0.39900  0.05372  0.05372  Biso   1.000  C
  C893     1.0000 0.40380  0.07489  0.07489  Biso   1.000  C
  C894     1.0000 0.40660  0.10036  0.10036  Biso   1.000  C
  C895     1.0000 0.37155  0.95373  0.79627  Biso   1.000  C
  C896     1.0000 0.36713  0.98006  0.76994  Biso   1.000  C
  C897     1.0000 0.35630  0.02878  0.72122  Biso   1.000  C
  C898     1.0000 0.35100  0.05372  0.69628  Biso   1.000  C
  C899     1.0000 0.34620  0.07489  0.67511  Biso   1.000  C
  C900     1.0000 0.34340  0.10036  0.64964  Biso   1.000  C
  C901     1.0000 0.37155  0.45373  0.29627  Biso   1.000  C
  C902     1.0000 0.36713  0.48006  0.26994  Biso   1.000  C
  C903     1.0000 0.35630  0.52878  0.22122  Biso   1.000  C
  C904     1.0000 0.35100  0.55372  0.19628  Biso   1.000  C
  C905     1.0000 0.34620  0.57489  0.17511  Biso   1.000  C
  C906     1.0000 0.34340  0.60036  0.14964  Biso   1.000  C
  C907     1.0000 0.87155  0.45373  0.79627  Biso   1.000  C
  C908     1.0000 0.86713  0.48006  0.76994  Biso   1.000  C
  C909     1.0000 0.85630  0.52878  0.72122  Biso   1.000  C
  C910     1.0000 0.85100  0.55372  0.69628  Biso   1.000  C
  C911     1.0000 0.84620  0.57489  0.67511  Biso   1.000  C
  C912     1.0000 0.84340  0.60036  0.64964  Biso   1.000  C
  C913     1.0000 0.37845  0.29627  0.29627  Biso   1.000  C
  C914     1.0000 0.38287  0.26994  0.26994  Biso   1.000  C
  C915     1.0000 0.39370  0.22122  0.22122  Biso   1.000  C
  C916     1.0000 0.39900  0.19628  0.19628  Biso   1.000  C
  C917     1.0000 0.40380  0.17511  0.17511  Biso   1.000  C
  C918     1.0000 0.40660  0.14964  0.14964  Biso   1.000  C
  C919     1.0000 0.37845  0.79627  0.79627  Biso   1.000  C
  C920     1.0000 0.38287  0.76994  0.76994  Biso   1.000  C
  C921     1.0000 0.39370  0.72122  0.72122  Biso   1.000  C
  C922     1.0000 0.39900  0.69628  0.69628  Biso   1.000  C
  C923     1.0000 0.40380  0.67511  0.67511  Biso   1.000  C
  C924     1.0000 0.40660  0.64964  0.64964  Biso   1.000  C
  C925     1.0000 0.87845  0.29627  0.79627  Biso   1.000  C
  C926     1.0000 0.88287  0.26994  0.76994  Biso   1.000  C
  C927     1.0000 0.89370  0.22122  0.72122  Biso   1.000  C
  C928     1.0000 0.89900  0.19628  0.69628  Biso   1.000  C
  C929     1.0000 0.90380  0.17511  0.67511  Biso   1.000  C
  C930     1.0000 0.90660  0.14964  0.64964  Biso   1.000  C
  C931     1.0000 0.87845  0.79627  0.29627  Biso   1.000  C
  C932     1.0000 0.88287  0.76994  0.26994  Biso   1.000  C
  C933     1.0000 0.89370  0.72122  0.22122  Biso   1.000  C
  C934     1.0000 0.89900  0.69628  0.19628  Biso   1.000  C
  C935     1.0000 0.90380  0.67511  0.17511  Biso   1.000  C
  C936     1.0000 0.90660  0.64964  0.14964  Biso   1.000  C
  C937     1.0000 0.29627  0.29627  0.37845  Biso   1.000  C
  C938     1.0000 0.26994  0.26994  0.38287  Biso   1.000  C
  C939     1.0000 0.22122  0.22122  0.39370  Biso   1.000  C
  C940     1.0000 0.19628  0.19628  0.39900  Biso   1.000  C
  C941     1.0000 0.17511  0.17511  0.40380  Biso   1.000  C
  C942     1.0000 0.14964  0.14964  0.40660  Biso   1.000  C
  C943     1.0000 0.29627  0.79627  0.87845  Biso   1.000  C
  C944     1.0000 0.26994  0.76994  0.88287  Biso   1.000  C
  C945     1.0000 0.22122  0.72122  0.89370  Biso   1.000  C
  C946     1.0000 0.19628  0.69628  0.89900  Biso   1.000  C
  C947     1.0000 0.17511  0.67511  0.90380  Biso   1.000  C
  C948     1.0000 0.14964  0.64964  0.90660  Biso   1.000  C
  C949     1.0000 0.79627  0.29627  0.87845  Biso   1.000  C
  C950     1.0000 0.76994  0.26994  0.88287  Biso   1.000  C
  C951     1.0000 0.72122  0.22122  0.89370  Biso   1.000  C
  C952     1.0000 0.69628  0.19628  0.89900  Biso   1.000  C
  C953     1.0000 0.67511  0.17511  0.90380  Biso   1.000  C
  C954     1.0000 0.64964  0.14964  0.90660  Biso   1.000  C
  C955     1.0000 0.79627  0.79627  0.37845  Biso   1.000  C
  C956     1.0000 0.76994  0.76994  0.38287  Biso   1.000  C
  C957     1.0000 0.72122  0.72122  0.39370  Biso   1.000  C
  C958     1.0000 0.69628  0.69628  0.39900  Biso   1.000  C
  C959     1.0000 0.67511  0.67511  0.40380  Biso   1.000  C
  C960     1.0000 0.64964  0.64964  0.40660  Biso   1.000  C
  C961     1.0000 0.95373  0.79627  0.37155  Biso   1.000  C
  C962     1.0000 0.98006  0.76994  0.36713  Biso   1.000  C
  C963     1.0000 0.02878  0.72122  0.35630  Biso   1.000  C
  C964     1.0000 0.05372  0.69628  0.35100  Biso   1.000  C
  C965     1.0000 0.07489  0.67511  0.34620  Biso   1.000  C
  C966     1.0000 0.10036  0.64964  0.34340  Biso   1.000  C
  C967     1.0000 0.95373  0.29627  0.87155  Biso   1.000  C
  C968     1.0000 0.98006  0.26994  0.86713  Biso   1.000  C
  C969     1.0000 0.02878  0.22122  0.85630  Biso   1.000  C
  C970     1.0000 0.05372  0.19628  0.85100  Biso   1.000  C
  C971     1.0000 0.07489  0.17511  0.84620  Biso   1.000  C
  C972     1.0000 0.10036  0.14964  0.84340  Biso   1.000  C
  C973     1.0000 0.45373  0.79627  0.87155  Biso   1.000  C
  C974     1.0000 0.48006  0.76994  0.86713  Biso   1.000  C
  C975     1.0000 0.52878  0.72122  0.85630  Biso   1.000  C
  C976     1.0000 0.55372  0.69628  0.85100  Biso   1.000  C
  C977     1.0000 0.57489  0.67511  0.84620  Biso   1.000  C
  C978     1.0000 0.60036  0.64964  0.84340  Biso   1.000  C
  C979     1.0000 0.45373  0.95373  0.87845  Biso   1.000  C
  C980     1.0000 0.48006  0.98006  0.88287  Biso   1.000  C
  C981     1.0000 0.52878  0.02878  0.89370  Biso   1.000  C
  C982     1.0000 0.55372  0.05372  0.89900  Biso   1.000  C
  C983     1.0000 0.57489  0.07489  0.90380  Biso   1.000  C
  C984     1.0000 0.60036  0.10036  0.90660  Biso   1.000  C
  C985     1.0000 0.45373  0.45373  0.37845  Biso   1.000  C
  C986     1.0000 0.48006  0.48006  0.38287  Biso   1.000  C
  C987     1.0000 0.52878  0.52878  0.39370  Biso   1.000  C
  C988     1.0000 0.55372  0.55372  0.39900  Biso   1.000  C
  C989     1.0000 0.57489  0.57489  0.40380  Biso   1.000  C
  C990     1.0000 0.60036  0.60036  0.40660  Biso   1.000  C
  C991     1.0000 0.95373  0.95373  0.37845  Biso   1.000  C
  C992     1.0000 0.98006  0.98006  0.38287  Biso   1.000  C
  C993     1.0000 0.02878  0.02878  0.39370  Biso   1.000  C
  C994     1.0000 0.05372  0.05372  0.39900  Biso   1.000  C
  C995     1.0000 0.07489  0.07489  0.40380  Biso   1.000  C
  C996     1.0000 0.10036  0.10036  0.40660  Biso   1.000  C
  C997     1.0000 0.79627  0.45373  0.87155  Biso   1.000  C
  C998     1.0000 0.76994  0.48006  0.86713  Biso   1.000  C
  C999     1.0000 0.72122  0.52878  0.85630  Biso   1.000  C
  C1000    1.0000 0.69628  0.55372  0.85100  Biso   1.000  C
  C1001    1.0000 0.67511  0.57489  0.84620  Biso   1.000  C
  C1002    1.0000 0.64964  0.60036  0.84340  Biso   1.000  C
  C1003    1.0000 0.29627  0.45373  0.37155  Biso   1.000  C
  C1004    1.0000 0.26994  0.48006  0.36713  Biso   1.000  C
  C1005    1.0000 0.22122  0.52878  0.35630  Biso   1.000  C
  C1006    1.0000 0.19628  0.55372  0.35100  Biso   1.000  C
  C1007    1.0000 0.17511  0.57489  0.34620  Biso   1.000  C
  C1008    1.0000 0.14964  0.60036  0.34340  Biso   1.000  C
  C1009    1.0000 0.79627  0.37155  0.95373  Biso   1.000  C
  C1010    1.0000 0.76994  0.36713  0.98006  Biso   1.000  C
  C1011    1.0000 0.72122  0.35630  0.02878  Biso   1.000  C
  C1012    1.0000 0.69628  0.35100  0.05372  Biso   1.000  C
  C1013    1.0000 0.67511  0.34620  0.07489  Biso   1.000  C
  C1014    1.0000 0.64964  0.34340  0.10036  Biso   1.000  C
  C1015    1.0000 0.79627  0.87155  0.45373  Biso   1.000  C
  C1016    1.0000 0.76994  0.86713  0.48006  Biso   1.000  C
  C1017    1.0000 0.72122  0.85630  0.52878  Biso   1.000  C
  C1018    1.0000 0.69628  0.85100  0.55372  Biso   1.000  C
  C1019    1.0000 0.67511  0.84620  0.57489  Biso   1.000  C
  C1020    1.0000 0.64964  0.84340  0.60036  Biso   1.000  C
  C1021    1.0000 0.29627  0.37155  0.45373  Biso   1.000  C
  C1022    1.0000 0.26994  0.36713  0.48006  Biso   1.000  C
  C1023    1.0000 0.22122  0.35630  0.52878  Biso   1.000  C
  C1024    1.0000 0.19628  0.35100  0.55372  Biso   1.000  C
  C1025    1.0000 0.17511  0.34620  0.57489  Biso   1.000  C
  C1026    1.0000 0.14964  0.34340  0.60036  Biso   1.000  C
  C1027    1.0000 0.29627  0.37845  0.29627  Biso   1.000  C
  C1028    1.0000 0.26994  0.38287  0.26994  Biso   1.000  C
  C1029    1.0000 0.22122  0.39370  0.22122  Biso   1.000  C
  C1030    1.0000 0.19628  0.39900  0.19628  Biso   1.000  C
  C1031    1.0000 0.17511  0.40380  0.17511  Biso   1.000  C
  C1032    1.0000 0.14964  0.40660  0.14964  Biso   1.000  C
  C1033    1.0000 0.29627  0.87845  0.79627  Biso   1.000  C
  C1034    1.0000 0.26994  0.88287  0.76994  Biso   1.000  C
  C1035    1.0000 0.22122  0.89370  0.72122  Biso   1.000  C
  C1036    1.0000 0.19628  0.89900  0.69628  Biso   1.000  C
  C1037    1.0000 0.17511  0.90380  0.67511  Biso   1.000  C
  C1038    1.0000 0.14964  0.90660  0.64964  Biso   1.000  C
  C1039    1.0000 0.79627  0.37845  0.79627  Biso   1.000  C
  C1040    1.0000 0.76994  0.38287  0.76994  Biso   1.000  C
  C1041    1.0000 0.72122  0.39370  0.72122  Biso   1.000  C
  C1042    1.0000 0.69628  0.39900  0.69628  Biso   1.000  C
  C1043    1.0000 0.67511  0.40380  0.67511  Biso   1.000  C
  C1044    1.0000 0.64964  0.40660  0.64964  Biso   1.000  C
  C1045    1.0000 0.79627  0.87845  0.29627  Biso   1.000  C
  C1046    1.0000 0.76994  0.88287  0.26994  Biso   1.000  C
  C1047    1.0000 0.72122  0.89370  0.22122  Biso   1.000  C
  C1048    1.0000 0.69628  0.89900  0.19628  Biso   1.000  C
  C1049    1.0000 0.67511  0.90380  0.17511  Biso   1.000  C
  C1050    1.0000 0.64964  0.90660  0.14964  Biso   1.000  C
  C1051    1.0000 0.45373  0.87155  0.79627  Biso   1.000  C
  C1052    1.0000 0.48006  0.86713  0.76994  Biso   1.000  C
  C1053    1.0000 0.52878  0.85630  0.72122  Biso   1.000  C
  C1054    1.0000 0.55372  0.85100  0.69628  Biso   1.000  C
  C1055    1.0000 0.57489  0.84620  0.67511  Biso   1.000  C
  C1056    1.0000 0.60036  0.84340  0.64964  Biso   1.000  C
  C1057    1.0000 0.45373  0.37155  0.29627  Biso   1.000  C
  C1058    1.0000 0.48006  0.36713  0.26994  Biso   1.000  C
  C1059    1.0000 0.52878  0.35630  0.22122  Biso   1.000  C
  C1060    1.0000 0.55372  0.35100  0.19628  Biso   1.000  C
  C1061    1.0000 0.57489  0.34620  0.17511  Biso   1.000  C
  C1062    1.0000 0.60036  0.34340  0.14964  Biso   1.000  C
  C1063    1.0000 0.95373  0.87845  0.45373  Biso   1.000  C
  C1064    1.0000 0.98006  0.88287  0.48006  Biso   1.000  C
  C1065    1.0000 0.02878  0.89370  0.52878  Biso   1.000  C
  C1066    1.0000 0.05372  0.89900  0.55372  Biso   1.000  C
  C1067    1.0000 0.07489  0.90380  0.57489  Biso   1.000  C
  C1068    1.0000 0.10036  0.90660  0.60036  Biso   1.000  C
  C1069    1.0000 0.95373  0.37845  0.95373  Biso   1.000  C
  C1070    1.0000 0.98006  0.38287  0.98006  Biso   1.000  C
  C1071    1.0000 0.02878  0.39370  0.02878  Biso   1.000  C
  C1072    1.0000 0.05372  0.39900  0.05372  Biso   1.000  C
  C1073    1.0000 0.07489  0.40380  0.07489  Biso   1.000  C
  C1074    1.0000 0.10036  0.40660  0.10036  Biso   1.000  C
  C1075    1.0000 0.45373  0.87845  0.95373  Biso   1.000  C
  C1076    1.0000 0.48006  0.88287  0.98006  Biso   1.000  C
  C1077    1.0000 0.52878  0.89370  0.02878  Biso   1.000  C
  C1078    1.0000 0.55372  0.89900  0.05372  Biso   1.000  C
  C1079    1.0000 0.57489  0.90380  0.07489  Biso   1.000  C
  C1080    1.0000 0.60036  0.90660  0.10036  Biso   1.000  C
  C1081    1.0000 0.45373  0.37845  0.45373  Biso   1.000  C
  C1082    1.0000 0.48006  0.38287  0.48006  Biso   1.000  C
  C1083    1.0000 0.52878  0.39370  0.52878  Biso   1.000  C
  C1084    1.0000 0.55372  0.39900  0.55372  Biso   1.000  C
  C1085    1.0000 0.57489  0.40380  0.57489  Biso   1.000  C
  C1086    1.0000 0.60036  0.40660  0.60036  Biso   1.000  C
  C1087    1.0000 0.29627  0.87155  0.95373  Biso   1.000  C
  C1088    1.0000 0.26994  0.86713  0.98006  Biso   1.000  C
  C1089    1.0000 0.22122  0.85630  0.02878  Biso   1.000  C
  C1090    1.0000 0.19628  0.85100  0.05372  Biso   1.000  C
  C1091    1.0000 0.17511  0.84620  0.07489  Biso   1.000  C
  C1092    1.0000 0.14964  0.84340  0.10036  Biso   1.000  C
  C1093    1.0000 0.95373  0.37155  0.79627  Biso   1.000  C
  C1094    1.0000 0.98006  0.36713  0.76994  Biso   1.000  C
  C1095    1.0000 0.02878  0.35630  0.72122  Biso   1.000  C
  C1096    1.0000 0.05372  0.35100  0.69628  Biso   1.000  C
  C1097    1.0000 0.07489  0.34620  0.67511  Biso   1.000  C
  C1098    1.0000 0.10036  0.34340  0.64964  Biso   1.000  C
  C1099    1.0000 0.95373  0.87155  0.29627  Biso   1.000  C
  C1100    1.0000 0.98006  0.86713  0.26994  Biso   1.000  C
  C1101    1.0000 0.02878  0.85630  0.22122  Biso   1.000  C
  C1102    1.0000 0.05372  0.85100  0.19628  Biso   1.000  C
  C1103    1.0000 0.07489  0.84620  0.17511  Biso   1.000  C
  C1104    1.0000 0.10036  0.84340  0.14964  Biso   1.000  C
  C1105    1.0000 0.95373  0.45373  0.87845  Biso   1.000  C
  C1106    1.0000 0.98006  0.48006  0.88287  Biso   1.000  C
  C1107    1.0000 0.02878  0.52878  0.89370  Biso   1.000  C
  C1108    1.0000 0.05372  0.55372  0.89900  Biso   1.000  C
  C1109    1.0000 0.07489  0.57489  0.90380  Biso   1.000  C
  C1110    1.0000 0.10036  0.60036  0.90660  Biso   1.000  C
  C1111    1.0000 0.45373  0.29627  0.37155  Biso   1.000  C
  C1112    1.0000 0.48006  0.26994  0.36713  Biso   1.000  C
  C1113    1.0000 0.52878  0.22122  0.35630  Biso   1.000  C
  C1114    1.0000 0.55372  0.19628  0.35100  Biso   1.000  C
  C1115    1.0000 0.57489  0.17511  0.34620  Biso   1.000  C
  C1116    1.0000 0.60036  0.14964  0.34340  Biso   1.000  C
  C1117    1.0000 0.79627  0.95373  0.37155  Biso   1.000  C
  C1118    1.0000 0.76994  0.98006  0.36713  Biso   1.000  C
  C1119    1.0000 0.72122  0.02878  0.35630  Biso   1.000  C
  C1120    1.0000 0.69628  0.05372  0.35100  Biso   1.000  C
  C1121    1.0000 0.67511  0.07489  0.34620  Biso   1.000  C
  C1122    1.0000 0.64964  0.10036  0.34340  Biso   1.000  C
  C1123    1.0000 0.29627  0.95373  0.87155  Biso   1.000  C
  C1124    1.0000 0.26994  0.98006  0.86713  Biso   1.000  C
  C1125    1.0000 0.22122  0.02878  0.85630  Biso   1.000  C
  C1126    1.0000 0.19628  0.05372  0.85100  Biso   1.000  C
  C1127    1.0000 0.17511  0.07489  0.84620  Biso   1.000  C
  C1128    1.0000 0.14964  0.10036  0.84340  Biso   1.000  C
  C1129    1.0000 0.87845  0.95373  0.45373  Biso   1.000  C
  C1130    1.0000 0.88287  0.98006  0.48006  Biso   1.000  C
  C1131    1.0000 0.89370  0.02878  0.52878  Biso   1.000  C
  C1132    1.0000 0.89900  0.05372  0.55372  Biso   1.000  C
  C1133    1.0000 0.90380  0.07489  0.57489  Biso   1.000  C
  C1134    1.0000 0.90660  0.10036  0.60036  Biso   1.000  C
  C1135    1.0000 0.87155  0.95373  0.29627  Biso   1.000  C
  C1136    1.0000 0.86713  0.98006  0.26994  Biso   1.000  C
  C1137    1.0000 0.85630  0.02878  0.22122  Biso   1.000  C
  C1138    1.0000 0.85100  0.05372  0.19628  Biso   1.000  C
  C1139    1.0000 0.84620  0.07489  0.17511  Biso   1.000  C
  C1140    1.0000 0.84340  0.10036  0.14964  Biso   1.000  C
  C1141    1.0000 0.37155  0.79627  0.95373  Biso   1.000  C
  C1142    1.0000 0.36713  0.76994  0.98006  Biso   1.000  C
  C1143    1.0000 0.35630  0.72122  0.02878  Biso   1.000  C
  C1144    1.0000 0.35100  0.69628  0.05372  Biso   1.000  C
  C1145    1.0000 0.34620  0.67511  0.07489  Biso   1.000  C
  C1146    1.0000 0.34340  0.64964  0.10036  Biso   1.000  C
  C1147    1.0000 0.37155  0.29627  0.45373  Biso   1.000  C
  C1148    1.0000 0.36713  0.26994  0.48006  Biso   1.000  C
  C1149    1.0000 0.35630  0.22122  0.52878  Biso   1.000  C
  C1150    1.0000 0.35100  0.19628  0.55372  Biso   1.000  C
  C1151    1.0000 0.34620  0.17511  0.57489  Biso   1.000  C
  C1152    1.0000 0.34340  0.14964  0.60036  Biso   1.000  C
