data_I
_chemical_name_common  '/Users/gianmarcoterrones/Research/MOFs/MOF_structures/water_stability_work_extra_structs/cleaned_from_CCDC/XAPFUS'
_cell_length_a 14.79600
_cell_length_b 24.27500
_cell_length_c 31.84600
_cell_angle_alpha 90.00000
_cell_angle_beta  99.60000
_cell_angle_gamma 90.00000
_space_group_name_H-M_alt      'P 1'


loop_
_space_group_symop_operation_xyz
  'x, y, z' 

loop_
_atom_site_label
_atom_site_fract_x
_atom_site_fract_y
_atom_site_fract_z
_atom_site_type_symbol
H       0.0007   0.0715   0.3516     H
H       0.0007   0.4285   0.8516     H
C       0.0031   0.0454   0.1783     C
C       0.0031   0.4546   0.6783     C
H       0.0035   0.2448   0.1978     H
H       0.0035   0.2552   0.6978     H
C       0.0057   0.7174   0.8056     C
C       0.0057   0.7826   0.3056     C
H       0.0095   0.6592   0.3756     H
H       0.0095   0.8408   0.8756     H
C       0.0128   0.5067   0.8377     C
C       0.0128   0.9933   0.3377     C
H       0.0136   0.6971   0.1851     H
H       0.0136   0.8029   0.6851     H
C       0.0213   0.5458   0.9475     C
C       0.0213   0.9542   0.4475     C
C       0.0245   0.0129   0.4488     C
C       0.0245   0.4871   0.9488     C
C       0.0246    0.539   0.5727     C
C       0.0246    0.961   0.0727     C
C       0.0264   0.6315   0.3582     C
C       0.0264   0.8685   0.8582     C
H        0.027   0.0194   0.6448     H
H        0.027   0.4806   0.1448     H
C       0.0295   0.1288   0.6689     C
C       0.0295   0.3712   0.1689     C
C       0.0317   0.0142   0.0571     C
C       0.0317   0.4858   0.5571     C
H        0.032   0.0529   0.9234     H
H        0.032   0.4471   0.4234     H
C       0.0325   0.0468   0.3372     C
C       0.0325   0.4532   0.8372     C
C       0.0332   0.0876   0.1546     C
C       0.0332   0.4124   0.6546     C
N       0.0339   0.6012   0.4705     N
N       0.0339   0.8988   0.9705     N
H       0.0343   0.0643   0.5543     H
H       0.0343   0.4357   0.0543     H
C        0.035    0.603   0.8117     C
C        0.035    0.897   0.3117     C
Mo      0.0366  0.22696  0.94357    Mo
Mo      0.0366  0.27304  0.44357    Mo
N       0.0369   0.6022   0.0501     N
N       0.0369   0.8978   0.5501     N
Mo     0.03941  0.23368  0.53738    Mo
Mo     0.03941  0.26632  0.03738    Mo
H       0.0398   0.0146   0.1854     H
H       0.0398   0.4854   0.6854     H
C       0.0444   0.1864   0.6721     C
C       0.0444   0.3136   0.1721     C
C       0.0496   0.5513   0.4529     C
C       0.0496   0.9487   0.9529     C
C       0.0503    0.543   0.8128     C
C       0.0503    0.957   0.3128     C
C       0.0514   0.5478   0.0544     C
C       0.0514   0.9522   0.5544     C
O       0.0552   0.2048   0.4804     O
O       0.0552   0.2952   0.9804     O
O       0.0558   0.1993   0.0033     O
O       0.0558   0.3007   0.5033     O
H       0.0646   0.1078   0.6532     H
H       0.0646   0.3922   0.1532     H
H       0.0701   0.6536   0.2489     H
H       0.0701   0.8464   0.7489     H
O       0.0713   0.1608   0.9262     O
O       0.0713   0.3392   0.4262     O
O       0.0715   0.2316   0.4001     O
O       0.0715   0.2684   0.9001     O
C       0.0746   0.6889   0.7871     C
C       0.0746   0.8111   0.2871     C
O       0.0761   0.7305    0.966     O
O       0.0761   0.7695    0.466     O
C       0.0764   0.6919   0.1929     C
C       0.0764   0.8081   0.6929     C
O       0.0767   0.2249   0.0862     O
O       0.0767   0.2751   0.5862     O
O       0.0769   0.1663   0.5602     O
O       0.0769   0.3337   0.0602     O
O       0.0785   0.7245   0.5696     O
O       0.0785   0.7755   0.0696     O
O       0.0805   0.5872   0.7009     O
O       0.0805   0.9128   0.2009     O
C        0.082   0.5491   0.3084     C
C        0.082   0.9509   0.8084     C
N        0.088   0.6323   0.7907     N
N        0.088   0.8677   0.2907     N
H       0.0888   0.2026   0.6587     H
H       0.0888   0.2974   0.1587     H
H       0.0915   0.0867   0.1473     H
H       0.0915   0.4133   0.6473     H
H       0.0944   0.6705   0.4935     H
H       0.0944   0.8295   0.9935     H
H       0.0959   0.6746   0.0492     H
H       0.0959   0.8254   0.5492     H
C       0.1002    0.066   0.3154     C
C       0.1002    0.434   0.8154     C
H       0.1019   0.6057   0.5951     H
H       0.1019   0.6133   0.9477     H
H       0.1019   0.8867   0.4477     H
H       0.1019   0.8943   0.0951     H
H        0.102   0.5208   0.2926     H
H        0.102   0.9792   0.7926     H
C       0.1035   0.5751   0.9491     C
C       0.1035   0.9249   0.4491     C
C       0.1038   0.5714   0.5822     C
C       0.1038   0.9286   0.0822     C
Zn     0.10428  0.12777  0.46511    Zn
Zn     0.10428  0.37223  0.96511    Zn
Zn      0.1044  0.12023  0.02548    Zn
Zn      0.1044  0.37977  0.52548    Zn
C       0.1048   0.6369   0.4811     C
C       0.1048   0.8631   0.9811     C
C       0.1084   0.6372   0.0527     C
C       0.1084   0.8628   0.5527     C
N       0.1091   0.0377   0.4518     N
N       0.1091   0.4623   0.9518     N
C       0.1097   0.6651   0.2309     C
C       0.1097   0.8349   0.7309     C
N       0.1103   0.0348   0.0474     N
N       0.1103   0.4652   0.5474     N
C       0.1107   0.6334   0.3448     C
C       0.1107   0.8666   0.8448     C
H        0.111    0.732   0.1436     H
H        0.111    0.768   0.6436     H
H       0.1119   0.7092    0.772     H
H       0.1119   0.7908    0.272     H
H       0.1137    0.718   0.4001     H
H       0.1137    0.782   0.9001     H
N       0.1141   0.5243   0.7893     N
N       0.1141   0.9757   0.2893     N
H       0.1212   0.1021   0.3182     H
H       0.1212   0.3979   0.8182     H
C       0.1334   0.7105   0.1672     C
C       0.1334   0.7895   0.6672     C
C       0.1342    0.029   0.2897     C
C       0.1342    0.471   0.7897     C
N       0.1363   0.5951   0.3188     N
N       0.1363   0.9049   0.8188     N
C       0.1381    0.536   0.4457     C
C       0.1381    0.964   0.9457     C
C       0.1453   0.5292    0.062     C
C       0.1453   0.9708    0.562     C
H       0.1484   0.5016   0.4345     H
H       0.1484   0.9984   0.9345     H
H       0.1573   0.0083   0.5654     H
H       0.1573   0.4917   0.0654     H
C       0.1643   0.7184   0.3863     C
C       0.1643   0.7816   0.8863     C
C       0.1731   0.6786   0.3557     C
C       0.1731   0.8214   0.8557     C
H       0.1732   0.0417   0.2718     H
H       0.1732   0.4583   0.7718     H
Co      0.1792  0.59036  0.75943    Co
Co      0.1792  0.90964  0.25943    Co
C       0.1832   0.0025   0.0552     C
C       0.1832   0.4975   0.5552     C
O        0.184   0.1963   0.3421     O
O        0.184   0.3037   0.8421     O
C       0.1843   0.5492   0.9526     C
C       0.1843   0.9508   0.4526     C
C       0.1845   0.0083   0.4526     C
C       0.1845   0.4917   0.9526     C
C       0.1855   0.5509   0.5719     C
C       0.1855   0.9491   0.0719     C
O        0.186   0.0811   0.8942     O
O        0.186   0.4189   0.3942     O
C        0.193   0.6242   0.4738     C
C        0.193   0.8758   0.9738     C
O        0.194   0.1524   0.4287     O
O        0.194   0.3476   0.9287     O
O       0.1949    0.188   0.1614     O
O       0.1949    0.312   0.6614     O
O       0.1955   0.1099   0.9847     O
O       0.1955   0.3901   0.4847     O
O       0.1972   0.0894   0.6085     O
O       0.1972   0.4106   0.1085     O
O       0.1977   0.1457   0.0749     O
O       0.1977   0.3543   0.5749     O
N       0.1984   0.6562   0.2408     N
N       0.1984   0.8438   0.7408     N
O       0.1987    0.118   0.5194     O
O       0.1987    0.382   0.0194     O
C       0.1995   0.6207   0.0602     C
C       0.1995   0.8793   0.5602     C
Mo      0.2004  0.21912  0.39257    Mo
Mo      0.2004  0.28088  0.89257    Mo
H       0.2005   0.5544   0.2035     H
H       0.2005   0.9456   0.7035     H
Mo     0.20255  0.13668  0.92673    Mo
Mo     0.20255  0.36332  0.42673    Mo
O        0.205   0.1963   0.8791     O
O        0.205   0.3037   0.3791     O
O       0.2058   0.2313   0.9631     O
O       0.2058   0.2687   0.4631     O
Mo     0.20804  0.21137  0.11274    Mo
Mo     0.20804  0.28863  0.61274    Mo
O       0.2091   0.2374   0.5424     O
O       0.2091   0.2626   0.0424     O
C       0.2099    0.574   0.4559     C
C       0.2099    0.926   0.9559     C
Mo     0.21013  0.14538  0.57851    Mo
Mo     0.21013  0.35462  0.07851    Mo
H       0.2104   0.5369   0.6728     H
H       0.2104   0.9631   0.1728     H
C       0.2165   0.5646   0.0643     C
C       0.2165   0.9354   0.5643     C
O       0.2166    0.205   0.6265     O
O       0.2166    0.295   0.1265     O
O       0.2185   0.6618   0.6678     O
O       0.2185   0.8382   0.1678     O
O       0.2207   0.6645   0.7381     O
O       0.2207   0.8355   0.2381     O
C        0.224   0.6976   0.1761     C
C        0.224   0.8024   0.6761     C
H       0.2258   0.0244    0.668     H
H       0.2258   0.4756    0.168     H
H       0.2278   0.7161    0.918     H
H       0.2278   0.7839    0.418     H
C       0.2318   0.5257   0.2188     C
C       0.2318   0.7411   0.8962     C
C       0.2318   0.7589   0.3962     C
C       0.2318   0.9743   0.7188     C
H       0.2379   0.0166    0.049     H
H       0.2379   0.4834    0.549     H
H       0.2388    0.569    0.955     H
H       0.2388    0.931    0.455     H
H       0.2389   0.5717    0.576     H
H       0.2389   0.9283    0.076     H
H       0.2399   0.0267   0.4532     H
H       0.2399   0.4733   0.9532     H
H       0.2404   0.6495   0.4809     H
H       0.2404   0.8505   0.9809     H
C       0.2414   0.0229   0.6975     C
C       0.2414   0.4771   0.1975     C
H       0.2418   0.6106   0.8591     H
H       0.2418   0.8894   0.3591     H
H        0.247   0.6461   0.0625     H
H        0.247   0.8539   0.5625     H
N       0.2513   0.6779   0.3381     N
N       0.2513   0.8221   0.8381     N
C       0.2583    0.672   0.2167     C
C       0.2583    0.828   0.7167     C
C       0.2592   0.6668   0.7055     C
C       0.2592   0.8332   0.2055     C
Co     0.26287  0.61043  0.29621    Co
Co     0.26287  0.88957  0.79621    Co
H       0.2629   0.7051   0.1567     H
H       0.2629   0.7949   0.6567     H
N       0.2645   0.5342   0.2601     N
N       0.2645   0.9658   0.7601     N
C       0.2671   0.5308   0.6897     C
C       0.2671   0.9692   0.1897     C
P       0.2675  0.24658   0.0069     P
P       0.2675  0.25342   0.5069     P
H       0.2684   0.5655   0.4507     H
H       0.2684   0.9345   0.9507     H
H       0.2699   0.0996   0.7049     H
H       0.2699   0.4004   0.2049     H
C       0.2714   0.0654   0.7183     C
C       0.2714   0.4346   0.2183     C
H       0.2764   0.5515   0.0686     H
H       0.2764   0.9485   0.5686     H
N       0.2779   0.5443   0.7323     N
N       0.2779   0.9557   0.2323     N
N       0.2936   0.5812   0.8108     N
N       0.2936   0.9188   0.3108     N
C       0.2953   0.5956   0.8523     C
C       0.2953   0.9044   0.3523     C
C       0.3018   0.0099   0.7831     C
C       0.3018   0.4901   0.2831     C
C       0.3021   0.7381   0.8747     C
C       0.3021   0.7619   0.3747     C
C       0.3086   0.0602   0.7639     C
C       0.3086   0.4398   0.2639     C
C       0.3126   0.7194   0.3463     C
C       0.3126   0.7806   0.8463     C
H       0.3259   0.0015   0.1429     H
H       0.3259   0.4985   0.6429     H
O        0.327   0.2021   0.4993     O
O        0.327   0.2979   0.9993     O
Mo     0.32824   0.1507   0.4294    Mo
Mo     0.32824   0.3493   0.9294    Mo
Mo     0.32925  0.10062  0.98915    Mo
Mo     0.32925  0.39938  0.48915    Mo
O       0.3295   0.1965   0.0231     O
O       0.3295   0.3035   0.5231     O
O       0.3324   0.2275   0.4103     O
O       0.3324   0.2725   0.9103     O
Mo     0.33282  0.10874  0.53471    Mo
Mo     0.33282  0.39126  0.03471    Mo
Mo    0.33333333  0.14292  0.09398    Mo
Mo    0.33333333  0.35708  0.59398    Mo
C       0.3347   0.5092   0.6714     C
C       0.3347   0.9908   0.1714     C
O       0.3351   0.0957   0.4744     O
O       0.3351   0.4043   0.9744     O
O       0.3357   0.1498   0.9392     O
O       0.3357   0.3502   0.4392     O
H        0.336     0.09   0.7794     H
H        0.336     0.41   0.2794     H
O       0.3376    0.089   0.0498     O
O       0.3376    0.411   0.5498     O
N       0.3384   0.5546     0.34     N
N       0.3384   0.9454     0.84     N
O         0.34   0.2195   0.1144     O
O         0.34   0.2805   0.6144     O
O       0.3419   0.0358    0.972     O
O       0.3419   0.4642    0.472     O
O       0.3428   0.1121    0.387     O
O       0.3428   0.3879    0.887     O
H       0.3428   0.7086   0.8786     H
H       0.3428   0.7914   0.3786     H
O       0.3435   0.1586   0.5844     O
O       0.3435   0.3414   0.0844     O
C       0.3436   0.5043   0.3288     C
C       0.3436   0.9957   0.8288     C
O       0.3484   0.0456   0.5553     O
O       0.3484   0.4544   0.0553     O
O        0.351   0.1052   0.1393     O
O        0.351   0.3948   0.6393     O
O       0.3539   0.1817   0.8404     O
O       0.3539   0.3183   0.3404     O
C       0.3577   0.5379   0.7557     C
C       0.3577   0.9621   0.2557     C
C       0.3591   0.6612   0.2327     C
C       0.3591   0.8388   0.7327     C
C       0.3607   0.6761   0.7125     C
C       0.3607   0.8239   0.2125     C
O       0.3614    0.189   0.6842     O
O       0.3614    0.311   0.1842     O
H       0.3634   0.7197   0.3326     H
H       0.3634   0.7803   0.8326     H
H       0.3664   0.6043   0.9119     H
H       0.3664   0.8957   0.4119     H
C       0.3677   0.5549   0.8007     C
C       0.3677   0.5903   0.8848     C
C       0.3677   0.9097   0.3848     C
C       0.3677   0.9451   0.3007     C
H        0.376   0.6827   0.7765     H
H        0.376   0.8173   0.2765     H
N       0.3767   0.6411    0.271     N
N       0.3767   0.8589    0.771     N
O       0.3781   0.6805   0.9833     O
O       0.3781   0.8195   0.4833     O
H       0.3803    0.678   0.6505     H
H       0.3803    0.822   0.1505     H
O       0.3808   0.6727   0.4493     O
O       0.3808   0.8273   0.9493     O
H       0.3812    0.606   0.3872     H
H       0.3812    0.894   0.8872     H
C       0.3846   0.5693   0.3791     C
C       0.3846   0.9307   0.8791     C
H       0.3858   0.1903   0.7649     H
H       0.3858   0.3097   0.2649     H
H       0.3885   0.0733   0.8501     H
H       0.3885   0.4267   0.3501     H
C       0.3904   0.0364   0.8578     C
C       0.3904   0.4636   0.3578     C
H        0.404   0.1446    0.221     H
H        0.404   0.3554    0.721     H
H       0.4085   0.6879   0.1783     H
H       0.4085   0.8121   0.6783     H
C       0.4094    0.683   0.7542     C
C       0.4094    0.817   0.2542     C
C       0.4107   0.6795   0.6785     C
C       0.4107   0.8205   0.1785     C
Zn     0.41897  0.21078  0.93225    Zn
Zn     0.41897  0.28922  0.43225    Zn
C       0.4241   0.5038   0.6999     C
C       0.4241   0.9962   0.1999     C
C       0.4253    0.675    0.206     C
C       0.4253    0.825    0.706     C
Zn     0.42603  0.21962   0.6054    Zn
Zn     0.42603  0.28038   0.1054    Zn
C       0.4334   0.5157   0.7405     C
C       0.4334   0.9843   0.2405     C
H       0.4354    0.175   0.2899     H
H       0.4354    0.325   0.7899     H
C       0.4362   0.5338   0.4074     C
C       0.4362   0.9662   0.9074     C
C       0.4377   0.0206    0.897     C
C       0.4377   0.4794    0.397     C
C       0.4382   0.1867   0.8485     C
C       0.4382   0.3133   0.3485     C
C       0.4432   0.5626   0.8748     C
C       0.4432   0.9374   0.3748     C
C        0.444   0.5464   0.8328     C
C        0.444   0.9536   0.3328     C
C       0.4454   0.1951   0.6908     C
C       0.4454   0.3049   0.1908     C
C       0.4495   0.1888   0.7705     C
C       0.4495   0.3112   0.2705     C
O       0.4618   0.1251   0.0059     O
O       0.4618   0.3749   0.5059     O
O       0.4626   0.1657   0.4554     O
O       0.4626   0.3343   0.9554     O
C       0.4646   0.1489   0.2342     C
C       0.4646   0.3511   0.7342     C
C       0.4649   0.6363   0.2884     C
C       0.4649   0.8637   0.7884     C
O       0.4652   0.1329   0.5372     O
O       0.4652   0.3671   0.0372     O
O       0.4655   0.1602   0.0873     O
O       0.4655   0.3398   0.5873     O
H        0.469   0.5467    0.433     H
H        0.469   0.9533    0.933     H
H       0.4695   0.0462   0.9156     H
H       0.4695   0.4538   0.4156     H
H       0.4748   0.0083   0.1887     H
H       0.4748   0.4917   0.6887     H
H       0.4798   0.6242   0.3164     H
H       0.4798   0.8758   0.8164     H
C       0.4828   0.1674   0.2749     C
C       0.4828   0.3326   0.7749     C
O       0.4848    0.197   0.8856     O
O       0.4848    0.303   0.3856     O
H       0.4885   0.5097   0.7587     H
H       0.4885   0.9903   0.2587     H
O       0.4929   0.2316    0.987     O
O       0.4929   0.2684    0.487     O
H       0.4929   0.5549   0.8959     H
H       0.4929   0.9451   0.3959     H
C       0.4931   0.1852   0.8128     C
C       0.4931   0.3148   0.3128     C
Mo     0.49338  0.69014  0.99056    Mo
Mo     0.49338  0.80986  0.49056    Mo
Mo     0.49446  0.68315  0.46053    Mo
Mo     0.49446  0.81685  0.96053    Mo
O       0.4947   0.2382   0.5597     O
O       0.4947   0.2618   0.0597     O
H       0.4961   0.5296   0.8259     H
H       0.4961   0.9704   0.3259     H
O       0.4962   0.2054   0.6621     O
O       0.4962   0.2946   0.1621     O
C       0.4975   0.1903   0.7358     C
C       0.4975   0.3097   0.2358     C
C       0.5025   0.6903   0.7642     C
C       0.5025   0.8097   0.2642     C
O       0.5038   0.7054   0.8379     O
O       0.5038   0.7946   0.3379     O
H       0.5039   0.0296   0.6741     H
H       0.5039   0.4704   0.1741     H
O       0.5053   0.7382   0.9403     O
O       0.5053   0.7618   0.4403     O
Mo     0.50554  0.18315  0.03947    Mo
Mo     0.50554  0.31685  0.53947    Mo
Mo     0.50662  0.19014  0.50944    Mo
Mo     0.50662  0.30986  0.00944    Mo
C       0.5069   0.6852   0.6872     C
C       0.5069   0.8148   0.1872     C
H       0.5071   0.0549   0.6041     H
H       0.5071   0.4451   0.1041     H
O       0.5071   0.7316    0.513     O
O       0.5071   0.7684    0.013     O
H       0.5115   0.0097   0.7413     H
H       0.5115   0.4903   0.2413     H
O       0.5152    0.697   0.6144     O
O       0.5152    0.803   0.1144     O
C       0.5172   0.6674   0.2251     C
C       0.5172   0.8326   0.7251     C
H       0.5202   0.1242   0.1836     H
H       0.5202   0.3758   0.6836     H
H       0.5252   0.5083   0.3113     H
H       0.5252   0.9917   0.8113     H
H       0.5305   0.5462   0.5844     H
H       0.5305   0.9538   0.0844     H
H        0.531   0.0467    0.067     H
H        0.531   0.4533    0.567     H
O       0.5345   0.6602   0.4127     O
O       0.5345   0.8398   0.9127     O
O       0.5348   0.6329   0.9628     O
O       0.5348   0.8671   0.4628     O
C       0.5351   0.1363   0.2116     C
C       0.5351   0.3637   0.7116     C
C       0.5354   0.6489   0.2658     C
C       0.5354   0.8511   0.7658     C
O       0.5374   0.6657   0.0446     O
O       0.5374   0.8343   0.5446     O
O       0.5382   0.6251   0.4941     O
O       0.5382   0.8749   0.9941     O
C       0.5505   0.6888   0.7295     C
C       0.5505   0.8112   0.2295     C
C       0.5546   0.6951   0.8092     C
C       0.5546   0.8049   0.3092     C
C        0.556   0.0464   0.6672     C
C        0.556   0.4536   0.1672     C
C       0.5568   0.0626   0.6252     C
C       0.5568   0.4374   0.1252     C
C       0.5618   0.6867   0.6515     C
C       0.5618   0.8133   0.1515     C
C       0.5623   0.5206    0.603     C
C       0.5623   0.9794    0.103     C
C       0.5638   0.0338   0.0926     C
C       0.5638   0.4662   0.5926     C
H       0.5646    0.675   0.2101     H
H       0.5646    0.825   0.7101     H
C       0.5666   0.0157   0.7595     C
C       0.5666   0.4843   0.2595     C
Zn     0.57397  0.71962   0.8946    Zn
Zn     0.57397  0.78038   0.3946    Zn
C       0.5747    0.175    0.294     C
C       0.5747    0.325    0.794     C
C       0.5759   0.0038   0.8001     C
C       0.5759   0.4962   0.3001     C
Zn     0.58103  0.71078  0.56775    Zn
Zn     0.58103  0.78922  0.06775    Zn
C       0.5893   0.1795   0.8215     C
C       0.5893   0.3205   0.3215     C
C       0.5906    0.183   0.7458     C
C       0.5906    0.317   0.2458     C
H       0.5915   0.1879   0.3217     H
H       0.5915   0.3121   0.8217     H
H        0.596   0.6446    0.279     H
H        0.596   0.8554    0.779     H
C       0.6096   0.5364   0.6422     C
C       0.6096   0.9636   0.1422     C
H       0.6115   0.5733   0.6499     H
H       0.6115   0.9267   0.1499     H
H       0.6142   0.6903   0.7351     H
H       0.6142   0.8097   0.2351     H
C       0.6154   0.0693   0.1209     C
C       0.6154   0.4307   0.6209     C
H       0.6188    0.106   0.1128     H
H       0.6188    0.394   0.6128     H
O       0.6192   0.1727   0.0507     O
O       0.6192   0.3273   0.5507     O
H       0.6197    0.178   0.8495     H
H       0.6197    0.322   0.3495     H
O       0.6219   0.1805   0.5167     O
O       0.6219   0.3195   0.0167     O
N       0.6233   0.1411    0.229     N
N       0.6233   0.3589    0.729     N
H        0.624   0.1827   0.7235     H
H        0.624   0.3173   0.2235     H
C       0.6323   0.0549   0.6993     C
C       0.6323   0.0903   0.6152     C
C       0.6323   0.4097   0.1152     C
C       0.6323   0.4451   0.1993     C
H       0.6336   0.1043   0.5881     H
H       0.6336   0.3957   0.0881     H
H       0.6366   0.2197   0.1674     H
H       0.6366   0.2803   0.6674     H
O       0.6386    0.689   0.8158     O
O       0.6386    0.811   0.3158     O
C       0.6393   0.1761   0.7875     C
C       0.6393   0.3239   0.2875     C
C       0.6409   0.1612   0.2673     C
C       0.6409   0.3388   0.7673     C
C       0.6423   0.0379   0.7443     C
C       0.6423   0.4621   0.2443     C
O       0.6461   0.6817   0.6596     O
O       0.6461   0.8183   0.1596     O
O        0.649   0.6052   0.3607     O
O        0.649   0.8948   0.8607     O
O       0.6516   0.5456   0.9447     O
O       0.6516   0.9544   0.4447     O
C       0.6564   0.0043   0.1712     C
C       0.6564   0.4957   0.6712     C
O       0.6565   0.6586   0.9156     O
O       0.6565   0.8414   0.4156     O
H       0.6572   0.2086   0.6214     H
H       0.6572   0.2914   0.1214     H
O       0.6572   0.6121    0.113     O
O       0.6572   0.8879    0.613     O
O       0.6581   0.5358    0.528     O
O       0.6581   0.9642    0.028     O
O         0.66   0.7195   0.3856     O
O         0.66   0.7805   0.8856     O
N       0.6616   0.0546     0.16     N
N       0.6616   0.4454     0.66     N
O       0.6624    0.589   0.4502     O
O       0.6624    0.911   0.9502     O
H        0.664     0.59   0.7206     H
H        0.664     0.91   0.2206     H
O       0.6643   0.6498   0.5608     O
O       0.6643   0.8502   0.0608     O
O       0.6649   0.5957   0.0256     O
O       0.6649   0.9043   0.5256     O
C       0.6653   0.0092   0.8286     C
C       0.6653   0.4908   0.3286     C
Mo    0.66666667  0.64292  0.40602    Mo
Mo    0.66666667  0.85708  0.90602    Mo
Mo     0.66718  0.60874  0.96529    Mo
Mo     0.66718  0.89126  0.46529    Mo
O       0.6676   0.7275   0.0897     O
O       0.6676   0.7725   0.5897     O
O       0.6705   0.6965   0.4769     O
O       0.6705   0.8035   0.9769     O
Mo     0.67075  0.60062  0.51085    Mo
Mo     0.67075  0.89938  0.01085    Mo
Mo     0.67176   0.6507   0.0706    Mo
Mo     0.67176   0.8493   0.5706    Mo
O        0.673   0.7021   0.0007     O
O        0.673   0.7979   0.5007     O
H       0.6741   0.5015   0.3571     H
H       0.6741   0.9985   0.8571     H
C       0.6874   0.2194   0.1537     C
C       0.6874   0.2806   0.6537     C
C       0.6914   0.5602   0.7361     C
C       0.6914   0.9398   0.2361     C
C       0.6979   0.2381   0.6253     C
C       0.6979   0.2619   0.1253     C
C       0.6982   0.5099   0.7169     C
C       0.6982   0.9901   0.2169     C
C       0.7047   0.0956   0.6477     C
C       0.7047   0.4044   0.1477     C
N       0.7064   0.0812   0.6892     N
N       0.7064   0.4188   0.1892     N
N       0.7221   0.0443   0.7677     N
N       0.7221   0.4557   0.2677     N
H       0.7236   0.0515   0.4314     H
H       0.7236   0.4485   0.9314     H
C       0.7286   0.5654   0.7817     C
C       0.7286   0.9346   0.2817     C
H       0.7301   0.5996   0.7951     H
H       0.7301   0.9004   0.2951     H
H       0.7316   0.0655   0.0493     H
H       0.7316   0.4345   0.5493     H
P       0.7325  0.74658   0.4931     P
P       0.7325  0.75342   0.9931     P
C       0.7329   0.0308   0.8103     C
C       0.7329   0.4692   0.3103     C
N       0.7355   0.0342   0.2399     N
N       0.7355   0.4658   0.7399     N
H       0.7371   0.2051   0.3433     H
H       0.7371   0.2949   0.8433     H
Co     0.73713  0.11043  0.20379    Co
Co     0.73713  0.38957  0.70379    Co
C       0.7408   0.1668   0.7945     C
C       0.7408   0.3332   0.2945     C
C       0.7417    0.172   0.2833     C
C       0.7417    0.328   0.7833     C
N       0.7487   0.1779   0.1619     N
N       0.7487   0.3221   0.6619     N
H        0.753   0.1461   0.4375     H
H        0.753   0.3539   0.9375     H
H       0.7582   0.1106   0.6409     H
H       0.7582   0.3894   0.1409     H
C       0.7586   0.5229   0.8025     C
C       0.7586   0.9771   0.3025     C
H       0.7596   0.1495   0.0191     H
H       0.7596   0.3505   0.5191     H
H       0.7601   0.5267   0.0468     H
H       0.7601   0.9733   0.5468     H
H       0.7611   0.0717    0.924     H
H       0.7611   0.4283    0.424     H
H       0.7612    0.069    0.545     H
H       0.7612    0.431    0.045     H
H       0.7621   0.5166    0.451     H
H       0.7621   0.9834    0.951     H
C       0.7682   0.0257   0.2812     C
C       0.7682   0.2411   0.6038     C
C       0.7682   0.2589   0.1038     C
C       0.7682   0.4743   0.7812     C
H       0.7722   0.2161    0.582     H
H       0.7722   0.2839    0.082     H
H       0.7742   0.5244    0.832     H
H       0.7742   0.9756    0.332     H
C        0.776   0.1976   0.3239     C
C        0.776   0.3024   0.8239     C
O       0.7793   0.1645   0.7619     O
O       0.7793   0.3355   0.2619     O
O       0.7815   0.1618   0.8322     O
O       0.7815   0.3382   0.3322     O
O       0.7834    0.705   0.8735     O
O       0.7834    0.795   0.3735     O
C       0.7835   0.0646   0.4357     C
C       0.7835   0.4354   0.9357     C
H       0.7896   0.0369   0.8272     H
H       0.7896   0.4631   0.3272     H
Mo     0.78987  0.64538  0.92149    Mo
Mo     0.78987  0.85462  0.42149    Mo
C       0.7901    0.074   0.0441     C
C       0.7901    0.426   0.5441     C
O       0.7909   0.7374   0.9576     O
O       0.7909   0.7626   0.4576     O
Mo     0.79196  0.71137  0.38726    Mo
Mo     0.79196  0.78863  0.88726    Mo
O       0.7942   0.7313   0.5369     O
O       0.7942   0.7687   0.0369     O
O        0.795   0.6963   0.6209     O
O        0.795   0.8037   0.1209     O
Mo     0.79745  0.63668  0.57327    Mo
Mo     0.79745  0.86332  0.07327    Mo
H       0.7995   0.0544   0.2965     H
H       0.7995   0.4456   0.7965     H
Mo      0.7996  0.71912  0.10743    Mo
Mo      0.7996  0.78088  0.60743    Mo
C       0.8005   0.1207   0.4398     C
C       0.8005   0.3793   0.9398     C
O       0.8013    0.618   0.9806     O
O       0.8013    0.882   0.4806     O
N       0.8016   0.1562   0.2592     N
N       0.8016   0.3438   0.7592     N
O       0.8023   0.6457   0.4251     O
O       0.8023   0.8543   0.9251     O
O       0.8028   0.5894   0.8915     O
O       0.8028   0.9106   0.3915     O
O       0.8045   0.6099   0.5153     O
O       0.8045   0.8901   0.0153     O
O       0.8051    0.688   0.3386     O
O       0.8051    0.812   0.8386     O
O        0.806   0.6524   0.0713     O
O        0.806   0.8476   0.5713     O
C        0.807   0.1242   0.0262     C
C        0.807   0.3758   0.5262     C
O        0.814   0.5811   0.6058     O
O        0.814   0.9189   0.1058     O
C       0.8145   0.0509   0.9281     C
C       0.8145   0.4491   0.4281     C
C       0.8155   0.5083   0.0474     C
C       0.8155   0.9917   0.5474     C
C       0.8157   0.0492   0.5474     C
C       0.8157   0.4508   0.0474     C
O        0.816   0.6963   0.1579     O
O        0.816   0.8037   0.6579     O
C       0.8168   0.5025   0.4448     C
C       0.8168   0.9975   0.9448     C
Co      0.8208  0.09036  0.74057    Co
Co      0.8208  0.40964  0.24057    Co
H       0.8268   0.5417   0.2282     H
H       0.8268   0.9583   0.7282     H
C       0.8269   0.1786   0.1443     C
C       0.8269   0.3214   0.6443     C
C       0.8357   0.2184   0.1137     C
C       0.8357   0.2816   0.6137     C
H       0.8427   0.5083   0.9346     H
H       0.8427   0.9917   0.4346     H
H       0.8516   0.0016   0.0655     H
H       0.8516   0.4984   0.5655     H
C       0.8547   0.0292    0.438     C
C       0.8547   0.4708    0.938     C
C       0.8619    0.036   0.0543     C
C       0.8619    0.464   0.5543     C
N       0.8637   0.0951   0.1812     N
N       0.8637   0.4049   0.6812     N
C       0.8658    0.529   0.2103     C
C       0.8658    0.971   0.7103     C
C       0.8666   0.2105   0.3328     C
C       0.8666   0.2895   0.8328     C
H       0.8788   0.6021   0.1818     H
H       0.8788   0.8979   0.6818     H
N       0.8859   0.0243   0.7107     N
N       0.8859   0.4757   0.2107     N
H       0.8863    0.218   0.0999     H
H       0.8863    0.282   0.5999     H
H       0.8881   0.2092    0.728     H
H       0.8881   0.2908    0.228     H
H        0.889    0.232   0.3564     H
H        0.889    0.268   0.8564     H
C       0.8893   0.1334   0.1552     C
C       0.8893   0.3666   0.6552     C
N       0.8897   0.5348   0.4526     N
N       0.8897   0.9652   0.9526     N
C       0.8903   0.1651   0.2691     C
C       0.8903   0.3349   0.7691     C
N       0.8909   0.5377   0.0482     N
N       0.8909   0.9623   0.5482     N
C       0.8916   0.1372   0.4473     C
C       0.8916   0.3628   0.9473     C
C       0.8952   0.1369   0.0189     C
C       0.8952   0.3631   0.5189     C
Zn      0.8956  0.62023  0.47452    Zn
Zn      0.8956  0.87977  0.97452    Zn
Zn     0.89572  0.62777  0.03489    Zn
Zn     0.89572  0.87223  0.53489    Zn
C       0.8962   0.0714   0.9178     C
C       0.8962   0.4286   0.4178     C
C       0.8965   0.0751   0.5509     C
C       0.8965   0.4249   0.0509     C
H        0.898   0.0208   0.2074     H
H        0.898   0.4792   0.7074     H
H       0.8981   0.1057   0.9049     H
H       0.8981   0.1133   0.5523     H
H       0.8981   0.3867   0.0523     H
H       0.8981   0.3943   0.4049     H
C       0.8998    0.566   0.1846     C
C       0.8998    0.934   0.6846     C
H       0.9041   0.1746   0.4508     H
H       0.9041   0.3254   0.9508     H
H       0.9056   0.1705   0.0065     H
H       0.9056   0.3295   0.5065     H
H       0.9085   0.5867   0.3527     H
H       0.9085   0.9133   0.8527     H
H       0.9112   0.7026   0.8413     H
H       0.9112   0.7974   0.3413     H
N        0.912   0.1323   0.7093     N
N        0.912   0.3677   0.2093     N
C        0.918   0.0491   0.1916     C
C        0.918   0.4509   0.6916     C
O       0.9195   0.0872   0.7991     O
O       0.9195   0.4128   0.2991     O
O       0.9215   0.2245   0.9304     O
O       0.9215   0.2755   0.4304     O
O       0.9231   0.6663   0.9398     O
O       0.9231   0.8337   0.4398     O
O       0.9233   0.7249   0.4138     O
O       0.9233   0.7751   0.9138     O
C       0.9236   0.1919   0.3071     C
C       0.9236   0.3081   0.8071     C
O       0.9239   0.2305    0.534     O
O       0.9239   0.2695    0.034     O
C       0.9254   0.1889   0.7129     C
C       0.9254   0.3111   0.2129     C
O       0.9285   0.7316   0.0999     O
O       0.9285   0.7684   0.5999     O
O       0.9287   0.6608   0.5738     O
O       0.9287   0.8392   0.0738     O
H       0.9299   0.1536   0.2511     H
H       0.9299   0.3464   0.7511     H
H       0.9354   0.6078   0.8468     H
H       0.9354   0.8922   0.3468     H
O       0.9442   0.6993   0.4967     O
O       0.9442   0.8007   0.9967     O
O       0.9448   0.7048   0.0196     O
O       0.9448   0.7952   0.5196     O
C       0.9486   0.0478   0.4456     C
C       0.9486   0.4522   0.9456     C
C       0.9497    0.043   0.6872     C
C       0.9497    0.457   0.1872     C
C       0.9504   0.0513   0.0471     C
C       0.9504   0.4487   0.5471     C
C       0.9556   0.6864   0.8279     C
C       0.9556   0.8136   0.3279     C
H       0.9602   0.5146   0.3146     H
H       0.9602   0.9854   0.8146     H
Mo     0.96059  0.73368  0.96262    Mo
Mo     0.96059  0.76632  0.46262    Mo
N       0.9631   0.1022   0.4499     N
N       0.9631   0.3978   0.9499     N
Mo      0.9634  0.72696  0.55643    Mo
Mo      0.9634  0.77304  0.05643    Mo
C        0.965    0.103   0.6883     C
C        0.965    0.397   0.1883     C
H       0.9657   0.5643   0.9457     H
H       0.9657   0.9357   0.4457     H
N       0.9661   0.1012   0.0295     N
N       0.9661   0.3988   0.5295     N
C       0.9668   0.5876   0.3454     C
C       0.9668   0.9124   0.8454     C
C       0.9675   0.5468   0.1628     C
C       0.9675   0.9532   0.6628     C
H        0.968   0.5529   0.5766     H
H        0.968   0.9471   0.0766     H
C       0.9683   0.5142   0.4429     C
C       0.9683   0.9858   0.9429     C
C       0.9705   0.6288   0.8311     C
C       0.9705   0.8712   0.3311     C
H        0.973   0.5194   0.8552     H
H        0.973   0.9806   0.3552     H
C       0.9736   0.1315   0.1418     C
C       0.9736   0.3685   0.6418     C
C       0.9754    0.039   0.9273     C
C       0.9754    0.461   0.4273     C
C       0.9755   0.5129   0.0512     C
C       0.9755   0.9871   0.5512     C
C       0.9787   0.0458   0.5525     C
C       0.9787   0.4542   0.0525     C
H       0.9864   0.1971   0.3149     H
H       0.9864   0.3029   0.8149     H
C       0.9872   0.0067   0.6623     C
C       0.9872   0.4933   0.1623     C
H       0.9905   0.1592   0.1244     H
H       0.9905   0.3408   0.6244     H
C       0.9943   0.2174   0.6944     C
C       0.9943   0.2826   0.1944     C
H       0.9965   0.7448   0.3022     H
H       0.9965   0.7552   0.8022     H
C       0.9969   0.5454   0.3217     C
C       0.9969   0.9546   0.8217     C
H       0.9993   0.5715   0.1484     H
H       0.9993   0.9285   0.6484     H
