data_I
_chemical_name_common  '/Users/gianmarcoterrones/Research/MOFs/MOF_structures/water_stability_work_extra_structs/cleaned_from_CoRE/YIZJEY_clean'
_cell_length_a 14.53800
_cell_length_b 14.53800
_cell_length_c 17.51500
_cell_angle_alpha 90.00000
_cell_angle_beta  90.00000
_cell_angle_gamma 120.00000
_space_group_name_H-M_alt      'P 1'


loop_
_space_group_symop_operation_xyz
  'x, y, z' 

loop_
_atom_site_label
_atom_site_fract_x
_atom_site_fract_y
_atom_site_fract_z
_atom_site_type_symbol
H       0.0186   0.6368   0.8753     H
C       0.0206   0.6027   0.5787     C
C       0.0209   0.6028   0.9217     C
H       0.0212   0.4728   0.0842     H
C       0.0214   0.3628  0.48475     C
C       0.0216   0.3629  0.01515     C
N       0.0305   0.6844  0.04868     N
N       0.0307   0.6845  0.45128     N
H       0.0323   0.4288   0.3821     H
N       0.0345   0.2993    0.907     N
N       0.0346   0.2996  0.59314     N
H       0.0387   0.5515   0.5604     H
H         0.04   0.5891   0.2663     H
H       0.0828    0.663   0.5991     H
H        0.093   0.6221   0.9327     H
H       0.0993   0.5708   0.2813     H
H       0.1079   0.5829    0.199     H
C       0.1106   0.6091   0.2497     C
N       0.1148   0.3449  0.21212     N
N       0.1149    0.345  0.28808     N
N       0.1189    0.376  0.01027     N
N       0.1189   0.3761  0.48963     N
N       0.1269   0.3367   0.9434     N
N       0.1271    0.337   0.5566     N
H       0.1406   0.5794   0.2838     H
H       0.1461   0.5883   0.1985     H
C       0.1767   0.7254  0.24995     C
Zn     0.18435  0.75232   0.4232    Zn
Zn     0.18439  0.75236  0.07683    Zn
N       0.1971   0.7863  0.31146     N
N       0.1971   0.7866  0.18855     N
N       0.2098   0.8731   0.9434     N
N       0.2099   0.8729   0.5566     N
N       0.2134   0.4105  0.18855     N
N       0.2137   0.4108  0.31146     N
O        0.226   0.6486   0.4424     O
O       0.2261   0.6484   0.0573     O
N       0.2301   0.8851  0.28808     N
N       0.2301   0.8852  0.21212     N
Zn     0.24764  0.43203  0.07683    Zn
Zn     0.24768  0.43203   0.4232    Zn
N       0.2571   0.8811  0.01027     N
N       0.2572   0.8811  0.48963     N
N       0.2648   0.9655    0.907     N
N        0.265   0.9654  0.59314     N
C       0.2746   0.4513  0.24995     C
N       0.2993   0.2648    0.093     N
N       0.2996    0.265  0.40686     N
N       0.3155   0.3462  0.45128     N
N       0.3156   0.3461  0.04868     N
P     0.33333333 0.66666667  0.03228     P
P     0.33333333 0.66666667  0.46776     P
N       0.3367   0.2098   0.0566     N
N        0.337   0.2099   0.4434     N
H        0.337   0.4198   0.5991     H
C       0.3413   0.9784  0.01515     C
C       0.3414   0.9786  0.48475     C
N       0.3449   0.2301  0.78788     N
N        0.345   0.2301  0.71192     N
N       0.3461   0.0305  0.95132     N
N       0.3462   0.0307  0.54872     N
O       0.3514   0.5774   0.4424     O
O       0.3516   0.5777   0.0573     O
C       0.3628   0.3414  0.51525     C
C       0.3629   0.3413  0.98485     C
H       0.3632   0.3818   0.8753     H
N        0.376   0.2571  0.98973     N
N       0.3761   0.2572  0.51037     N
H       0.3779   0.4709   0.9327     H
H       0.3818   0.0186   0.1247     H
H       0.3839   0.6053   0.2694     H
C       0.3846   0.5436   0.2498     C
H       0.3947   0.7786   0.2694     H
H       0.3965   0.9677   0.3821     H
C       0.3972   0.4181   0.9217     C
C       0.3973   0.4179   0.5787     C
N       0.4105   0.1971  0.81145     N
N       0.4108   0.1971  0.68854     N
H       0.4117   0.5578   0.1985     H
H       0.4171    0.525    0.199     H
C       0.4179   0.0206   0.4213     C
C       0.4181   0.0209   0.0783     C
H       0.4198   0.0828   0.4009     H
H       0.4206   0.5612   0.2838     H
O       0.4223   0.7739   0.0573     O
O       0.4226    0.774   0.4424     O
H       0.4288   0.3965   0.6179     H
H       0.4292   0.5285   0.2813     H
Zn     0.43203  0.18435   0.5768    Zn
Zn     0.43203  0.18439  0.92317    Zn
H       0.4388   0.8594   0.2838     H
H       0.4422   0.8539   0.1985     H
H       0.4485   0.4872   0.5604     H
H       0.4509     0.04   0.7337     H
C       0.4513   0.1767  0.75005     C
H       0.4516   0.9788   0.0842     H
C       0.4564    0.841   0.2498     C
H       0.4709    0.093   0.0673     H
H       0.4715   0.9007   0.2813     H
H       0.4728   0.4516   0.9158     H
H        0.475   0.8921    0.199     H
H       0.4872   0.0387   0.4396     H
C       0.5015   0.1106   0.7503     C
H       0.5128   0.9613   0.5604     H
H        0.525   0.1079    0.801     H
H       0.5272   0.5484   0.0842     H
H       0.5285   0.0993   0.7187     H
H       0.5291    0.907   0.9327     H
H       0.5484   0.0212   0.9158     H
C       0.5487   0.8233  0.24995     C
H       0.5515   0.5128   0.4396     H
H       0.5578   0.1461   0.8015     H
H       0.5612   0.1406   0.7162     H
Zn     0.56797  0.81561  0.07683    Zn
Zn     0.56797  0.81565   0.4232    Zn
H       0.5708   0.4715   0.7187     H
H       0.5712   0.6035   0.3821     H
O       0.5774    0.226   0.5576     O
O       0.5777   0.2261   0.9427     O
H       0.5794   0.4388   0.7162     H
H       0.5802   0.9172   0.5991     H
C       0.5819   0.9791   0.9217     C
C       0.5821   0.9794   0.5787     C
H       0.5829    0.475    0.801     H
H       0.5883   0.4422   0.8015     H
H       0.5891   0.5491   0.7337     H
N       0.5892   0.8029  0.31146     N
N       0.5895   0.8029  0.18855     N
C       0.6027   0.5821   0.4213     C
C       0.6028   0.5819   0.0783     C
H       0.6035   0.0323   0.6179     H
C       0.6091   0.4985   0.7503     C
H       0.6182   0.9814   0.8753     H
H       0.6221   0.5291   0.0673     H
N       0.6239   0.7428  0.48963     N
N        0.624   0.7429  0.01027     N
H       0.6368   0.6182   0.1247     H
C       0.6371   0.6587  0.01515     C
C       0.6372   0.6586  0.48475     C
O       0.6484   0.4223   0.9427     O
O       0.6486   0.4226   0.5576     O
N       0.6538   0.9693  0.45128     N
N       0.6539   0.9695  0.04868     N
N        0.655   0.7699  0.28808     N
N       0.6551   0.7699  0.21212     N
C       0.6586   0.0214  0.51525     C
C       0.6587   0.0216  0.98485     C
H        0.663   0.5802   0.4009     H
N        0.663   0.7901   0.5566     N
N       0.6633   0.7902   0.9434     N
P     0.66666667 0.33333333  0.53224     P
P     0.66666667 0.33333333  0.96772     P
N       0.6844   0.6539  0.95132     N
N       0.6845   0.6538  0.54872     N
N       0.7004    0.735  0.59314     N
N       0.7007   0.7352    0.907     N
C       0.7254   0.5487  0.75005     C
N        0.735   0.0346  0.40686     N
N       0.7352   0.0345    0.093     N
N       0.7428   0.1189  0.51037     N
N       0.7429   0.1189  0.98973     N
Zn     0.75232  0.56797   0.5768    Zn
Zn     0.75236  0.56797  0.92317    Zn
N       0.7699   0.1148  0.78788     N
N       0.7699   0.1149  0.71192     N
O       0.7739   0.3516   0.9427     O
O        0.774   0.3514   0.5576     O
H       0.7786   0.3839   0.7306     H
N       0.7863   0.5892  0.68854     N
N       0.7866   0.5895  0.81145     N
N       0.7901   0.1271   0.4434     N
N       0.7902   0.1269   0.0566     N
N       0.8029   0.2134  0.81145     N
N       0.8029   0.2137  0.68854     N
Zn     0.81561  0.24764  0.92317    Zn
Zn     0.81565  0.24768   0.5768    Zn
C       0.8233   0.2746  0.75005     C
C        0.841   0.3846   0.7502     C
H       0.8539   0.4117   0.8015     H
H       0.8594   0.4206   0.7162     H
N       0.8729    0.663   0.4434     N
N       0.8731   0.6633   0.0566     N
N       0.8811   0.6239  0.51037     N
N       0.8811    0.624  0.98973     N
N       0.8851    0.655  0.71192     N
N       0.8852   0.6551  0.78788     N
H       0.8921   0.4171    0.801     H
H       0.9007   0.4292   0.7187     H
H        0.907   0.3779   0.0673     H
H       0.9172    0.337   0.4009     H
H       0.9613   0.4485   0.4396     H
N       0.9654   0.7004  0.40686     N
N       0.9655   0.7007    0.093     N
H       0.9677   0.5712   0.6179     H
N       0.9693   0.3155  0.54872     N
N       0.9695   0.3156  0.95132     N
C       0.9784   0.6371  0.98485     C
C       0.9786   0.6372  0.51525     C
H       0.9788   0.5272   0.9158     H
C       0.9791   0.3972   0.0783     C
C       0.9794   0.3973   0.4213     C
H       0.9814   0.3632   0.1247     H
