data_I
_chemical_name_common  '/Users/gianmarcoterrones/Research/MOFs/MOF_structures/water_stability_work_extra_structs/cleaned_from_CCDC/YUKBIR'
_cell_length_a 29.93630
_cell_length_b 29.93630
_cell_length_c 29.93630
_cell_angle_alpha 90.00000
_cell_angle_beta  90.00000
_cell_angle_gamma 90.00000
_space_group_name_H-M_alt      'P 1'


loop_
_space_group_symop_operation_xyz
  'x, y, z' 

loop_
_atom_site_label
_atom_site_fract_x
_atom_site_fract_y
_atom_site_fract_z
_atom_site_type_symbol
H          0.0   0.4335   0.4612     H
H          0.0   0.4335   0.5388     H
Zn         0.0  0.44665  0.32269    Zn
Zn         0.0  0.44665  0.67731    Zn
C          0.0  0.46039  0.47672     C
C          0.0  0.46039  0.52328     C
O          0.0  0.46296  0.38504     O
O          0.0  0.46296  0.61496     O
C          0.0      0.5  0.02487     C
C          0.0      0.5  0.11791     C
C          0.0      0.5  0.16771     C
O          0.0      0.5  0.28565     O
C          0.0      0.5   0.4039     C
C          0.0      0.5  0.45394     C
C          0.0      0.5  0.54606     C
C          0.0      0.5   0.5961     C
O          0.0      0.5  0.71435     O
C          0.0      0.5  0.83229     C
C          0.0      0.5  0.88209     C
C          0.0      0.5  0.97513     C
O          0.0  0.53704  0.38504     O
O          0.0  0.53704  0.61496     O
C          0.0  0.53961  0.47672     C
C          0.0  0.53961  0.52328     C
Zn         0.0  0.55335  0.32269    Zn
Zn         0.0  0.55335  0.67731    Zn
H          0.0   0.5665   0.4612     H
H          0.0   0.5665   0.5388     H
C      0.02487      0.0      0.5     C
H       0.0329   0.0652      0.5     H
H       0.0329   0.9348      0.5     H
O      0.03712      0.5  0.18637     O
O      0.03712      0.5  0.81363     O
C      0.03814      0.5  0.04811     C
C      0.03814      0.5  0.95189     C
C      0.03831      0.5  0.09478     C
C      0.03831      0.5  0.90522     C
C      0.04811  0.03814      0.5     C
C      0.04811  0.96186      0.5     C
O      0.05238  0.41069  0.31223     O
O      0.05238  0.41069  0.68777     O
O      0.05238  0.58931  0.31223     O
O      0.05238  0.58931  0.68777     O
Zn     0.05319      0.5  0.24861    Zn
Zn     0.05319      0.5  0.75139    Zn
H       0.0652      0.5   0.0329     H
H       0.0652      0.5   0.9671     H
H       0.0654      0.5     0.11     H
H       0.0654      0.5     0.89     H
H       0.0718   0.1924   0.2568     H
H       0.0718   0.1924   0.7432     H
H       0.0718   0.8076   0.2568     H
H       0.0718   0.8076   0.7432     H
C      0.08393  0.41535  0.28578     C
C      0.08393  0.41535  0.71422     C
C      0.08393  0.58465  0.28578     C
C      0.08393  0.58465  0.71422     C
O      0.08899  0.44723  0.25907     O
O      0.08899  0.44723  0.74093     O
O      0.08899  0.55277  0.25907     O
O      0.08899  0.55277  0.74093     O
C      0.09478  0.03831      0.5     C
C      0.09478  0.96169      0.5     C
H       0.0958   0.3459   0.3391     H
H       0.0958   0.3459   0.6609     H
H       0.0958   0.6541   0.3391     H
H       0.0958   0.6541   0.6609     H
H       0.0966    0.174   0.2926     H
H       0.0966    0.174   0.7074     H
H       0.0966    0.826   0.2926     H
H       0.0966    0.826   0.7074     H
H       0.1015   0.1137    0.235     H
H       0.1015   0.1137    0.765     H
H       0.1015   0.8863    0.235     H
H       0.1015   0.8863    0.765     H
C       0.1031   0.1952   0.2634     C
C       0.1031   0.1952   0.7366     C
C       0.1031   0.8048   0.2634     C
C       0.1031   0.8048   0.7366     C
H       0.1058   0.1489   0.3215     H
H       0.1058   0.1489   0.6785     H
H       0.1058   0.8511   0.3215     H
H       0.1058   0.8511   0.6785     H
H        0.108   0.2218   0.2805     H
H        0.108   0.2218   0.7195     H
H        0.108   0.7782   0.2805     H
H        0.108   0.7782   0.7195     H
H       0.1096   0.2454   0.1527     H
H       0.1096   0.2454   0.8473     H
H       0.1096   0.7546   0.1527     H
H       0.1096   0.7546   0.8473     H
H         0.11   0.0654      0.5     H
H         0.11   0.9346      0.5     H
H       0.1137    0.235   0.1015     H
H       0.1137    0.235   0.8985     H
H       0.1137    0.765   0.1015     H
H       0.1137    0.765   0.8985     H
H       0.1143   0.1293   0.3155     H
H       0.1143   0.1293   0.6845     H
H       0.1143   0.8707   0.3155     H
H       0.1143   0.8707   0.6845     H
H       0.1177   0.1234   0.2762     H
H       0.1177   0.1234   0.7238     H
H       0.1177   0.8766   0.2762     H
H       0.1177   0.8766   0.7238     H
C      0.11791      0.0      0.5     C
C      0.11826  0.34609  0.31764     C
C      0.11826  0.34609  0.68236     C
C      0.11826  0.65391  0.31764     C
C      0.11826  0.65391  0.68236     C
C      0.11897  0.37953  0.28557     C
C      0.11897  0.37953  0.71443     C
C      0.11897  0.62047  0.28557     C
C      0.11897  0.62047  0.71443     C
H       0.1197   0.1968    0.236     H
H       0.1197   0.1968    0.764     H
H       0.1197   0.8032    0.236     H
H       0.1197   0.8032    0.764     H
C       0.1198   0.1513   0.2924     C
C       0.1198   0.1513   0.7076     C
C       0.1198   0.8487   0.2924     C
C       0.1198   0.8487   0.7076     C
H       0.1234   0.2762   0.1177     H
H       0.1234   0.2762   0.8823     H
H       0.1234   0.7238   0.1177     H
H       0.1234   0.7238   0.8823     H
C       0.1278   0.1297   0.2441     C
C       0.1278   0.1297   0.7559     C
C       0.1278   0.8703   0.2441     C
C       0.1278   0.8703   0.7559     C
H       0.1293   0.3155   0.1143     H
H       0.1293   0.3155   0.8857     H
H       0.1293   0.6845   0.1143     H
H       0.1293   0.6845   0.8857     H
C       0.1297   0.2441   0.1278     C
C       0.1297   0.2441   0.8722     C
C       0.1297   0.7559   0.1278     C
C       0.1297   0.7559   0.8722     C
H       0.1339    0.153   0.2229     H
H       0.1339    0.153   0.7771     H
H       0.1339    0.847   0.2229     H
H       0.1339    0.847   0.7771     H
H       0.1478   0.2954   0.1912     H
H       0.1478   0.2954   0.8088     H
H       0.1478   0.7046   0.1912     H
H       0.1478   0.7046   0.8088     H
H       0.1489   0.3215   0.1058     H
H       0.1489   0.3215   0.8942     H
H       0.1489   0.6785   0.1058     H
H       0.1489   0.6785   0.8942     H
H       0.1499    0.291     0.34     H
H       0.1499    0.291     0.66     H
H       0.1499    0.709     0.34     H
H       0.1499    0.709     0.66     H
C      0.15053  0.31305  0.31812     C
C      0.15053  0.31305  0.68188     C
C      0.15053  0.68695  0.31812     C
C      0.15053  0.68695  0.68188     C
C       0.1513   0.2924   0.1198     C
C       0.1513   0.2924   0.8802     C
C       0.1513   0.7076   0.1198     C
C       0.1513   0.7076   0.8802     C
C      0.15209  0.37965  0.25382     C
C      0.15209  0.37965  0.74618     C
C      0.15209  0.62035  0.25382     C
C      0.15209  0.62035  0.74618     C
H       0.1527   0.1096   0.2454     H
H       0.1527   0.1096   0.7546     H
H       0.1527   0.2258   0.3323     H
H       0.1527   0.2258   0.6677     H
H       0.1527   0.7742   0.3323     H
H       0.1527   0.7742   0.6677     H
H       0.1527   0.8904   0.2454     H
H       0.1527   0.8904   0.7546     H
H        0.153   0.2229   0.1339     H
H        0.153   0.2229   0.8661     H
H        0.153   0.4021   0.2323     H
H        0.153   0.4021   0.7677     H
H        0.153   0.5979   0.2323     H
H        0.153   0.5979   0.7677     H
H        0.153   0.7771   0.1339     H
H        0.153   0.7771   0.8661     H
H       0.1666   0.1844   0.3611     H
H       0.1666   0.1844   0.6389     H
H       0.1666   0.8156   0.3611     H
H       0.1666   0.8156   0.6389     H
C      0.16771      0.0      0.5     C
C      0.16946   0.1718   0.2939     C
C      0.16946   0.1718   0.7061     C
C      0.16946   0.8282   0.2939     C
C      0.16946   0.8282   0.7061     C
C       0.1718   0.2939  0.16946     C
C       0.1718   0.2939  0.83054     C
C       0.1718   0.7061  0.16946     C
C       0.1718   0.7061  0.83054     C
H        0.174   0.2926   0.0966     H
H        0.174   0.2926   0.9034     H
H        0.174   0.7074   0.0966     H
H        0.174   0.7074   0.9034     H
C      0.17411  0.20165  0.33468     C
C      0.17411  0.20165  0.66532     C
C      0.17411  0.79835  0.33468     C
C      0.17411  0.79835  0.66532     C
H       0.1751   0.1889    0.267     H
H       0.1751   0.1889    0.733     H
H       0.1751   0.8111    0.267     H
H       0.1751   0.8111    0.733     H
C      0.18371  0.31286  0.28611     C
C      0.18371  0.31286  0.71389     C
C      0.18371  0.68714  0.28611     C
C      0.18371  0.68714  0.71389     C
C      0.18434  0.34606  0.25388     C
C      0.18434  0.34606  0.74612     C
C      0.18434  0.65394  0.25388     C
C      0.18434  0.65394  0.74612     C
H       0.1844   0.3611   0.1666     H
H       0.1844   0.3611   0.8334     H
H       0.1844   0.6389   0.1666     H
H       0.1844   0.6389   0.8334     H
O      0.18637  0.03712      0.5     O
O      0.18637  0.96288      0.5     O
H       0.1889    0.267   0.1751     H
H       0.1889    0.267   0.8249     H
H       0.1889    0.733   0.1751     H
H       0.1889    0.733   0.8249     H
H       0.1912   0.1478   0.2954     H
H       0.1912   0.1478   0.7046     H
H       0.1912   0.8522   0.2954     H
H       0.1912   0.8522   0.7046     H
H       0.1924   0.2568   0.0718     H
H       0.1924   0.2568   0.9282     H
H       0.1924   0.7432   0.0718     H
H       0.1924   0.7432   0.9282     H
C       0.1952   0.2634   0.1031     C
C       0.1952   0.2634   0.8969     C
C       0.1952   0.7366   0.1031     C
C       0.1952   0.7366   0.8969     C
H       0.1968    0.236   0.1197     H
H       0.1968    0.236   0.8803     H
H       0.1968    0.764   0.1197     H
H       0.1968    0.764   0.8803     H
H       0.2006   0.2753   0.3789     H
H       0.2006   0.2753   0.6211     H
H       0.2006   0.7247   0.3789     H
H       0.2006   0.7247   0.6211     H
C      0.20165  0.33468  0.17411     C
C      0.20165  0.33468  0.82589     C
C      0.20165  0.66532  0.17411     C
C      0.20165  0.66532  0.82589     C
H       0.2144   0.2341   0.4082     H
H       0.2144   0.2341   0.5918     H
H       0.2144   0.7659   0.4082     H
H       0.2144   0.7659   0.5918     H
C      0.22095  0.22176  0.34087     C
C      0.22095  0.22176  0.65913     C
C      0.22095  0.77824  0.34087     C
C      0.22095  0.77824  0.65913     C
C      0.22176  0.34087  0.22095     C
C      0.22176  0.34087  0.77905     C
C      0.22176  0.65913  0.22095     C
C      0.22176  0.65913  0.77905     C
H       0.2218   0.2805    0.108     H
H       0.2218   0.2805    0.892     H
H       0.2218   0.7195    0.108     H
H       0.2218   0.7195    0.892     H
C      0.22247  0.28233  0.27714     C
C      0.22247  0.28233  0.72286     C
C      0.22247  0.71767  0.27714     C
C      0.22247  0.71767  0.72286     C
C      0.22253  0.25167  0.38219     C
C      0.22253  0.25167  0.61781     C
C      0.22253  0.74833  0.38219     C
C      0.22253  0.74833  0.61781     C
H       0.2229   0.1339    0.153     H
H       0.2229   0.1339    0.847     H
H       0.2229   0.8661    0.153     H
H       0.2229   0.8661    0.847     H
H       0.2258   0.3323   0.1527     H
H       0.2258   0.3323   0.8473     H
H       0.2258   0.6677   0.1527     H
H       0.2258   0.6677   0.8473     H
H       0.2323    0.153   0.4021     H
H       0.2323    0.153   0.5979     H
H       0.2323    0.847   0.4021     H
H       0.2323    0.847   0.5979     H
H       0.2341   0.4082   0.2144     H
H       0.2341   0.4082   0.7856     H
H       0.2341   0.5918   0.2144     H
H       0.2341   0.5918   0.7856     H
H        0.235   0.1015   0.1137     H
H        0.235   0.1015   0.8863     H
H        0.235   0.8985   0.1137     H
H        0.235   0.8985   0.8863     H
H        0.236   0.1197   0.1968     H
H        0.236   0.1197   0.8032     H
H        0.236   0.8803   0.1968     H
H        0.236   0.8803   0.8032     H
C       0.2388  0.24436   0.2987     C
C       0.2388  0.24436   0.7013     C
C       0.2388  0.75564   0.2987     C
C       0.2388  0.75564   0.7013     C
C       0.2441   0.1278   0.1297     C
C       0.2441   0.1278   0.8703     C
C       0.2441   0.8722   0.1297     C
C       0.2441   0.8722   0.8703     C
C      0.24436   0.2987   0.2388     C
C      0.24436   0.2987   0.7612     C
C      0.24436   0.7013   0.2388     C
C      0.24436   0.7013   0.7612     C
H       0.2447   0.3307   0.4245     H
H       0.2447   0.3307   0.5755     H
H       0.2447   0.6693   0.4245     H
H       0.2447   0.6693   0.5755     H
H       0.2454   0.1527   0.1096     H
H       0.2454   0.1527   0.8904     H
H       0.2454   0.8473   0.1096     H
H       0.2454   0.8473   0.8904     H
Zn     0.24861  0.05319      0.5    Zn
Zn     0.24861  0.94681      0.5    Zn
H        0.249   0.3969    0.289     H
H        0.249   0.3969    0.711     H
H        0.249   0.6031    0.289     H
H        0.249   0.6031    0.711     H
C      0.25167  0.38219  0.22253     C
C      0.25167  0.38219  0.77747     C
C      0.25167  0.61781  0.22253     C
C      0.25167  0.61781  0.77747     C
C      0.25382  0.15209  0.37965     C
C      0.25382  0.15209  0.62035     C
C      0.25382  0.84791  0.37965     C
C      0.25382  0.84791  0.62035     C
C      0.25388  0.18434  0.34606     C
C      0.25388  0.18434  0.65394     C
C      0.25388  0.81566  0.34606     C
C      0.25388  0.81566  0.65394     C
H       0.2568   0.0718   0.1924     H
H       0.2568   0.0718   0.8076     H
H       0.2568   0.9282   0.1924     H
H       0.2568   0.9282   0.8076     H
O      0.25907  0.08899  0.44723     O
O      0.25907  0.08899  0.55277     O
O      0.25907  0.91101  0.44723     O
O      0.25907  0.91101  0.55277     O
H       0.2604   0.2932   0.4581     H
H       0.2604   0.2932   0.5419     H
H       0.2604   0.7068   0.4581     H
H       0.2604   0.7068   0.5419     H
C       0.2634   0.1031   0.1952     C
C       0.2634   0.1031   0.8048     C
C       0.2634   0.8969   0.1952     C
C       0.2634   0.8969   0.8048     C
C       0.2668   0.3077   0.4299     C
C       0.2668   0.3077   0.5701     C
C       0.2668   0.6923   0.4299     C
C       0.2668   0.6923   0.5701     C
H        0.267   0.1751   0.1889     H
H        0.267   0.1751   0.8111     H
H        0.267   0.8249   0.1889     H
H        0.267   0.8249   0.8111     H
C       0.2676  0.27237     0.39     C
C       0.2676  0.27237     0.61     C
C       0.2676  0.72763     0.39     C
C       0.2676  0.72763     0.61     C
C      0.27237     0.39   0.2676     C
C      0.27237     0.39   0.7324     C
C      0.27237     0.61   0.2676     C
C      0.27237     0.61   0.7324     C
H       0.2753   0.3789   0.2006     H
H       0.2753   0.3789   0.7994     H
H       0.2753   0.6211   0.2006     H
H       0.2753   0.6211   0.7994     H
H       0.2762   0.1177   0.1234     H
H       0.2762   0.1177   0.8766     H
H       0.2762   0.8823   0.1234     H
H       0.2762   0.8823   0.8766     H
C      0.27714  0.22247  0.28233     C
C      0.27714  0.22247  0.71767     C
C      0.27714  0.77753  0.28233     C
C      0.27714  0.77753  0.71767     C
H       0.2774   0.2872   0.3629     H
H       0.2774   0.2872   0.6371     H
H       0.2774   0.7128   0.3629     H
H       0.2774   0.7128   0.6371     H
H       0.2805    0.108   0.2218     H
H       0.2805    0.108   0.7782     H
H       0.2805    0.892   0.2218     H
H       0.2805    0.892   0.7782     H
C      0.28233  0.27714  0.22247     C
C      0.28233  0.27714  0.77753     C
C      0.28233  0.72286  0.22247     C
C      0.28233  0.72286  0.77753     C
C      0.28557  0.11897  0.37953     C
C      0.28557  0.11897  0.62047     C
C      0.28557  0.88103  0.37953     C
C      0.28557  0.88103  0.62047     C
O      0.28565      0.0      0.5     O
C      0.28578  0.08393  0.41535     C
C      0.28578  0.08393  0.58465     C
C      0.28578  0.91607  0.41535     C
C      0.28578  0.91607  0.58465     C
C      0.28611  0.18371  0.31286     C
C      0.28611  0.18371  0.68714     C
C      0.28611  0.81629  0.31286     C
C      0.28611  0.81629  0.68714     C
H       0.2872   0.3629   0.2774     H
H       0.2872   0.3629   0.7226     H
H       0.2872   0.6371   0.2774     H
H       0.2872   0.6371   0.7226     H
H        0.289    0.249   0.3969     H
H        0.289    0.249   0.6031     H
H        0.289    0.751   0.3969     H
H        0.289    0.751   0.6031     H
H        0.291     0.34   0.1499     H
H        0.291     0.34   0.8501     H
H        0.291     0.66   0.1499     H
H        0.291     0.66   0.8501     H
C       0.2924   0.1198   0.1513     C
C       0.2924   0.1198   0.8487     C
C       0.2924   0.8802   0.1513     C
C       0.2924   0.8802   0.8487     C
H       0.2926   0.0966    0.174     H
H       0.2926   0.0966    0.826     H
H       0.2926   0.9034    0.174     H
H       0.2926   0.9034    0.826     H
H       0.2932   0.4581   0.2604     H
H       0.2932   0.4581   0.7396     H
H       0.2932   0.5419   0.2604     H
H       0.2932   0.5419   0.7396     H
C       0.2939  0.16946   0.1718     C
C       0.2939  0.16946   0.8282     C
C       0.2939  0.83054   0.1718     C
C       0.2939  0.83054   0.8282     C
H       0.2954   0.1912   0.1478     H
H       0.2954   0.1912   0.8522     H
H       0.2954   0.8088   0.1478     H
H       0.2954   0.8088   0.8522     H
C       0.2987   0.2388  0.24436     C
C       0.2987   0.2388  0.75564     C
C       0.2987   0.7612  0.24436     C
C       0.2987   0.7612  0.75564     C
H       0.3042   0.4342   0.3369     H
H       0.3042   0.4342   0.6631     H
H       0.3042   0.5658   0.3369     H
H       0.3042   0.5658   0.6631     H
C       0.3077   0.4299   0.2668     C
C       0.3077   0.4299   0.7332     C
C       0.3077   0.5701   0.2668     C
C       0.3077   0.5701   0.7332     C
O      0.31223  0.05238  0.41069     O
O      0.31223  0.05238  0.58931     O
O      0.31223  0.94762  0.41069     O
O      0.31223  0.94762  0.58931     O
C      0.31286  0.28611  0.18371     C
C      0.31286  0.28611  0.81629     C
C      0.31286  0.71389  0.18371     C
C      0.31286  0.71389  0.81629     C
C      0.31305  0.31812  0.15053     C
C      0.31305  0.31812  0.84947     C
C      0.31305  0.68188  0.15053     C
C      0.31305  0.68188  0.84947     C
H       0.3155   0.1143   0.1293     H
H       0.3155   0.1143   0.8707     H
H       0.3155   0.8857   0.1293     H
H       0.3155   0.8857   0.8707     H
C       0.3157   0.3278   0.4295     C
C       0.3157   0.3278   0.5705     C
C       0.3157   0.6722   0.4295     C
C       0.3157   0.6722   0.5705     C
C      0.31764  0.11826  0.34609     C
C      0.31764  0.11826  0.65391     C
C      0.31764  0.88174  0.34609     C
C      0.31764  0.88174  0.65391     C
C      0.31812  0.15053  0.31305     C
C      0.31812  0.15053  0.68695     C
C      0.31812  0.84947  0.31305     C
C      0.31812  0.84947  0.68695     C
H       0.3185   0.3495    0.453     H
H       0.3185   0.3495    0.547     H
H       0.3185   0.6505    0.453     H
H       0.3185   0.6505    0.547     H
H       0.3213   0.3418   0.4013     H
H       0.3213   0.3418   0.5987     H
H       0.3213   0.6582   0.4013     H
H       0.3213   0.6582   0.5987     H
H       0.3215   0.1058   0.1489     H
H       0.3215   0.1058   0.8511     H
H       0.3215   0.8942   0.1489     H
H       0.3215   0.8942   0.8511     H
Zn     0.32269      0.0  0.44665    Zn
Zn     0.32269      0.0  0.55335    Zn
C       0.3278   0.4295   0.3157     C
C       0.3278   0.4295   0.6843     C
C       0.3278   0.5705   0.3157     C
C       0.3278   0.5705   0.6843     C
H       0.3307   0.4245   0.2447     H
H       0.3307   0.4245   0.7553     H
H       0.3307   0.5755   0.2447     H
H       0.3307   0.5755   0.7553     H
H       0.3323   0.1527   0.2258     H
H       0.3323   0.1527   0.7742     H
H       0.3323   0.8473   0.2258     H
H       0.3323   0.8473   0.7742     H
C      0.33468  0.17411  0.20165     C
C      0.33468  0.17411  0.79835     C
C      0.33468  0.82589  0.20165     C
C      0.33468  0.82589  0.79835     C
H       0.3369   0.3042   0.4342     H
H       0.3369   0.3042   0.5658     H
H       0.3369   0.6958   0.4342     H
H       0.3369   0.6958   0.5658     H
H       0.3391   0.0958   0.3459     H
H       0.3391   0.0958   0.6541     H
H       0.3391   0.9042   0.3459     H
H       0.3391   0.9042   0.6541     H
H         0.34   0.1499    0.291     H
H         0.34   0.1499    0.709     H
H         0.34   0.8501    0.291     H
H         0.34   0.8501    0.709     H
C      0.34087  0.22095  0.22176     C
C      0.34087  0.22095  0.77824     C
C      0.34087  0.77905  0.22176     C
C      0.34087  0.77905  0.77824     C
H       0.3418   0.4013   0.3213     H
H       0.3418   0.4013   0.6787     H
H       0.3418   0.5987   0.3213     H
H       0.3418   0.5987   0.6787     H
H       0.3459   0.3391   0.0958     H
H       0.3459   0.3391   0.9042     H
H       0.3459   0.6609   0.0958     H
H       0.3459   0.6609   0.9042     H
C      0.34606  0.25388  0.18434     C
C      0.34606  0.25388  0.81566     C
C      0.34606  0.74612  0.18434     C
C      0.34606  0.74612  0.81566     C
C      0.34609  0.31764  0.11826     C
C      0.34609  0.31764  0.88174     C
C      0.34609  0.68236  0.11826     C
C      0.34609  0.68236  0.88174     C
H       0.3495    0.453   0.3185     H
H       0.3495    0.453   0.6815     H
H       0.3495    0.547   0.3185     H
H       0.3495    0.547   0.6815     H
H       0.3611   0.1666   0.1844     H
H       0.3611   0.1666   0.8156     H
H       0.3611   0.8334   0.1844     H
H       0.3611   0.8334   0.8156     H
H       0.3629   0.2774   0.2872     H
H       0.3629   0.2774   0.7128     H
H       0.3629   0.7226   0.2872     H
H       0.3629   0.7226   0.7128     H
H       0.3789   0.2006   0.2753     H
H       0.3789   0.2006   0.7247     H
H       0.3789   0.7994   0.2753     H
H       0.3789   0.7994   0.7247     H
C      0.37953  0.28557  0.11897     C
C      0.37953  0.28557  0.88103     C
C      0.37953  0.71443  0.11897     C
C      0.37953  0.71443  0.88103     C
C      0.37965  0.25382  0.15209     C
C      0.37965  0.25382  0.84791     C
C      0.37965  0.74618  0.15209     C
C      0.37965  0.74618  0.84791     C
C      0.38219  0.22253  0.25167     C
C      0.38219  0.22253  0.74833     C
C      0.38219  0.77747  0.25167     C
C      0.38219  0.77747  0.74833     C
O      0.38504      0.0  0.46296     O
O      0.38504      0.0  0.53704     O
C         0.39   0.2676  0.27237     C
C         0.39   0.2676  0.72763     C
C         0.39   0.7324  0.27237     C
C         0.39   0.7324  0.72763     C
H       0.3969    0.289    0.249     H
H       0.3969    0.289    0.751     H
H       0.3969    0.711    0.249     H
H       0.3969    0.711    0.751     H
H       0.4013   0.3213   0.3418     H
H       0.4013   0.3213   0.6582     H
H       0.4013   0.6787   0.3418     H
H       0.4013   0.6787   0.6582     H
H       0.4021   0.2323    0.153     H
H       0.4021   0.2323    0.847     H
H       0.4021   0.7677    0.153     H
H       0.4021   0.7677    0.847     H
C       0.4039      0.0      0.5     C
H       0.4082   0.2144   0.2341     H
H       0.4082   0.2144   0.7659     H
H       0.4082   0.7856   0.2341     H
H       0.4082   0.7856   0.7659     H
O      0.41069  0.31223  0.05238     O
O      0.41069  0.31223  0.94762     O
O      0.41069  0.68777  0.05238     O
O      0.41069  0.68777  0.94762     O
C      0.41535  0.28578  0.08393     C
C      0.41535  0.28578  0.91607     C
C      0.41535  0.71422  0.08393     C
C      0.41535  0.71422  0.91607     C
H       0.4245   0.2447   0.3307     H
H       0.4245   0.2447   0.6693     H
H       0.4245   0.7553   0.3307     H
H       0.4245   0.7553   0.6693     H
C       0.4295   0.3157   0.3278     C
C       0.4295   0.3157   0.6722     C
C       0.4295   0.6843   0.3278     C
C       0.4295   0.6843   0.6722     C
C       0.4299   0.2668   0.3077     C
C       0.4299   0.2668   0.6923     C
C       0.4299   0.7332   0.3077     C
C       0.4299   0.7332   0.6923     C
H       0.4335   0.4612      0.0     H
H       0.4335   0.5388      0.0     H
H       0.4342   0.3369   0.3042     H
H       0.4342   0.3369   0.6958     H
H       0.4342   0.6631   0.3042     H
H       0.4342   0.6631   0.6958     H
Zn     0.44665  0.32269      0.0    Zn
Zn     0.44665  0.67731      0.0    Zn
O      0.44723  0.25907  0.08899     O
O      0.44723  0.25907  0.91101     O
O      0.44723  0.74093  0.08899     O
O      0.44723  0.74093  0.91101     O
H        0.453   0.3185   0.3495     H
H        0.453   0.3185   0.6505     H
H        0.453   0.6815   0.3495     H
H        0.453   0.6815   0.6505     H
C      0.45394      0.0      0.5     C
H       0.4581   0.2604   0.2932     H
H       0.4581   0.2604   0.7068     H
H       0.4581   0.7396   0.2932     H
H       0.4581   0.7396   0.7068     H
C      0.46039  0.47672      0.0     C
C      0.46039  0.52328      0.0     C
H       0.4612      0.0   0.4335     H
H       0.4612      0.0   0.5665     H
O      0.46296  0.38504      0.0     O
O      0.46296  0.61496      0.0     O
C      0.47672      0.0  0.46039     C
C      0.47672      0.0  0.53961     C
C          0.5  0.02487      0.0     C
H          0.5   0.0329   0.0652     H
H          0.5   0.0329   0.9348     H
C          0.5  0.04811  0.03814     C
C          0.5  0.04811  0.96186     C
C          0.5  0.09478  0.03831     C
C          0.5  0.09478  0.96169     C
H          0.5     0.11   0.0654     H
H          0.5     0.11   0.9346     H
C          0.5  0.11791      0.0     C
C          0.5  0.16771      0.0     C
O          0.5  0.18637  0.03712     O
O          0.5  0.18637  0.96288     O
Zn         0.5  0.24861  0.05319    Zn
Zn         0.5  0.24861  0.94681    Zn
O          0.5  0.28565      0.0     O
C          0.5   0.4039      0.0     C
C          0.5  0.45394      0.0     C
C          0.5  0.54606      0.0     C
C          0.5   0.5961      0.0     C
O          0.5  0.71435      0.0     O
Zn         0.5  0.75139  0.05319    Zn
Zn         0.5  0.75139  0.94681    Zn
O          0.5  0.81363  0.03712     O
O          0.5  0.81363  0.96288     O
C          0.5  0.83229      0.0     C
C          0.5  0.88209      0.0     C
H          0.5     0.89   0.0654     H
H          0.5     0.89   0.9346     H
C          0.5  0.90522  0.03831     C
C          0.5  0.90522  0.96169     C
C          0.5  0.95189  0.03814     C
C          0.5  0.95189  0.96186     C
H          0.5   0.9671   0.0652     H
H          0.5   0.9671   0.9348     H
C          0.5  0.97513      0.0     C
C      0.52328      0.0  0.46039     C
C      0.52328      0.0  0.53961     C
O      0.53704  0.38504      0.0     O
O      0.53704  0.61496      0.0     O
H       0.5388      0.0   0.4335     H
H       0.5388      0.0   0.5665     H
C      0.53961  0.47672      0.0     C
C      0.53961  0.52328      0.0     C
H       0.5419   0.2604   0.2932     H
H       0.5419   0.2604   0.7068     H
H       0.5419   0.7396   0.2932     H
H       0.5419   0.7396   0.7068     H
C      0.54606      0.0      0.5     C
H        0.547   0.3185   0.3495     H
H        0.547   0.3185   0.6505     H
H        0.547   0.6815   0.3495     H
H        0.547   0.6815   0.6505     H
O      0.55277  0.25907  0.08899     O
O      0.55277  0.25907  0.91101     O
O      0.55277  0.74093  0.08899     O
O      0.55277  0.74093  0.91101     O
Zn     0.55335  0.32269      0.0    Zn
Zn     0.55335  0.67731      0.0    Zn
H       0.5658   0.3369   0.3042     H
H       0.5658   0.3369   0.6958     H
H       0.5658   0.6631   0.3042     H
H       0.5658   0.6631   0.6958     H
H       0.5665   0.4612      0.0     H
H       0.5665   0.5388      0.0     H
C       0.5701   0.2668   0.3077     C
C       0.5701   0.2668   0.6923     C
C       0.5701   0.7332   0.3077     C
C       0.5701   0.7332   0.6923     C
C       0.5705   0.3157   0.3278     C
C       0.5705   0.3157   0.6722     C
C       0.5705   0.6843   0.3278     C
C       0.5705   0.6843   0.6722     C
H       0.5755   0.2447   0.3307     H
H       0.5755   0.2447   0.6693     H
H       0.5755   0.7553   0.3307     H
H       0.5755   0.7553   0.6693     H
C      0.58465  0.28578  0.08393     C
C      0.58465  0.28578  0.91607     C
C      0.58465  0.71422  0.08393     C
C      0.58465  0.71422  0.91607     C
O      0.58931  0.31223  0.05238     O
O      0.58931  0.31223  0.94762     O
O      0.58931  0.68777  0.05238     O
O      0.58931  0.68777  0.94762     O
H       0.5918   0.2144   0.2341     H
H       0.5918   0.2144   0.7659     H
H       0.5918   0.7856   0.2341     H
H       0.5918   0.7856   0.7659     H
C       0.5961      0.0      0.5     C
H       0.5979   0.2323    0.153     H
H       0.5979   0.2323    0.847     H
H       0.5979   0.7677    0.153     H
H       0.5979   0.7677    0.847     H
H       0.5987   0.3213   0.3418     H
H       0.5987   0.3213   0.6582     H
H       0.5987   0.6787   0.3418     H
H       0.5987   0.6787   0.6582     H
H       0.6031    0.289    0.249     H
H       0.6031    0.289    0.751     H
H       0.6031    0.711    0.249     H
H       0.6031    0.711    0.751     H
C         0.61   0.2676  0.27237     C
C         0.61   0.2676  0.72763     C
C         0.61   0.7324  0.27237     C
C         0.61   0.7324  0.72763     C
O      0.61496      0.0  0.46296     O
O      0.61496      0.0  0.53704     O
C      0.61781  0.22253  0.25167     C
C      0.61781  0.22253  0.74833     C
C      0.61781  0.77747  0.25167     C
C      0.61781  0.77747  0.74833     C
C      0.62035  0.25382  0.15209     C
C      0.62035  0.25382  0.84791     C
C      0.62035  0.74618  0.15209     C
C      0.62035  0.74618  0.84791     C
C      0.62047  0.28557  0.11897     C
C      0.62047  0.28557  0.88103     C
C      0.62047  0.71443  0.11897     C
C      0.62047  0.71443  0.88103     C
H       0.6211   0.2006   0.2753     H
H       0.6211   0.2006   0.7247     H
H       0.6211   0.7994   0.2753     H
H       0.6211   0.7994   0.7247     H
H       0.6371   0.2774   0.2872     H
H       0.6371   0.2774   0.7128     H
H       0.6371   0.7226   0.2872     H
H       0.6371   0.7226   0.7128     H
H       0.6389   0.1666   0.1844     H
H       0.6389   0.1666   0.8156     H
H       0.6389   0.8334   0.1844     H
H       0.6389   0.8334   0.8156     H
H       0.6505    0.453   0.3185     H
H       0.6505    0.453   0.6815     H
H       0.6505    0.547   0.3185     H
H       0.6505    0.547   0.6815     H
C      0.65391  0.31764  0.11826     C
C      0.65391  0.31764  0.88174     C
C      0.65391  0.68236  0.11826     C
C      0.65391  0.68236  0.88174     C
C      0.65394  0.25388  0.18434     C
C      0.65394  0.25388  0.81566     C
C      0.65394  0.74612  0.18434     C
C      0.65394  0.74612  0.81566     C
H       0.6541   0.3391   0.0958     H
H       0.6541   0.3391   0.9042     H
H       0.6541   0.6609   0.0958     H
H       0.6541   0.6609   0.9042     H
H       0.6582   0.4013   0.3213     H
H       0.6582   0.4013   0.6787     H
H       0.6582   0.5987   0.3213     H
H       0.6582   0.5987   0.6787     H
C      0.65913  0.22095  0.22176     C
C      0.65913  0.22095  0.77824     C
C      0.65913  0.77905  0.22176     C
C      0.65913  0.77905  0.77824     C
H         0.66   0.1499    0.291     H
H         0.66   0.1499    0.709     H
H         0.66   0.8501    0.291     H
H         0.66   0.8501    0.709     H
H       0.6609   0.0958   0.3459     H
H       0.6609   0.0958   0.6541     H
H       0.6609   0.9042   0.3459     H
H       0.6609   0.9042   0.6541     H
H       0.6631   0.3042   0.4342     H
H       0.6631   0.3042   0.5658     H
H       0.6631   0.6958   0.4342     H
H       0.6631   0.6958   0.5658     H
C      0.66532  0.17411  0.20165     C
C      0.66532  0.17411  0.79835     C
C      0.66532  0.82589  0.20165     C
C      0.66532  0.82589  0.79835     C
H       0.6677   0.1527   0.2258     H
H       0.6677   0.1527   0.7742     H
H       0.6677   0.8473   0.2258     H
H       0.6677   0.8473   0.7742     H
H       0.6693   0.4245   0.2447     H
H       0.6693   0.4245   0.7553     H
H       0.6693   0.5755   0.2447     H
H       0.6693   0.5755   0.7553     H
C       0.6722   0.4295   0.3157     C
C       0.6722   0.4295   0.6843     C
C       0.6722   0.5705   0.3157     C
C       0.6722   0.5705   0.6843     C
Zn     0.67731      0.0  0.44665    Zn
Zn     0.67731      0.0  0.55335    Zn
H       0.6785   0.1058   0.1489     H
H       0.6785   0.1058   0.8511     H
H       0.6785   0.8942   0.1489     H
H       0.6785   0.8942   0.8511     H
H       0.6787   0.3418   0.4013     H
H       0.6787   0.3418   0.5987     H
H       0.6787   0.6582   0.4013     H
H       0.6787   0.6582   0.5987     H
H       0.6815   0.3495    0.453     H
H       0.6815   0.3495    0.547     H
H       0.6815   0.6505    0.453     H
H       0.6815   0.6505    0.547     H
C      0.68188  0.15053  0.31305     C
C      0.68188  0.15053  0.68695     C
C      0.68188  0.84947  0.31305     C
C      0.68188  0.84947  0.68695     C
C      0.68236  0.11826  0.34609     C
C      0.68236  0.11826  0.65391     C
C      0.68236  0.88174  0.34609     C
C      0.68236  0.88174  0.65391     C
C       0.6843   0.3278   0.4295     C
C       0.6843   0.3278   0.5705     C
C       0.6843   0.6722   0.4295     C
C       0.6843   0.6722   0.5705     C
H       0.6845   0.1143   0.1293     H
H       0.6845   0.1143   0.8707     H
H       0.6845   0.8857   0.1293     H
H       0.6845   0.8857   0.8707     H
C      0.68695  0.31812  0.15053     C
C      0.68695  0.31812  0.84947     C
C      0.68695  0.68188  0.15053     C
C      0.68695  0.68188  0.84947     C
C      0.68714  0.28611  0.18371     C
C      0.68714  0.28611  0.81629     C
C      0.68714  0.71389  0.18371     C
C      0.68714  0.71389  0.81629     C
O      0.68777  0.05238  0.41069     O
O      0.68777  0.05238  0.58931     O
O      0.68777  0.94762  0.41069     O
O      0.68777  0.94762  0.58931     O
C       0.6923   0.4299   0.2668     C
C       0.6923   0.4299   0.7332     C
C       0.6923   0.5701   0.2668     C
C       0.6923   0.5701   0.7332     C
H       0.6958   0.4342   0.3369     H
H       0.6958   0.4342   0.6631     H
H       0.6958   0.5658   0.3369     H
H       0.6958   0.5658   0.6631     H
C       0.7013   0.2388  0.24436     C
C       0.7013   0.2388  0.75564     C
C       0.7013   0.7612  0.24436     C
C       0.7013   0.7612  0.75564     C
H       0.7046   0.1912   0.1478     H
H       0.7046   0.1912   0.8522     H
H       0.7046   0.8088   0.1478     H
H       0.7046   0.8088   0.8522     H
C       0.7061  0.16946   0.1718     C
C       0.7061  0.16946   0.8282     C
C       0.7061  0.83054   0.1718     C
C       0.7061  0.83054   0.8282     C
H       0.7068   0.4581   0.2604     H
H       0.7068   0.4581   0.7396     H
H       0.7068   0.5419   0.2604     H
H       0.7068   0.5419   0.7396     H
H       0.7074   0.0966    0.174     H
H       0.7074   0.0966    0.826     H
H       0.7074   0.9034    0.174     H
H       0.7074   0.9034    0.826     H
C       0.7076   0.1198   0.1513     C
C       0.7076   0.1198   0.8487     C
C       0.7076   0.8802   0.1513     C
C       0.7076   0.8802   0.8487     C
H        0.709     0.34   0.1499     H
H        0.709     0.34   0.8501     H
H        0.709     0.66   0.1499     H
H        0.709     0.66   0.8501     H
H        0.711    0.249   0.3969     H
H        0.711    0.249   0.6031     H
H        0.711    0.751   0.3969     H
H        0.711    0.751   0.6031     H
H       0.7128   0.3629   0.2774     H
H       0.7128   0.3629   0.7226     H
H       0.7128   0.6371   0.2774     H
H       0.7128   0.6371   0.7226     H
C      0.71389  0.18371  0.31286     C
C      0.71389  0.18371  0.68714     C
C      0.71389  0.81629  0.31286     C
C      0.71389  0.81629  0.68714     C
C      0.71422  0.08393  0.41535     C
C      0.71422  0.08393  0.58465     C
C      0.71422  0.91607  0.41535     C
C      0.71422  0.91607  0.58465     C
O      0.71435      0.0      0.5     O
C      0.71443  0.11897  0.37953     C
C      0.71443  0.11897  0.62047     C
C      0.71443  0.88103  0.37953     C
C      0.71443  0.88103  0.62047     C
C      0.71767  0.27714  0.22247     C
C      0.71767  0.27714  0.77753     C
C      0.71767  0.72286  0.22247     C
C      0.71767  0.72286  0.77753     C
H       0.7195    0.108   0.2218     H
H       0.7195    0.108   0.7782     H
H       0.7195    0.892   0.2218     H
H       0.7195    0.892   0.7782     H
H       0.7226   0.2872   0.3629     H
H       0.7226   0.2872   0.6371     H
H       0.7226   0.7128   0.3629     H
H       0.7226   0.7128   0.6371     H
C      0.72286  0.22247  0.28233     C
C      0.72286  0.22247  0.71767     C
C      0.72286  0.77753  0.28233     C
C      0.72286  0.77753  0.71767     C
H       0.7238   0.1177   0.1234     H
H       0.7238   0.1177   0.8766     H
H       0.7238   0.8823   0.1234     H
H       0.7238   0.8823   0.8766     H
H       0.7247   0.3789   0.2006     H
H       0.7247   0.3789   0.7994     H
H       0.7247   0.6211   0.2006     H
H       0.7247   0.6211   0.7994     H
C      0.72763     0.39   0.2676     C
C      0.72763     0.39   0.7324     C
C      0.72763     0.61   0.2676     C
C      0.72763     0.61   0.7324     C
C       0.7324  0.27237     0.39     C
C       0.7324  0.27237     0.61     C
C       0.7324  0.72763     0.39     C
C       0.7324  0.72763     0.61     C
H        0.733   0.1751   0.1889     H
H        0.733   0.1751   0.8111     H
H        0.733   0.8249   0.1889     H
H        0.733   0.8249   0.8111     H
C       0.7332   0.3077   0.4299     C
C       0.7332   0.3077   0.5701     C
C       0.7332   0.6923   0.4299     C
C       0.7332   0.6923   0.5701     C
C       0.7366   0.1031   0.1952     C
C       0.7366   0.1031   0.8048     C
C       0.7366   0.8969   0.1952     C
C       0.7366   0.8969   0.8048     C
H       0.7396   0.2932   0.4581     H
H       0.7396   0.2932   0.5419     H
H       0.7396   0.7068   0.4581     H
H       0.7396   0.7068   0.5419     H
O      0.74093  0.08899  0.44723     O
O      0.74093  0.08899  0.55277     O
O      0.74093  0.91101  0.44723     O
O      0.74093  0.91101  0.55277     O
H       0.7432   0.0718   0.1924     H
H       0.7432   0.0718   0.8076     H
H       0.7432   0.9282   0.1924     H
H       0.7432   0.9282   0.8076     H
C      0.74612  0.18434  0.34606     C
C      0.74612  0.18434  0.65394     C
C      0.74612  0.81566  0.34606     C
C      0.74612  0.81566  0.65394     C
C      0.74618  0.15209  0.37965     C
C      0.74618  0.15209  0.62035     C
C      0.74618  0.84791  0.37965     C
C      0.74618  0.84791  0.62035     C
C      0.74833  0.38219  0.22253     C
C      0.74833  0.38219  0.77747     C
C      0.74833  0.61781  0.22253     C
C      0.74833  0.61781  0.77747     C
H        0.751   0.3969    0.289     H
H        0.751   0.3969    0.711     H
H        0.751   0.6031    0.289     H
H        0.751   0.6031    0.711     H
Zn     0.75139  0.05319      0.5    Zn
Zn     0.75139  0.94681      0.5    Zn
H       0.7546   0.1527   0.1096     H
H       0.7546   0.1527   0.8904     H
H       0.7546   0.8473   0.1096     H
H       0.7546   0.8473   0.8904     H
H       0.7553   0.3307   0.4245     H
H       0.7553   0.3307   0.5755     H
H       0.7553   0.6693   0.4245     H
H       0.7553   0.6693   0.5755     H
C      0.75564   0.2987   0.2388     C
C      0.75564   0.2987   0.7612     C
C      0.75564   0.7013   0.2388     C
C      0.75564   0.7013   0.7612     C
C       0.7559   0.1278   0.1297     C
C       0.7559   0.1278   0.8703     C
C       0.7559   0.8722   0.1297     C
C       0.7559   0.8722   0.8703     C
C       0.7612  0.24436   0.2987     C
C       0.7612  0.24436   0.7013     C
C       0.7612  0.75564   0.2987     C
C       0.7612  0.75564   0.7013     C
H        0.764   0.1197   0.1968     H
H        0.764   0.1197   0.8032     H
H        0.764   0.8803   0.1968     H
H        0.764   0.8803   0.8032     H
H        0.765   0.1015   0.1137     H
H        0.765   0.1015   0.8863     H
H        0.765   0.8985   0.1137     H
H        0.765   0.8985   0.8863     H
H       0.7659   0.4082   0.2144     H
H       0.7659   0.4082   0.7856     H
H       0.7659   0.5918   0.2144     H
H       0.7659   0.5918   0.7856     H
H       0.7677    0.153   0.4021     H
H       0.7677    0.153   0.5979     H
H       0.7677    0.847   0.4021     H
H       0.7677    0.847   0.5979     H
H       0.7742   0.3323   0.1527     H
H       0.7742   0.3323   0.8473     H
H       0.7742   0.6677   0.1527     H
H       0.7742   0.6677   0.8473     H
H       0.7771   0.1339    0.153     H
H       0.7771   0.1339    0.847     H
H       0.7771   0.8661    0.153     H
H       0.7771   0.8661    0.847     H
C      0.77747  0.25167  0.38219     C
C      0.77747  0.25167  0.61781     C
C      0.77747  0.74833  0.38219     C
C      0.77747  0.74833  0.61781     C
C      0.77753  0.28233  0.27714     C
C      0.77753  0.28233  0.72286     C
C      0.77753  0.71767  0.27714     C
C      0.77753  0.71767  0.72286     C
H       0.7782   0.2805    0.108     H
H       0.7782   0.2805    0.892     H
H       0.7782   0.7195    0.108     H
H       0.7782   0.7195    0.892     H
C      0.77824  0.34087  0.22095     C
C      0.77824  0.34087  0.77905     C
C      0.77824  0.65913  0.22095     C
C      0.77824  0.65913  0.77905     C
C      0.77905  0.22176  0.34087     C
C      0.77905  0.22176  0.65913     C
C      0.77905  0.77824  0.34087     C
C      0.77905  0.77824  0.65913     C
H       0.7856   0.2341   0.4082     H
H       0.7856   0.2341   0.5918     H
H       0.7856   0.7659   0.4082     H
H       0.7856   0.7659   0.5918     H
C      0.79835  0.33468  0.17411     C
C      0.79835  0.33468  0.82589     C
C      0.79835  0.66532  0.17411     C
C      0.79835  0.66532  0.82589     C
H       0.7994   0.2753   0.3789     H
H       0.7994   0.2753   0.6211     H
H       0.7994   0.7247   0.3789     H
H       0.7994   0.7247   0.6211     H
H       0.8032    0.236   0.1197     H
H       0.8032    0.236   0.8803     H
H       0.8032    0.764   0.1197     H
H       0.8032    0.764   0.8803     H
C       0.8048   0.2634   0.1031     C
C       0.8048   0.2634   0.8969     C
C       0.8048   0.7366   0.1031     C
C       0.8048   0.7366   0.8969     C
H       0.8076   0.2568   0.0718     H
H       0.8076   0.2568   0.9282     H
H       0.8076   0.7432   0.0718     H
H       0.8076   0.7432   0.9282     H
H       0.8088   0.1478   0.2954     H
H       0.8088   0.1478   0.7046     H
H       0.8088   0.8522   0.2954     H
H       0.8088   0.8522   0.7046     H
H       0.8111    0.267   0.1751     H
H       0.8111    0.267   0.8249     H
H       0.8111    0.733   0.1751     H
H       0.8111    0.733   0.8249     H
O      0.81363  0.03712      0.5     O
O      0.81363  0.96288      0.5     O
H       0.8156   0.3611   0.1666     H
H       0.8156   0.3611   0.8334     H
H       0.8156   0.6389   0.1666     H
H       0.8156   0.6389   0.8334     H
C      0.81566  0.34606  0.25388     C
C      0.81566  0.34606  0.74612     C
C      0.81566  0.65394  0.25388     C
C      0.81566  0.65394  0.74612     C
C      0.81629  0.31286  0.28611     C
C      0.81629  0.31286  0.71389     C
C      0.81629  0.68714  0.28611     C
C      0.81629  0.68714  0.71389     C
H       0.8249   0.1889    0.267     H
H       0.8249   0.1889    0.733     H
H       0.8249   0.8111    0.267     H
H       0.8249   0.8111    0.733     H
C      0.82589  0.20165  0.33468     C
C      0.82589  0.20165  0.66532     C
C      0.82589  0.79835  0.33468     C
C      0.82589  0.79835  0.66532     C
H        0.826   0.2926   0.0966     H
H        0.826   0.2926   0.9034     H
H        0.826   0.7074   0.0966     H
H        0.826   0.7074   0.9034     H
C       0.8282   0.2939  0.16946     C
C       0.8282   0.2939  0.83054     C
C       0.8282   0.7061  0.16946     C
C       0.8282   0.7061  0.83054     C
C      0.83054   0.1718   0.2939     C
C      0.83054   0.1718   0.7061     C
C      0.83054   0.8282   0.2939     C
C      0.83054   0.8282   0.7061     C
C      0.83229      0.0      0.5     C
H       0.8334   0.1844   0.3611     H
H       0.8334   0.1844   0.6389     H
H       0.8334   0.8156   0.3611     H
H       0.8334   0.8156   0.6389     H
H        0.847   0.2229   0.1339     H
H        0.847   0.2229   0.8661     H
H        0.847   0.4021   0.2323     H
H        0.847   0.4021   0.7677     H
H        0.847   0.5979   0.2323     H
H        0.847   0.5979   0.7677     H
H        0.847   0.7771   0.1339     H
H        0.847   0.7771   0.8661     H
H       0.8473   0.1096   0.2454     H
H       0.8473   0.1096   0.7546     H
H       0.8473   0.2258   0.3323     H
H       0.8473   0.2258   0.6677     H
H       0.8473   0.7742   0.3323     H
H       0.8473   0.7742   0.6677     H
H       0.8473   0.8904   0.2454     H
H       0.8473   0.8904   0.7546     H
C      0.84791  0.37965  0.25382     C
C      0.84791  0.37965  0.74618     C
C      0.84791  0.62035  0.25382     C
C      0.84791  0.62035  0.74618     C
C       0.8487   0.2924   0.1198     C
C       0.8487   0.2924   0.8802     C
C       0.8487   0.7076   0.1198     C
C       0.8487   0.7076   0.8802     C
C      0.84947  0.31305  0.31812     C
C      0.84947  0.31305  0.68188     C
C      0.84947  0.68695  0.31812     C
C      0.84947  0.68695  0.68188     C
H       0.8501    0.291     0.34     H
H       0.8501    0.291     0.66     H
H       0.8501    0.709     0.34     H
H       0.8501    0.709     0.66     H
H       0.8511   0.3215   0.1058     H
H       0.8511   0.3215   0.8942     H
H       0.8511   0.6785   0.1058     H
H       0.8511   0.6785   0.8942     H
H       0.8522   0.2954   0.1912     H
H       0.8522   0.2954   0.8088     H
H       0.8522   0.7046   0.1912     H
H       0.8522   0.7046   0.8088     H
H       0.8661    0.153   0.2229     H
H       0.8661    0.153   0.7771     H
H       0.8661    0.847   0.2229     H
H       0.8661    0.847   0.7771     H
C       0.8703   0.2441   0.1278     C
C       0.8703   0.2441   0.8722     C
C       0.8703   0.7559   0.1278     C
C       0.8703   0.7559   0.8722     C
H       0.8707   0.3155   0.1143     H
H       0.8707   0.3155   0.8857     H
H       0.8707   0.6845   0.1143     H
H       0.8707   0.6845   0.8857     H
C       0.8722   0.1297   0.2441     C
C       0.8722   0.1297   0.7559     C
C       0.8722   0.8703   0.2441     C
C       0.8722   0.8703   0.7559     C
H       0.8766   0.2762   0.1177     H
H       0.8766   0.2762   0.8823     H
H       0.8766   0.7238   0.1177     H
H       0.8766   0.7238   0.8823     H
C       0.8802   0.1513   0.2924     C
C       0.8802   0.1513   0.7076     C
C       0.8802   0.8487   0.2924     C
C       0.8802   0.8487   0.7076     C
H       0.8803   0.1968    0.236     H
H       0.8803   0.1968    0.764     H
H       0.8803   0.8032    0.236     H
H       0.8803   0.8032    0.764     H
C      0.88103  0.37953  0.28557     C
C      0.88103  0.37953  0.71443     C
C      0.88103  0.62047  0.28557     C
C      0.88103  0.62047  0.71443     C
C      0.88174  0.34609  0.31764     C
C      0.88174  0.34609  0.68236     C
C      0.88174  0.65391  0.31764     C
C      0.88174  0.65391  0.68236     C
C      0.88209      0.0      0.5     C
H       0.8823   0.1234   0.2762     H
H       0.8823   0.1234   0.7238     H
H       0.8823   0.8766   0.2762     H
H       0.8823   0.8766   0.7238     H
H       0.8857   0.1293   0.3155     H
H       0.8857   0.1293   0.6845     H
H       0.8857   0.8707   0.3155     H
H       0.8857   0.8707   0.6845     H
H       0.8863    0.235   0.1015     H
H       0.8863    0.235   0.8985     H
H       0.8863    0.765   0.1015     H
H       0.8863    0.765   0.8985     H
H         0.89   0.0654      0.5     H
H         0.89   0.9346      0.5     H
H       0.8904   0.2454   0.1527     H
H       0.8904   0.2454   0.8473     H
H       0.8904   0.7546   0.1527     H
H       0.8904   0.7546   0.8473     H
H        0.892   0.2218   0.2805     H
H        0.892   0.2218   0.7195     H
H        0.892   0.7782   0.2805     H
H        0.892   0.7782   0.7195     H
H       0.8942   0.1489   0.3215     H
H       0.8942   0.1489   0.6785     H
H       0.8942   0.8511   0.3215     H
H       0.8942   0.8511   0.6785     H
C       0.8969   0.1952   0.2634     C
C       0.8969   0.1952   0.7366     C
C       0.8969   0.8048   0.2634     C
C       0.8969   0.8048   0.7366     C
H       0.8985   0.1137    0.235     H
H       0.8985   0.1137    0.765     H
H       0.8985   0.8863    0.235     H
H       0.8985   0.8863    0.765     H
H       0.9034    0.174   0.2926     H
H       0.9034    0.174   0.7074     H
H       0.9034    0.826   0.2926     H
H       0.9034    0.826   0.7074     H
H       0.9042   0.3459   0.3391     H
H       0.9042   0.3459   0.6609     H
H       0.9042   0.6541   0.3391     H
H       0.9042   0.6541   0.6609     H
C      0.90522  0.03831      0.5     C
C      0.90522  0.96169      0.5     C
O      0.91101  0.44723  0.25907     O
O      0.91101  0.44723  0.74093     O
O      0.91101  0.55277  0.25907     O
O      0.91101  0.55277  0.74093     O
C      0.91607  0.41535  0.28578     C
C      0.91607  0.41535  0.71422     C
C      0.91607  0.58465  0.28578     C
C      0.91607  0.58465  0.71422     C
H       0.9282   0.1924   0.2568     H
H       0.9282   0.1924   0.7432     H
H       0.9282   0.8076   0.2568     H
H       0.9282   0.8076   0.7432     H
H       0.9346      0.5     0.11     H
H       0.9346      0.5     0.89     H
H       0.9348      0.5   0.0329     H
H       0.9348      0.5   0.9671     H
Zn     0.94681      0.5  0.24861    Zn
Zn     0.94681      0.5  0.75139    Zn
O      0.94762  0.41069  0.31223     O
O      0.94762  0.41069  0.68777     O
O      0.94762  0.58931  0.31223     O
O      0.94762  0.58931  0.68777     O
C      0.95189  0.03814      0.5     C
C      0.95189  0.96186      0.5     C
C      0.96169      0.5  0.09478     C
C      0.96169      0.5  0.90522     C
C      0.96186      0.5  0.04811     C
C      0.96186      0.5  0.95189     C
O      0.96288      0.5  0.18637     O
O      0.96288      0.5  0.81363     O
H       0.9671   0.0652      0.5     H
H       0.9671   0.9348      0.5     H
C      0.97513      0.0      0.5     C
