data_I
_chemical_name_common  '/Users/gianmarcoterrones/Research/MOFs/MOF_structures/water_stability_work_extra_structs/cleaned_from_CCDC/YUKBUD'
_cell_length_a 29.81160
_cell_length_b 29.81160
_cell_length_c 29.81160
_cell_angle_alpha 90.00000
_cell_angle_beta  90.00000
_cell_angle_gamma 90.00000
_space_group_name_H-M_alt      'P 1'


loop_
_space_group_symop_operation_xyz
  'x, y, z' 

loop_
_atom_site_label
_atom_site_fract_x
_atom_site_fract_y
_atom_site_fract_z
_atom_site_type_symbol
H          0.0   0.4331   0.4615     H
H          0.0   0.4331   0.5385     H
Zn         0.0  0.44648  0.32283    Zn
Zn         0.0  0.44648  0.67717    Zn
C          0.0   0.4603   0.4769     C
C          0.0   0.4603   0.5231     C
O          0.0  0.46307  0.38499     O
O          0.0  0.46307  0.61501     O
C          0.0      0.5   0.0238     C
C          0.0      0.5   0.1177     C
C          0.0      0.5   0.1677     C
O          0.0      0.5  0.28605     O
C          0.0      0.5   0.4043     C
C          0.0      0.5   0.4532     C
C          0.0      0.5   0.5468     C
C          0.0      0.5   0.5957     C
O          0.0      0.5  0.71395     O
C          0.0      0.5   0.8323     C
C          0.0      0.5   0.8823     C
C          0.0      0.5   0.9762     C
O          0.0  0.53693  0.38499     O
O          0.0  0.53693  0.61501     O
C          0.0   0.5397   0.4769     C
C          0.0   0.5397   0.5231     C
Zn         0.0  0.55352  0.32283    Zn
Zn         0.0  0.55352  0.67717    Zn
H          0.0   0.5669   0.4615     H
H          0.0   0.5669   0.5385     H
C       0.0238      0.0      0.5     C
H       0.0329   0.0644      0.5     H
H       0.0329   0.9356      0.5     H
C       0.0373      0.5   0.0483     C
C       0.0373      0.5   0.9517     C
O      0.03747      0.5  0.18652     O
O      0.03747      0.5  0.81348     O
C       0.0392      0.5   0.0942     C
C       0.0392      0.5   0.9058     C
C       0.0483   0.0373      0.5     C
C       0.0483   0.9627      0.5     C
O      0.05171  0.41015  0.31273     O
O      0.05171  0.41015  0.68727     O
O      0.05171  0.58985  0.31273     O
O      0.05171  0.58985  0.68727     O
Zn     0.05292      0.5  0.24863    Zn
Zn     0.05292      0.5  0.75137    Zn
H       0.0644      0.5   0.0329     H
H       0.0644      0.5   0.9671     H
H       0.0666      0.5   0.1091     H
H       0.0666      0.5   0.8909     H
C      0.08347  0.41513  0.28644     C
C      0.08347  0.41513  0.71356     C
C      0.08347  0.58487  0.28644     C
C      0.08347  0.58487  0.71356     C
O      0.08882  0.44743  0.25908     O
O      0.08882  0.44743  0.74092     O
O      0.08882  0.55257  0.25908     O
O      0.08882  0.55257  0.74092     O
C       0.0942   0.0392      0.5     C
C       0.0942   0.9608      0.5     C
H       0.0945   0.3448   0.3393     H
H       0.0945   0.3448   0.6607     H
H       0.0945   0.6552   0.3393     H
H       0.0945   0.6552   0.6607     H
H       0.0988   0.1654   0.2875     H
H       0.0988   0.1654   0.7125     H
H       0.0988   0.8346   0.2875     H
H       0.0988   0.8346   0.7125     H
H       0.1091   0.0666      0.5     H
H       0.1091   0.9334      0.5     H
H       0.1171   0.1256   0.3166     H
H       0.1171   0.1256   0.6834     H
H       0.1171   0.8744   0.3166     H
H       0.1171   0.8744   0.6834     H
C       0.1173   0.3451   0.3179     C
C       0.1173   0.3451   0.6821     C
C       0.1173   0.6549   0.3179     C
C       0.1173   0.6549   0.6821     C
C       0.1177      0.0      0.5     C
C       0.1186   0.3792   0.2859     C
C       0.1186   0.3792   0.7141     C
C       0.1186   0.6208   0.2859     C
C       0.1186   0.6208   0.7141     C
C       0.1222   0.1435   0.2903     C
C       0.1222   0.1435   0.7097     C
C       0.1222   0.8565   0.2903     C
C       0.1222   0.8565   0.7097     C
H       0.1224   0.1245   0.2643     H
H       0.1224   0.1245   0.7357     H
H       0.1224   0.8755   0.2643     H
H       0.1224   0.8755   0.7357     H
H       0.1245   0.2643   0.1224     H
H       0.1245   0.2643   0.8776     H
H       0.1245   0.7357   0.1224     H
H       0.1245   0.7357   0.8776     H
H       0.1256   0.3166   0.1171     H
H       0.1256   0.3166   0.8829     H
H       0.1256   0.6834   0.1171     H
H       0.1256   0.6834   0.8829     H
C       0.1435   0.2903   0.1222     C
C       0.1435   0.2903   0.8778     C
C       0.1435   0.7097   0.1222     C
C       0.1435   0.7097   0.8778     C
H       0.1459    0.297   0.1929     H
H       0.1459    0.297   0.8071     H
H       0.1459    0.703   0.1929     H
H       0.1459    0.703   0.8071     H
H       0.1487   0.2894     0.34     H
H       0.1487   0.2894     0.66     H
H       0.1487   0.7106     0.34     H
H       0.1487   0.7106     0.66     H
C       0.1493   0.3119   0.3184     C
C       0.1493   0.3119   0.6816     C
C       0.1493   0.6881   0.3184     C
C       0.1493   0.6881   0.6816     C
C       0.1511   0.3807    0.254     C
C       0.1511   0.3807    0.746     C
C       0.1511   0.6193    0.254     C
C       0.1511   0.6193    0.746     C
H       0.1519   0.4037   0.2329     H
H       0.1519   0.4037   0.7671     H
H       0.1519   0.5963   0.2329     H
H       0.1519   0.5963   0.7671     H
H       0.1526   0.2244     0.33     H
H       0.1526   0.2244     0.67     H
H       0.1526   0.7756     0.33     H
H       0.1526   0.7756     0.67     H
H       0.1654   0.2875   0.0988     H
H       0.1654   0.2875   0.9012     H
H       0.1654   0.7125   0.0988     H
H       0.1654   0.7125   0.9012     H
H       0.1659   0.1843    0.361     H
H       0.1659   0.1843    0.639     H
H       0.1659   0.8157    0.361     H
H       0.1659   0.8157    0.639     H
C       0.1677      0.0      0.5     C
C       0.1685   0.2946   0.1696     C
C       0.1685   0.2946   0.8304     C
C       0.1685   0.7054   0.1696     C
C       0.1685   0.7054   0.8304     C
C       0.1696   0.1685   0.2946     C
C       0.1696   0.1685   0.7054     C
C       0.1696   0.8315   0.2946     C
C       0.1696   0.8315   0.7054     C
C       0.1741   0.2003   0.3339     C
C       0.1741   0.2003   0.6661     C
C       0.1741   0.7997   0.3339     C
C       0.1741   0.7997   0.6661     C
H       0.1749   0.1852   0.2672     H
H       0.1749   0.1852   0.7328     H
H       0.1749   0.8148   0.2672     H
H       0.1749   0.8148   0.7328     H
C       0.1823   0.3126   0.2859     C
C       0.1823   0.3126   0.7141     C
C       0.1823   0.6874   0.2859     C
C       0.1823   0.6874   0.7141     C
H       0.1843    0.361   0.1659     H
H       0.1843    0.361   0.8341     H
H       0.1843    0.639   0.1659     H
H       0.1843    0.639   0.8341     H
C       0.1844   0.3455   0.2539     C
C       0.1844   0.3455   0.7461     C
C       0.1844   0.6545   0.2539     C
C       0.1844   0.6545   0.7461     C
H       0.1852   0.2672   0.1749     H
H       0.1852   0.2672   0.8251     H
H       0.1852   0.7328   0.1749     H
H       0.1852   0.7328   0.8251     H
O      0.18652  0.03747      0.5     O
O      0.18652  0.96253      0.5     O
H       0.1929   0.1459    0.297     H
H       0.1929   0.1459    0.703     H
H       0.1929   0.8541    0.297     H
H       0.1929   0.8541    0.703     H
C       0.2003   0.3339   0.1741     C
C       0.2003   0.3339   0.8259     C
C       0.2003   0.6661   0.1741     C
C       0.2003   0.6661   0.8259     C
H       0.2032   0.2778   0.3799     H
H       0.2032   0.2778   0.6201     H
H       0.2032   0.7222   0.3799     H
H       0.2032   0.7222   0.6201     H
H       0.2158   0.2364     0.41     H
H       0.2158   0.2364     0.59     H
H       0.2158   0.7636     0.41     H
H       0.2158   0.7636     0.59     H
C       0.2206   0.2212   0.3409     C
C       0.2206   0.2212   0.6591     C
C       0.2206   0.7788   0.3409     C
C       0.2206   0.7788   0.6591     C
C       0.2212   0.3409   0.2206     C
C       0.2212   0.3409   0.7794     C
C       0.2212   0.6591   0.2206     C
C       0.2212   0.6591   0.7794     C
C       0.2228   0.2812   0.2773     C
C       0.2228   0.2812   0.7227     C
C       0.2228   0.7188   0.2773     C
C       0.2228   0.7188   0.7227     C
C        0.224    0.253   0.3832     C
C        0.224    0.253   0.6168     C
C        0.224    0.747   0.3832     C
C        0.224    0.747   0.6168     C
H       0.2244     0.33   0.1526     H
H       0.2244     0.33   0.8474     H
H       0.2244     0.67   0.1526     H
H       0.2244     0.67   0.8474     H
H       0.2329   0.1519   0.4037     H
H       0.2329   0.1519   0.5963     H
H       0.2329   0.8481   0.4037     H
H       0.2329   0.8481   0.5963     H
H       0.2364     0.41   0.2158     H
H       0.2364     0.41   0.7842     H
H       0.2364     0.59   0.2158     H
H       0.2364     0.59   0.7842     H
C       0.2388   0.2441   0.2981     C
C       0.2388   0.2441   0.7019     C
C       0.2388   0.7559   0.2981     C
C       0.2388   0.7559   0.7019     C
C       0.2441   0.2981   0.2388     C
C       0.2441   0.2981   0.7612     C
C       0.2441   0.7019   0.2388     C
C       0.2441   0.7019   0.7612     C
H        0.248   0.3251   0.4247     H
H        0.248   0.3251   0.5753     H
H        0.248   0.6749   0.4247     H
H        0.248   0.6749   0.5753     H
Zn     0.24863  0.05292      0.5    Zn
Zn     0.24863  0.94708      0.5    Zn
H       0.2488   0.3935   0.2981     H
H       0.2488   0.3935   0.7019     H
H       0.2488   0.6065   0.2981     H
H       0.2488   0.6065   0.7019     H
C        0.253   0.3832    0.224     C
C        0.253   0.3832    0.776     C
C        0.253   0.6168    0.224     C
C        0.253   0.6168    0.776     C
C       0.2539   0.1844   0.3455     C
C       0.2539   0.1844   0.6545     C
C       0.2539   0.8156   0.3455     C
C       0.2539   0.8156   0.6545     C
C        0.254   0.1511   0.3807     C
C        0.254   0.1511   0.6193     C
C        0.254   0.8489   0.3807     C
C        0.254   0.8489   0.6193     C
O      0.25908  0.08882  0.44743     O
O      0.25908  0.08882  0.55257     O
O      0.25908  0.91118  0.44743     O
O      0.25908  0.91118  0.55257     O
H       0.2609   0.2845   0.4554     H
H       0.2609   0.2845   0.5446     H
H       0.2609   0.7155   0.4554     H
H       0.2609   0.7155   0.5446     H
H       0.2643   0.1224   0.1245     H
H       0.2643   0.1224   0.8755     H
H       0.2643   0.8776   0.1245     H
H       0.2643   0.8776   0.8755     H
H       0.2672   0.1749   0.1852     H
H       0.2672   0.1749   0.8148     H
H       0.2672   0.8251   0.1852     H
H       0.2672   0.8251   0.8148     H
C       0.2703   0.3028   0.4306     C
C       0.2703   0.3028   0.5694     C
C       0.2703   0.6972   0.4306     C
C       0.2703   0.6972   0.5694     C
C       0.2727   0.3883   0.2767     C
C       0.2727   0.3883   0.7233     C
C       0.2727   0.6117   0.2767     C
C       0.2727   0.6117   0.7233     C
C       0.2767   0.2727   0.3883     C
C       0.2767   0.2727   0.6117     C
C       0.2767   0.7273   0.3883     C
C       0.2767   0.7273   0.6117     C
C       0.2773   0.2228   0.2812     C
C       0.2773   0.2228   0.7188     C
C       0.2773   0.7772   0.2812     C
C       0.2773   0.7772   0.7188     C
H       0.2778   0.3799   0.2032     H
H       0.2778   0.3799   0.7968     H
H       0.2778   0.6201   0.2032     H
H       0.2778   0.6201   0.7968     H
C       0.2812   0.2773   0.2228     C
C       0.2812   0.2773   0.7772     C
C       0.2812   0.7227   0.2228     C
C       0.2812   0.7227   0.7772     C
H       0.2845   0.4554   0.2609     H
H       0.2845   0.4554   0.7391     H
H       0.2845   0.5446   0.2609     H
H       0.2845   0.5446   0.7391     H
H       0.2857   0.2901   0.3623     H
H       0.2857   0.2901   0.6377     H
H       0.2857   0.7099   0.3623     H
H       0.2857   0.7099   0.6377     H
C       0.2859   0.1186   0.3792     C
C       0.2859   0.1186   0.6208     C
C       0.2859   0.1823   0.3126     C
C       0.2859   0.1823   0.6874     C
C       0.2859   0.8177   0.3126     C
C       0.2859   0.8177   0.6874     C
C       0.2859   0.8814   0.3792     C
C       0.2859   0.8814   0.6208     C
O      0.28605      0.0      0.5     O
C      0.28644  0.08347  0.41513     C
C      0.28644  0.08347  0.58487     C
C      0.28644  0.91653  0.41513     C
C      0.28644  0.91653  0.58487     C
H       0.2875   0.0988   0.1654     H
H       0.2875   0.0988   0.8346     H
H       0.2875   0.9012   0.1654     H
H       0.2875   0.9012   0.8346     H
H       0.2894     0.34   0.1487     H
H       0.2894     0.34   0.8513     H
H       0.2894     0.66   0.1487     H
H       0.2894     0.66   0.8513     H
H       0.2901   0.3623   0.2857     H
H       0.2901   0.3623   0.7143     H
H       0.2901   0.6377   0.2857     H
H       0.2901   0.6377   0.7143     H
C       0.2903   0.1222   0.1435     C
C       0.2903   0.1222   0.8565     C
C       0.2903   0.8778   0.1435     C
C       0.2903   0.8778   0.8565     C
C       0.2946   0.1696   0.1685     C
C       0.2946   0.1696   0.8315     C
C       0.2946   0.8304   0.1685     C
C       0.2946   0.8304   0.8315     C
H        0.297   0.1929   0.1459     H
H        0.297   0.1929   0.8541     H
H        0.297   0.8071   0.1459     H
H        0.297   0.8071   0.8541     H
C       0.2981   0.2388   0.2441     C
C       0.2981   0.2388   0.7559     C
H       0.2981   0.2488   0.3935     H
H       0.2981   0.2488   0.6065     H
H       0.2981   0.7512   0.3935     H
H       0.2981   0.7512   0.6065     H
C       0.2981   0.7612   0.2441     C
C       0.2981   0.7612   0.7559     C
H       0.2982   0.3171   0.4379     H
H       0.2982   0.3171   0.5621     H
H       0.2982   0.6829   0.4379     H
H       0.2982   0.6829   0.5621     H
C       0.3028   0.4306   0.2703     C
C       0.3028   0.4306   0.7297     C
C       0.3028   0.5694   0.2703     C
C       0.3028   0.5694   0.7297     C
C       0.3119   0.3184   0.1493     C
C       0.3119   0.3184   0.8507     C
C       0.3119   0.6816   0.1493     C
C       0.3119   0.6816   0.8507     C
C       0.3126   0.2859   0.1823     C
C       0.3126   0.2859   0.8177     C
C       0.3126   0.7141   0.1823     C
C       0.3126   0.7141   0.8177     C
O      0.31273  0.05171  0.41015     O
O      0.31273  0.05171  0.58985     O
O      0.31273  0.94829  0.41015     O
O      0.31273  0.94829  0.58985     O
H       0.3166   0.1171   0.1256     H
H       0.3166   0.1171   0.8744     H
H       0.3166   0.8829   0.1256     H
H       0.3166   0.8829   0.8744     H
H       0.3171   0.4379   0.2982     H
H       0.3171   0.4379   0.7018     H
H       0.3171   0.5621   0.2982     H
H       0.3171   0.5621   0.7018     H
C       0.3179   0.1173   0.3451     C
C       0.3179   0.1173   0.6549     C
C       0.3179   0.8827   0.3451     C
C       0.3179   0.8827   0.6549     C
C       0.3184   0.1493   0.3119     C
C       0.3184   0.1493   0.6881     C
C       0.3184   0.8507   0.3119     C
C       0.3184   0.8507   0.6881     C
Zn     0.32283      0.0  0.44648    Zn
Zn     0.32283      0.0  0.55352    Zn
H       0.3251   0.4247    0.248     H
H       0.3251   0.4247    0.752     H
H       0.3251   0.5753    0.248     H
H       0.3251   0.5753    0.752     H
H         0.33   0.1526   0.2244     H
H         0.33   0.1526   0.7756     H
H         0.33   0.8474   0.2244     H
H         0.33   0.8474   0.7756     H
C       0.3339   0.1741   0.2003     C
C       0.3339   0.1741   0.7997     C
C       0.3339   0.8259   0.2003     C
C       0.3339   0.8259   0.7997     C
H       0.3393   0.0945   0.3448     H
H       0.3393   0.0945   0.6552     H
H       0.3393   0.9055   0.3448     H
H       0.3393   0.9055   0.6552     H
H         0.34   0.1487   0.2894     H
H         0.34   0.1487   0.7106     H
H         0.34   0.8513   0.2894     H
H         0.34   0.8513   0.7106     H
C       0.3409   0.2206   0.2212     C
C       0.3409   0.2206   0.7788     C
C       0.3409   0.7794   0.2212     C
C       0.3409   0.7794   0.7788     C
H       0.3448   0.3393   0.0945     H
H       0.3448   0.3393   0.9055     H
H       0.3448   0.6607   0.0945     H
H       0.3448   0.6607   0.9055     H
C       0.3451   0.3179   0.1173     C
C       0.3451   0.3179   0.8827     C
C       0.3451   0.6821   0.1173     C
C       0.3451   0.6821   0.8827     C
C       0.3455   0.2539   0.1844     C
C       0.3455   0.2539   0.8156     C
C       0.3455   0.7461   0.1844     C
C       0.3455   0.7461   0.8156     C
H        0.361   0.1659   0.1843     H
H        0.361   0.1659   0.8157     H
H        0.361   0.8341   0.1843     H
H        0.361   0.8341   0.8157     H
H       0.3623   0.2857   0.2901     H
H       0.3623   0.2857   0.7099     H
H       0.3623   0.7143   0.2901     H
H       0.3623   0.7143   0.7099     H
C       0.3792   0.2859   0.1186     C
C       0.3792   0.2859   0.8814     C
C       0.3792   0.7141   0.1186     C
C       0.3792   0.7141   0.8814     C
H       0.3799   0.2032   0.2778     H
H       0.3799   0.2032   0.7222     H
H       0.3799   0.7968   0.2778     H
H       0.3799   0.7968   0.7222     H
C       0.3807    0.254   0.1511     C
C       0.3807    0.254   0.8489     C
C       0.3807    0.746   0.1511     C
C       0.3807    0.746   0.8489     C
C       0.3832    0.224    0.253     C
C       0.3832    0.224    0.747     C
C       0.3832    0.776    0.253     C
C       0.3832    0.776    0.747     C
O      0.38499      0.0  0.46307     O
O      0.38499      0.0  0.53693     O
C       0.3883   0.2767   0.2727     C
C       0.3883   0.2767   0.7273     C
C       0.3883   0.7233   0.2727     C
C       0.3883   0.7233   0.7273     C
H       0.3935   0.2981   0.2488     H
H       0.3935   0.2981   0.7512     H
H       0.3935   0.7019   0.2488     H
H       0.3935   0.7019   0.7512     H
H       0.4037   0.2329   0.1519     H
H       0.4037   0.2329   0.8481     H
H       0.4037   0.7671   0.1519     H
H       0.4037   0.7671   0.8481     H
C       0.4043      0.0      0.5     C
H         0.41   0.2158   0.2364     H
H         0.41   0.2158   0.7636     H
H         0.41   0.7842   0.2364     H
H         0.41   0.7842   0.7636     H
O      0.41015  0.31273  0.05171     O
O      0.41015  0.31273  0.94829     O
O      0.41015  0.68727  0.05171     O
O      0.41015  0.68727  0.94829     O
C      0.41513  0.28644  0.08347     C
C      0.41513  0.28644  0.91653     C
C      0.41513  0.71356  0.08347     C
C      0.41513  0.71356  0.91653     C
H       0.4247    0.248   0.3251     H
H       0.4247    0.248   0.6749     H
H       0.4247    0.752   0.3251     H
H       0.4247    0.752   0.6749     H
C       0.4306   0.2703   0.3028     C
C       0.4306   0.2703   0.6972     C
C       0.4306   0.7297   0.3028     C
C       0.4306   0.7297   0.6972     C
H       0.4331   0.4615      0.0     H
H       0.4331   0.5385      0.0     H
H       0.4379   0.2982   0.3171     H
H       0.4379   0.2982   0.6829     H
H       0.4379   0.7018   0.3171     H
H       0.4379   0.7018   0.6829     H
Zn     0.44648  0.32283      0.0    Zn
Zn     0.44648  0.67717      0.0    Zn
O      0.44743  0.25908  0.08882     O
O      0.44743  0.25908  0.91118     O
O      0.44743  0.74092  0.08882     O
O      0.44743  0.74092  0.91118     O
C       0.4532      0.0      0.5     C
H       0.4554   0.2609   0.2845     H
H       0.4554   0.2609   0.7155     H
H       0.4554   0.7391   0.2845     H
H       0.4554   0.7391   0.7155     H
C       0.4603   0.4769      0.0     C
C       0.4603   0.5231      0.0     C
H       0.4615      0.0   0.4331     H
H       0.4615      0.0   0.5669     H
O      0.46307  0.38499      0.0     O
O      0.46307  0.61501      0.0     O
C       0.4769      0.0   0.4603     C
C       0.4769      0.0   0.5397     C
C          0.5   0.0238      0.0     C
H          0.5   0.0329   0.0644     H
H          0.5   0.0329   0.9356     H
C          0.5   0.0483   0.0373     C
C          0.5   0.0483   0.9627     C
C          0.5   0.0942   0.0392     C
C          0.5   0.0942   0.9608     C
H          0.5   0.1091   0.0666     H
H          0.5   0.1091   0.9334     H
C          0.5   0.1177      0.0     C
C          0.5   0.1677      0.0     C
O          0.5  0.18652  0.03747     O
O          0.5  0.18652  0.96253     O
Zn         0.5  0.24863  0.05292    Zn
Zn         0.5  0.24863  0.94708    Zn
O          0.5  0.28605      0.0     O
C          0.5   0.4043      0.0     C
C          0.5   0.4532      0.0     C
C          0.5   0.5468      0.0     C
C          0.5   0.5957      0.0     C
O          0.5  0.71395      0.0     O
Zn         0.5  0.75137  0.05292    Zn
Zn         0.5  0.75137  0.94708    Zn
O          0.5  0.81348  0.03747     O
O          0.5  0.81348  0.96253     O
C          0.5   0.8323      0.0     C
C          0.5   0.8823      0.0     C
H          0.5   0.8909   0.0666     H
H          0.5   0.8909   0.9334     H
C          0.5   0.9058   0.0392     C
C          0.5   0.9058   0.9608     C
C          0.5   0.9517   0.0373     C
C          0.5   0.9517   0.9627     C
H          0.5   0.9671   0.0644     H
H          0.5   0.9671   0.9356     H
C          0.5   0.9762      0.0     C
C       0.5231      0.0   0.4603     C
C       0.5231      0.0   0.5397     C
O      0.53693  0.38499      0.0     O
O      0.53693  0.61501      0.0     O
H       0.5385      0.0   0.4331     H
H       0.5385      0.0   0.5669     H
C       0.5397   0.4769      0.0     C
C       0.5397   0.5231      0.0     C
H       0.5446   0.2609   0.2845     H
H       0.5446   0.2609   0.7155     H
H       0.5446   0.7391   0.2845     H
H       0.5446   0.7391   0.7155     H
C       0.5468      0.0      0.5     C
O      0.55257  0.25908  0.08882     O
O      0.55257  0.25908  0.91118     O
O      0.55257  0.74092  0.08882     O
O      0.55257  0.74092  0.91118     O
Zn     0.55352  0.32283      0.0    Zn
Zn     0.55352  0.67717      0.0    Zn
H       0.5621   0.2982   0.3171     H
H       0.5621   0.2982   0.6829     H
H       0.5621   0.7018   0.3171     H
H       0.5621   0.7018   0.6829     H
H       0.5669   0.4615      0.0     H
H       0.5669   0.5385      0.0     H
C       0.5694   0.2703   0.3028     C
C       0.5694   0.2703   0.6972     C
C       0.5694   0.7297   0.3028     C
C       0.5694   0.7297   0.6972     C
H       0.5753    0.248   0.3251     H
H       0.5753    0.248   0.6749     H
H       0.5753    0.752   0.3251     H
H       0.5753    0.752   0.6749     H
C      0.58487  0.28644  0.08347     C
C      0.58487  0.28644  0.91653     C
C      0.58487  0.71356  0.08347     C
C      0.58487  0.71356  0.91653     C
O      0.58985  0.31273  0.05171     O
O      0.58985  0.31273  0.94829     O
O      0.58985  0.68727  0.05171     O
O      0.58985  0.68727  0.94829     O
H         0.59   0.2158   0.2364     H
H         0.59   0.2158   0.7636     H
H         0.59   0.7842   0.2364     H
H         0.59   0.7842   0.7636     H
C       0.5957      0.0      0.5     C
H       0.5963   0.2329   0.1519     H
H       0.5963   0.2329   0.8481     H
H       0.5963   0.7671   0.1519     H
H       0.5963   0.7671   0.8481     H
H       0.6065   0.2981   0.2488     H
H       0.6065   0.2981   0.7512     H
H       0.6065   0.7019   0.2488     H
H       0.6065   0.7019   0.7512     H
C       0.6117   0.2767   0.2727     C
C       0.6117   0.2767   0.7273     C
C       0.6117   0.7233   0.2727     C
C       0.6117   0.7233   0.7273     C
O      0.61501      0.0  0.46307     O
O      0.61501      0.0  0.53693     O
C       0.6168    0.224    0.253     C
C       0.6168    0.224    0.747     C
C       0.6168    0.776    0.253     C
C       0.6168    0.776    0.747     C
C       0.6193    0.254   0.1511     C
C       0.6193    0.254   0.8489     C
C       0.6193    0.746   0.1511     C
C       0.6193    0.746   0.8489     C
H       0.6201   0.2032   0.2778     H
H       0.6201   0.2032   0.7222     H
H       0.6201   0.7968   0.2778     H
H       0.6201   0.7968   0.7222     H
C       0.6208   0.2859   0.1186     C
C       0.6208   0.2859   0.8814     C
C       0.6208   0.7141   0.1186     C
C       0.6208   0.7141   0.8814     C
H       0.6377   0.2857   0.2901     H
H       0.6377   0.2857   0.7099     H
H       0.6377   0.7143   0.2901     H
H       0.6377   0.7143   0.7099     H
H        0.639   0.1659   0.1843     H
H        0.639   0.1659   0.8157     H
H        0.639   0.8341   0.1843     H
H        0.639   0.8341   0.8157     H
C       0.6545   0.2539   0.1844     C
C       0.6545   0.2539   0.8156     C
C       0.6545   0.7461   0.1844     C
C       0.6545   0.7461   0.8156     C
C       0.6549   0.3179   0.1173     C
C       0.6549   0.3179   0.8827     C
C       0.6549   0.6821   0.1173     C
C       0.6549   0.6821   0.8827     C
H       0.6552   0.3393   0.0945     H
H       0.6552   0.3393   0.9055     H
H       0.6552   0.6607   0.0945     H
H       0.6552   0.6607   0.9055     H
C       0.6591   0.2206   0.2212     C
C       0.6591   0.2206   0.7788     C
C       0.6591   0.7794   0.2212     C
C       0.6591   0.7794   0.7788     C
H         0.66   0.1487   0.2894     H
H         0.66   0.1487   0.7106     H
H         0.66   0.8513   0.2894     H
H         0.66   0.8513   0.7106     H
H       0.6607   0.0945   0.3448     H
H       0.6607   0.0945   0.6552     H
H       0.6607   0.9055   0.3448     H
H       0.6607   0.9055   0.6552     H
C       0.6661   0.1741   0.2003     C
C       0.6661   0.1741   0.7997     C
C       0.6661   0.8259   0.2003     C
C       0.6661   0.8259   0.7997     C
H         0.67   0.1526   0.2244     H
H         0.67   0.1526   0.7756     H
H         0.67   0.8474   0.2244     H
H         0.67   0.8474   0.7756     H
H       0.6749   0.4247    0.248     H
H       0.6749   0.4247    0.752     H
H       0.6749   0.5753    0.248     H
H       0.6749   0.5753    0.752     H
Zn     0.67717      0.0  0.44648    Zn
Zn     0.67717      0.0  0.55352    Zn
C       0.6816   0.1493   0.3119     C
C       0.6816   0.1493   0.6881     C
C       0.6816   0.8507   0.3119     C
C       0.6816   0.8507   0.6881     C
C       0.6821   0.1173   0.3451     C
C       0.6821   0.1173   0.6549     C
C       0.6821   0.8827   0.3451     C
C       0.6821   0.8827   0.6549     C
H       0.6829   0.4379   0.2982     H
H       0.6829   0.4379   0.7018     H
H       0.6829   0.5621   0.2982     H
H       0.6829   0.5621   0.7018     H
H       0.6834   0.1171   0.1256     H
H       0.6834   0.1171   0.8744     H
H       0.6834   0.8829   0.1256     H
H       0.6834   0.8829   0.8744     H
O      0.68727  0.05171  0.41015     O
O      0.68727  0.05171  0.58985     O
O      0.68727  0.94829  0.41015     O
O      0.68727  0.94829  0.58985     O
C       0.6874   0.2859   0.1823     C
C       0.6874   0.2859   0.8177     C
C       0.6874   0.7141   0.1823     C
C       0.6874   0.7141   0.8177     C
C       0.6881   0.3184   0.1493     C
C       0.6881   0.3184   0.8507     C
C       0.6881   0.6816   0.1493     C
C       0.6881   0.6816   0.8507     C
C       0.6972   0.4306   0.2703     C
C       0.6972   0.4306   0.7297     C
C       0.6972   0.5694   0.2703     C
C       0.6972   0.5694   0.7297     C
H       0.7018   0.3171   0.4379     H
H       0.7018   0.3171   0.5621     H
H       0.7018   0.6829   0.4379     H
H       0.7018   0.6829   0.5621     H
C       0.7019   0.2388   0.2441     C
C       0.7019   0.2388   0.7559     C
H       0.7019   0.2488   0.3935     H
H       0.7019   0.2488   0.6065     H
H       0.7019   0.7512   0.3935     H
H       0.7019   0.7512   0.6065     H
C       0.7019   0.7612   0.2441     C
C       0.7019   0.7612   0.7559     C
H        0.703   0.1929   0.1459     H
H        0.703   0.1929   0.8541     H
H        0.703   0.8071   0.1459     H
H        0.703   0.8071   0.8541     H
C       0.7054   0.1696   0.1685     C
C       0.7054   0.1696   0.8315     C
C       0.7054   0.8304   0.1685     C
C       0.7054   0.8304   0.8315     C
C       0.7097   0.1222   0.1435     C
C       0.7097   0.1222   0.8565     C
C       0.7097   0.8778   0.1435     C
C       0.7097   0.8778   0.8565     C
H       0.7099   0.3623   0.2857     H
H       0.7099   0.3623   0.7143     H
H       0.7099   0.6377   0.2857     H
H       0.7099   0.6377   0.7143     H
H       0.7106     0.34   0.1487     H
H       0.7106     0.34   0.8513     H
H       0.7106     0.66   0.1487     H
H       0.7106     0.66   0.8513     H
H       0.7125   0.0988   0.1654     H
H       0.7125   0.0988   0.8346     H
H       0.7125   0.9012   0.1654     H
H       0.7125   0.9012   0.8346     H
C      0.71356  0.08347  0.41513     C
C      0.71356  0.08347  0.58487     C
C      0.71356  0.91653  0.41513     C
C      0.71356  0.91653  0.58487     C
O      0.71395      0.0      0.5     O
C       0.7141   0.1186   0.3792     C
C       0.7141   0.1186   0.6208     C
C       0.7141   0.1823   0.3126     C
C       0.7141   0.1823   0.6874     C
C       0.7141   0.8177   0.3126     C
C       0.7141   0.8177   0.6874     C
C       0.7141   0.8814   0.3792     C
C       0.7141   0.8814   0.6208     C
H       0.7143   0.2901   0.3623     H
H       0.7143   0.2901   0.6377     H
H       0.7143   0.7099   0.3623     H
H       0.7143   0.7099   0.6377     H
H       0.7155   0.4554   0.2609     H
H       0.7155   0.4554   0.7391     H
H       0.7155   0.5446   0.2609     H
H       0.7155   0.5446   0.7391     H
C       0.7188   0.2773   0.2228     C
C       0.7188   0.2773   0.7772     C
C       0.7188   0.7227   0.2228     C
C       0.7188   0.7227   0.7772     C
H       0.7222   0.3799   0.2032     H
H       0.7222   0.3799   0.7968     H
H       0.7222   0.6201   0.2032     H
H       0.7222   0.6201   0.7968     H
C       0.7227   0.2228   0.2812     C
C       0.7227   0.2228   0.7188     C
C       0.7227   0.7772   0.2812     C
C       0.7227   0.7772   0.7188     C
C       0.7233   0.2727   0.3883     C
C       0.7233   0.2727   0.6117     C
C       0.7233   0.7273   0.3883     C
C       0.7233   0.7273   0.6117     C
C       0.7273   0.3883   0.2767     C
C       0.7273   0.3883   0.7233     C
C       0.7273   0.6117   0.2767     C
C       0.7273   0.6117   0.7233     C
C       0.7297   0.3028   0.4306     C
C       0.7297   0.3028   0.5694     C
C       0.7297   0.6972   0.4306     C
C       0.7297   0.6972   0.5694     C
H       0.7328   0.1749   0.1852     H
H       0.7328   0.1749   0.8148     H
H       0.7328   0.8251   0.1852     H
H       0.7328   0.8251   0.8148     H
H       0.7357   0.1224   0.1245     H
H       0.7357   0.1224   0.8755     H
H       0.7357   0.8776   0.1245     H
H       0.7357   0.8776   0.8755     H
H       0.7391   0.2845   0.4554     H
H       0.7391   0.2845   0.5446     H
H       0.7391   0.7155   0.4554     H
H       0.7391   0.7155   0.5446     H
O      0.74092  0.08882  0.44743     O
O      0.74092  0.08882  0.55257     O
O      0.74092  0.91118  0.44743     O
O      0.74092  0.91118  0.55257     O
C        0.746   0.1511   0.3807     C
C        0.746   0.1511   0.6193     C
C        0.746   0.8489   0.3807     C
C        0.746   0.8489   0.6193     C
C       0.7461   0.1844   0.3455     C
C       0.7461   0.1844   0.6545     C
C       0.7461   0.8156   0.3455     C
C       0.7461   0.8156   0.6545     C
C        0.747   0.3832    0.224     C
C        0.747   0.3832    0.776     C
C        0.747   0.6168    0.224     C
C        0.747   0.6168    0.776     C
H       0.7512   0.3935   0.2981     H
H       0.7512   0.3935   0.7019     H
H       0.7512   0.6065   0.2981     H
H       0.7512   0.6065   0.7019     H
Zn     0.75137  0.05292      0.5    Zn
Zn     0.75137  0.94708      0.5    Zn
H        0.752   0.3251   0.4247     H
H        0.752   0.3251   0.5753     H
H        0.752   0.6749   0.4247     H
H        0.752   0.6749   0.5753     H
C       0.7559   0.2981   0.2388     C
C       0.7559   0.2981   0.7612     C
C       0.7559   0.7019   0.2388     C
C       0.7559   0.7019   0.7612     C
C       0.7612   0.2441   0.2981     C
C       0.7612   0.2441   0.7019     C
C       0.7612   0.7559   0.2981     C
C       0.7612   0.7559   0.7019     C
H       0.7636     0.41   0.2158     H
H       0.7636     0.41   0.7842     H
H       0.7636     0.59   0.2158     H
H       0.7636     0.59   0.7842     H
H       0.7671   0.1519   0.4037     H
H       0.7671   0.1519   0.5963     H
H       0.7671   0.8481   0.4037     H
H       0.7671   0.8481   0.5963     H
H       0.7756     0.33   0.1526     H
H       0.7756     0.33   0.8474     H
H       0.7756     0.67   0.1526     H
H       0.7756     0.67   0.8474     H
C        0.776    0.253   0.3832     C
C        0.776    0.253   0.6168     C
C        0.776    0.747   0.3832     C
C        0.776    0.747   0.6168     C
C       0.7772   0.2812   0.2773     C
C       0.7772   0.2812   0.7227     C
C       0.7772   0.7188   0.2773     C
C       0.7772   0.7188   0.7227     C
C       0.7788   0.3409   0.2206     C
C       0.7788   0.3409   0.7794     C
C       0.7788   0.6591   0.2206     C
C       0.7788   0.6591   0.7794     C
C       0.7794   0.2212   0.3409     C
C       0.7794   0.2212   0.6591     C
C       0.7794   0.7788   0.3409     C
C       0.7794   0.7788   0.6591     C
H       0.7842   0.2364     0.41     H
H       0.7842   0.2364     0.59     H
H       0.7842   0.7636     0.41     H
H       0.7842   0.7636     0.59     H
H       0.7968   0.2778   0.3799     H
H       0.7968   0.2778   0.6201     H
H       0.7968   0.7222   0.3799     H
H       0.7968   0.7222   0.6201     H
C       0.7997   0.3339   0.1741     C
C       0.7997   0.3339   0.8259     C
C       0.7997   0.6661   0.1741     C
C       0.7997   0.6661   0.8259     C
H       0.8071   0.1459    0.297     H
H       0.8071   0.1459    0.703     H
H       0.8071   0.8541    0.297     H
H       0.8071   0.8541    0.703     H
O      0.81348  0.03747      0.5     O
O      0.81348  0.96253      0.5     O
H       0.8148   0.2672   0.1749     H
H       0.8148   0.2672   0.8251     H
H       0.8148   0.7328   0.1749     H
H       0.8148   0.7328   0.8251     H
C       0.8156   0.3455   0.2539     C
C       0.8156   0.3455   0.7461     C
C       0.8156   0.6545   0.2539     C
C       0.8156   0.6545   0.7461     C
H       0.8157    0.361   0.1659     H
H       0.8157    0.361   0.8341     H
H       0.8157    0.639   0.1659     H
H       0.8157    0.639   0.8341     H
C       0.8177   0.3126   0.2859     C
C       0.8177   0.3126   0.7141     C
C       0.8177   0.6874   0.2859     C
C       0.8177   0.6874   0.7141     C
H       0.8251   0.1852   0.2672     H
H       0.8251   0.1852   0.7328     H
H       0.8251   0.8148   0.2672     H
H       0.8251   0.8148   0.7328     H
C       0.8259   0.2003   0.3339     C
C       0.8259   0.2003   0.6661     C
C       0.8259   0.7997   0.3339     C
C       0.8259   0.7997   0.6661     C
C       0.8304   0.1685   0.2946     C
C       0.8304   0.1685   0.7054     C
C       0.8304   0.8315   0.2946     C
C       0.8304   0.8315   0.7054     C
C       0.8315   0.2946   0.1696     C
C       0.8315   0.2946   0.8304     C
C       0.8315   0.7054   0.1696     C
C       0.8315   0.7054   0.8304     C
C       0.8323      0.0      0.5     C
H       0.8341   0.1843    0.361     H
H       0.8341   0.1843    0.639     H
H       0.8341   0.8157    0.361     H
H       0.8341   0.8157    0.639     H
H       0.8346   0.2875   0.0988     H
H       0.8346   0.2875   0.9012     H
H       0.8346   0.7125   0.0988     H
H       0.8346   0.7125   0.9012     H
H       0.8474   0.2244     0.33     H
H       0.8474   0.2244     0.67     H
H       0.8474   0.7756     0.33     H
H       0.8474   0.7756     0.67     H
H       0.8481   0.4037   0.2329     H
H       0.8481   0.4037   0.7671     H
H       0.8481   0.5963   0.2329     H
H       0.8481   0.5963   0.7671     H
C       0.8489   0.3807    0.254     C
C       0.8489   0.3807    0.746     C
C       0.8489   0.6193    0.254     C
C       0.8489   0.6193    0.746     C
C       0.8507   0.3119   0.3184     C
C       0.8507   0.3119   0.6816     C
C       0.8507   0.6881   0.3184     C
C       0.8507   0.6881   0.6816     C
H       0.8513   0.2894     0.34     H
H       0.8513   0.2894     0.66     H
H       0.8513   0.7106     0.34     H
H       0.8513   0.7106     0.66     H
H       0.8541    0.297   0.1929     H
H       0.8541    0.297   0.8071     H
H       0.8541    0.703   0.1929     H
H       0.8541    0.703   0.8071     H
C       0.8565   0.2903   0.1222     C
C       0.8565   0.2903   0.8778     C
C       0.8565   0.7097   0.1222     C
C       0.8565   0.7097   0.8778     C
H       0.8744   0.3166   0.1171     H
H       0.8744   0.3166   0.8829     H
H       0.8744   0.6834   0.1171     H
H       0.8744   0.6834   0.8829     H
H       0.8755   0.2643   0.1224     H
H       0.8755   0.2643   0.8776     H
H       0.8755   0.7357   0.1224     H
H       0.8755   0.7357   0.8776     H
H       0.8776   0.1245   0.2643     H
H       0.8776   0.1245   0.7357     H
H       0.8776   0.8755   0.2643     H
H       0.8776   0.8755   0.7357     H
C       0.8778   0.1435   0.2903     C
C       0.8778   0.1435   0.7097     C
C       0.8778   0.8565   0.2903     C
C       0.8778   0.8565   0.7097     C
C       0.8814   0.3792   0.2859     C
C       0.8814   0.3792   0.7141     C
C       0.8814   0.6208   0.2859     C
C       0.8814   0.6208   0.7141     C
C       0.8823      0.0      0.5     C
C       0.8827   0.3451   0.3179     C
C       0.8827   0.3451   0.6821     C
C       0.8827   0.6549   0.3179     C
C       0.8827   0.6549   0.6821     C
H       0.8829   0.1256   0.3166     H
H       0.8829   0.1256   0.6834     H
H       0.8829   0.8744   0.3166     H
H       0.8829   0.8744   0.6834     H
H       0.8909   0.0666      0.5     H
H       0.8909   0.9334      0.5     H
H       0.9012   0.1654   0.2875     H
H       0.9012   0.1654   0.7125     H
H       0.9012   0.8346   0.2875     H
H       0.9012   0.8346   0.7125     H
H       0.9055   0.3448   0.3393     H
H       0.9055   0.3448   0.6607     H
H       0.9055   0.6552   0.3393     H
H       0.9055   0.6552   0.6607     H
C       0.9058   0.0392      0.5     C
C       0.9058   0.9608      0.5     C
O      0.91118  0.44743  0.25908     O
O      0.91118  0.44743  0.74092     O
O      0.91118  0.55257  0.25908     O
O      0.91118  0.55257  0.74092     O
C      0.91653  0.41513  0.28644     C
C      0.91653  0.41513  0.71356     C
C      0.91653  0.58487  0.28644     C
C      0.91653  0.58487  0.71356     C
H       0.9334      0.5   0.1091     H
H       0.9334      0.5   0.8909     H
H       0.9356      0.5   0.0329     H
H       0.9356      0.5   0.9671     H
Zn     0.94708      0.5  0.24863    Zn
Zn     0.94708      0.5  0.75137    Zn
O      0.94829  0.41015  0.31273     O
O      0.94829  0.41015  0.68727     O
O      0.94829  0.58985  0.31273     O
O      0.94829  0.58985  0.68727     O
C       0.9517   0.0373      0.5     C
C       0.9517   0.9627      0.5     C
C       0.9608      0.5   0.0942     C
C       0.9608      0.5   0.9058     C
O      0.96253      0.5  0.18652     O
O      0.96253      0.5  0.81348     O
C       0.9627      0.5   0.0483     C
C       0.9627      0.5   0.9517     C
H       0.9671   0.0644      0.5     H
H       0.9671   0.9356      0.5     H
C       0.9762      0.0      0.5     C
