data_I
_chemical_name_common  '/Users/gianmarcoterrones/Research/MOFs/MOF_structures/water_stability_work_extra_structs/cleaned_from_CCDC/YUKCAK'
_cell_length_a 29.80620
_cell_length_b 29.80620
_cell_length_c 29.80620
_cell_angle_alpha 90.00000
_cell_angle_beta  90.00000
_cell_angle_gamma 90.00000
_space_group_name_H-M_alt      'P 1'


loop_
_space_group_symop_operation_xyz
  'x, y, z' 

loop_
_atom_site_label
_atom_site_fract_x
_atom_site_fract_y
_atom_site_fract_z
_atom_site_type_symbol
C          0.0   0.0242      0.5     C
C          0.0   0.1183      0.5     C
C          0.0   0.1667      0.5     C
O          0.0    0.286      0.5     O
Zn         0.0  0.32278  0.44645    Zn
Zn         0.0  0.32278  0.55355    Zn
O          0.0  0.38514   0.4628     O
O          0.0  0.38514   0.5372     O
C          0.0   0.4042      0.5     C
C          0.0    0.453      0.5     C
H          0.0   0.4617   0.4328     H
H          0.0   0.4617   0.5672     H
C          0.0   0.4771   0.4599     C
C          0.0   0.4771   0.5401     C
C          0.0   0.5229   0.4599     C
C          0.0   0.5229   0.5401     C
H          0.0   0.5383   0.4328     H
H          0.0   0.5383   0.5672     H
C          0.0    0.547      0.5     C
C          0.0   0.5958      0.5     C
O          0.0  0.61486   0.4628     O
O          0.0  0.61486   0.5372     O
Zn         0.0  0.67722  0.44645    Zn
Zn         0.0  0.67722  0.55355    Zn
O          0.0    0.714      0.5     O
C          0.0   0.8333      0.5     C
C          0.0   0.8817      0.5     C
C          0.0   0.9758      0.5     C
C       0.0242      0.5      0.0     C
H       0.0315      0.5   0.0635     H
H       0.0315      0.5   0.9365     H
C       0.0367   0.0475      0.5     C
C       0.0367   0.9525      0.5     C
O       0.0374   0.1856      0.5     O
O       0.0374   0.8144      0.5     O
C       0.0401   0.0958      0.5     C
C       0.0401   0.9042      0.5     C
C       0.0475      0.5   0.0367     C
C       0.0475      0.5   0.9633     C
O       0.0516  0.31183  0.40976     O
O       0.0516  0.31183  0.59024     O
O       0.0516  0.68817  0.40976     O
O       0.0516  0.68817  0.59024     O
Zn       0.053  0.24849      0.5    Zn
Zn       0.053  0.75151      0.5    Zn
H       0.0635   0.0315      0.5     H
H       0.0635   0.9685      0.5     H
H       0.0676   0.1107      0.5     H
H       0.0676   0.8893      0.5     H
C       0.0827   0.2855   0.4153     C
C       0.0827   0.2855   0.5847     C
C       0.0827   0.7145   0.4153     C
C       0.0827   0.7145   0.5847     C
O      0.08766  0.25881   0.4466     O
O      0.08766  0.25881   0.5534     O
O      0.08766  0.74119   0.4466     O
O      0.08766  0.74119   0.5534     O
H       0.0933   0.3369   0.3434     H
H       0.0933   0.3369   0.6566     H
H       0.0933   0.6631   0.3434     H
H       0.0933   0.6631   0.6566     H
C       0.0958      0.5   0.0401     C
C       0.0958      0.5   0.9599     C
H       0.1016   0.3027   0.1372     H
H       0.1016   0.3027   0.8628     H
H       0.1016   0.6973   0.1372     H
H       0.1016   0.6973   0.8628     H
H       0.1031   0.2663   0.1752     H
H       0.1031   0.2663   0.8248     H
H       0.1031   0.7337   0.1752     H
H       0.1031   0.7337   0.8248     H
H       0.1107      0.5   0.0676     H
H       0.1107      0.5   0.9324     H
C       0.1161   0.3156   0.3437     C
C       0.1161   0.3156   0.6563     C
C       0.1161   0.6844   0.3437     C
C       0.1161   0.6844   0.6563     C
C       0.1173   0.2843   0.3776     C
C       0.1173   0.2843   0.6224     C
C       0.1173   0.7157   0.3776     C
C       0.1173   0.7157   0.6224     C
C       0.1183   0.2779   0.1493     C
C       0.1183   0.2779   0.8507     C
C       0.1183      0.5      0.0     C
C       0.1183   0.7221   0.1493     C
C       0.1183   0.7221   0.8507     C
H       0.1208   0.2548    0.127     H
H       0.1208   0.2548    0.873     H
H       0.1208   0.7452    0.127     H
H       0.1208   0.7452    0.873     H
H        0.127   0.1208   0.2548     H
H        0.127   0.1208   0.7452     H
H        0.127   0.8792   0.2548     H
H        0.127   0.8792   0.7452     H
H       0.1365   0.1824   0.3048     H
H       0.1365   0.1824   0.6952     H
H       0.1365   0.8176   0.3048     H
H       0.1365   0.8176   0.6952     H
H       0.1372   0.1016   0.3027     H
H       0.1372   0.1016   0.6973     H
H       0.1372   0.8984   0.3027     H
H       0.1372   0.8984   0.6973     H
H       0.1469    0.338   0.2883     H
H       0.1469    0.338   0.7117     H
H       0.1469    0.662   0.2883     H
H       0.1469    0.662   0.7117     H
C       0.1475   0.3162   0.3106     C
C       0.1475   0.3162   0.6894     C
C       0.1475   0.6838   0.3106     C
C       0.1475   0.6838   0.6894     C
C       0.1493   0.1183   0.2779     C
C       0.1493   0.1183   0.7221     C
C       0.1493   0.8817   0.2779     C
C       0.1493   0.8817   0.7221     C
C       0.1496   0.2521   0.3783     C
C       0.1496   0.2521   0.6217     C
C       0.1496   0.7479   0.3783     C
C       0.1496   0.7479   0.6217     C
H       0.1502   0.3258   0.2236     H
H       0.1502   0.3258   0.7764     H
H       0.1502   0.6742   0.2236     H
H       0.1502   0.6742   0.7764     H
H       0.1504   0.2311   0.4013     H
H       0.1504   0.2311   0.5987     H
H       0.1504   0.7689   0.4013     H
H       0.1504   0.7689   0.5987     H
H       0.1614   0.3605   0.1857     H
H       0.1614   0.3605   0.8143     H
H       0.1614   0.6395   0.1857     H
H       0.1614   0.6395   0.8143     H
C       0.1634   0.1672   0.2945     C
C       0.1634   0.1672   0.7055     C
C       0.1634   0.8328   0.2945     C
C       0.1634   0.8328   0.7055     C
C       0.1667      0.5      0.0     C
C       0.1672   0.2945   0.1634     C
C       0.1672   0.2945   0.8366     C
C       0.1672   0.7055   0.1634     C
C       0.1672   0.7055   0.8366     C
C       0.1708   0.3325   0.1992     C
C       0.1708   0.3325   0.8008     C
C       0.1708   0.6675   0.1992     C
C       0.1708   0.6675   0.8008     C
H       0.1744   0.1836   0.2687     H
H       0.1744   0.1836   0.7313     H
H       0.1744   0.8164   0.2687     H
H       0.1744   0.8164   0.7313     H
H       0.1752   0.1031   0.2663     H
H       0.1752   0.1031   0.7337     H
H       0.1752   0.8969   0.2663     H
H       0.1752   0.8969   0.7337     H
C       0.1802   0.2834    0.311     C
C       0.1802   0.2834    0.689     C
C       0.1802   0.7166    0.311     C
C       0.1802   0.7166    0.689     C
H       0.1824   0.3048   0.1365     H
H       0.1824   0.3048   0.8635     H
H       0.1824   0.6952   0.1365     H
H       0.1824   0.6952   0.8635     H
C       0.1828   0.2509    0.343     C
C       0.1828   0.2509    0.657     C
C       0.1828   0.7491    0.343     C
C       0.1828   0.7491    0.657     C
H       0.1836   0.2687   0.1744     H
H       0.1836   0.2687   0.8256     H
H       0.1836   0.7313   0.1744     H
H       0.1836   0.7313   0.8256     H
O       0.1856      0.5   0.0374     O
O       0.1856      0.5   0.9626     O
H       0.1857   0.1614   0.3605     H
H       0.1857   0.1614   0.6395     H
H       0.1857   0.8386   0.3605     H
H       0.1857   0.8386   0.6395     H
H       0.1991   0.3743   0.2746     H
H       0.1991   0.3743   0.7254     H
H       0.1991   0.6257   0.2746     H
H       0.1991   0.6257   0.7254     H
C       0.1992   0.1708   0.3325     C
C       0.1992   0.1708   0.6675     C
C       0.1992   0.8292   0.3325     C
C       0.1992   0.8292   0.6675     C
H       0.2113   0.4054   0.2341     H
H       0.2113   0.4054   0.7659     H
H       0.2113   0.5946   0.2341     H
H       0.2113   0.5946   0.7659     H
C       0.2182   0.3383   0.2186     C
C       0.2182   0.3383   0.7814     C
C       0.2182   0.6617   0.2186     C
C       0.2182   0.6617   0.7814     C
C       0.2186   0.2182   0.3383     C
C       0.2186   0.2182   0.6617     C
C       0.2186   0.7818   0.3383     C
C       0.2186   0.7818   0.6617     C
C       0.2193   0.2745   0.2787     C
C       0.2193   0.2745   0.7213     C
C       0.2193   0.7255   0.2787     C
C       0.2193   0.7255   0.7213     C
C       0.2205   0.3789   0.2505     C
C       0.2205   0.3789   0.7495     C
C       0.2205   0.6211   0.2505     C
C       0.2205   0.6211   0.7495     C
H       0.2236   0.1502   0.3258     H
H       0.2236   0.1502   0.6742     H
H       0.2236   0.8498   0.3258     H
H       0.2236   0.8498   0.6742     H
H       0.2311   0.4013   0.1504     H
H       0.2311   0.4013   0.8496     H
H       0.2311   0.5987   0.1504     H
H       0.2311   0.5987   0.8496     H
H       0.2341   0.2113   0.4054     H
H       0.2341   0.2113   0.5946     H
H       0.2341   0.7887   0.4054     H
H       0.2341   0.7887   0.5946     H
C       0.2361   0.2956   0.2413     C
C       0.2361   0.2956   0.7587     C
C       0.2361   0.7044   0.2413     C
C       0.2361   0.7044   0.7587     C
C       0.2413   0.2361   0.2956     C
C       0.2413   0.2361   0.7044     C
C       0.2413   0.7639   0.2956     C
C       0.2413   0.7639   0.7044     C
H       0.2479   0.2896   0.3948     H
H       0.2479   0.2896   0.6052     H
H       0.2479   0.7104   0.3948     H
H       0.2479   0.7104   0.6052     H
Zn     0.24849      0.5    0.053    Zn
Zn     0.24849      0.5    0.947    Zn
C       0.2505   0.2205   0.3789     C
C       0.2505   0.2205   0.6211     C
C       0.2505   0.7795   0.3789     C
C       0.2505   0.7795   0.6211     C
C       0.2509    0.343   0.1828     C
C       0.2509    0.343   0.8172     C
C       0.2509    0.657   0.1828     C
C       0.2509    0.657   0.8172     C
C       0.2521   0.3783   0.1496     C
C       0.2521   0.3783   0.8504     C
C       0.2521   0.6217   0.1496     C
C       0.2521   0.6217   0.8504     C
H       0.2532   0.4203   0.3326     H
H       0.2532   0.4203   0.6674     H
H       0.2532   0.5797   0.3326     H
H       0.2532   0.5797   0.6674     H
H       0.2548    0.127   0.1208     H
H       0.2548    0.127   0.8792     H
H       0.2548    0.873   0.1208     H
H       0.2548    0.873   0.8792     H
O      0.25881   0.4466  0.08766     O
O      0.25881   0.4466  0.91234     O
O      0.25881   0.5534  0.08766     O
O      0.25881   0.5534  0.91234     O
H       0.2648   0.4546   0.2945     H
H       0.2648   0.4546   0.7055     H
H       0.2648   0.5454   0.2945     H
H       0.2648   0.5454   0.7055     H
H       0.2663   0.1752   0.1031     H
H       0.2663   0.1752   0.8969     H
H       0.2663   0.8248   0.1031     H
H       0.2663   0.8248   0.8969     H
H       0.2687   0.1744   0.1836     H
H       0.2687   0.1744   0.8164     H
H       0.2687   0.8256   0.1836     H
H       0.2687   0.8256   0.8164     H
C       0.2689   0.3881   0.2722     C
C       0.2689   0.3881   0.7278     C
C       0.2689   0.6119   0.2722     C
C       0.2689   0.6119   0.7278     C
C       0.2722   0.2689   0.3881     C
C       0.2722   0.2689   0.6119     C
C       0.2722   0.7311   0.3881     C
C       0.2722   0.7311   0.6119     C
C       0.2729   0.4265   0.3079     C
C       0.2729   0.4265   0.6921     C
C       0.2729   0.5735   0.3079     C
C       0.2729   0.5735   0.6921     C
C       0.2745   0.2787   0.2193     C
C       0.2745   0.2787   0.7807     C
C       0.2745   0.7213   0.2193     C
C       0.2745   0.7213   0.7807     C
H       0.2746   0.1991   0.3743     H
H       0.2746   0.1991   0.6257     H
H       0.2746   0.8009   0.3743     H
H       0.2746   0.8009   0.6257     H
C       0.2779   0.1493   0.1183     C
C       0.2779   0.1493   0.8817     C
C       0.2779   0.8507   0.1183     C
C       0.2779   0.8507   0.8817     C
C       0.2787   0.2193   0.2745     C
C       0.2787   0.2193   0.7255     C
C       0.2787   0.7807   0.2745     C
C       0.2787   0.7807   0.7255     C
H       0.2791   0.3604    0.286     H
H       0.2791   0.3604    0.714     H
H       0.2791   0.6396    0.286     H
H       0.2791   0.6396    0.714     H
C       0.2834    0.311   0.1802     C
C       0.2834    0.311   0.8198     C
C       0.2834    0.689   0.1802     C
C       0.2834    0.689   0.8198     C
C       0.2843   0.3776   0.1173     C
C       0.2843   0.3776   0.8827     C
C       0.2843   0.6224   0.1173     C
C       0.2843   0.6224   0.8827     C
C       0.2855   0.4153   0.0827     C
C       0.2855   0.4153   0.9173     C
C       0.2855   0.5847   0.0827     C
C       0.2855   0.5847   0.9173     C
H        0.286   0.2791   0.3604     H
H        0.286   0.2791   0.6396     H
O        0.286      0.5      0.0     O
H        0.286   0.7209   0.3604     H
H        0.286   0.7209   0.6396     H
H       0.2883   0.1469    0.338     H
H       0.2883   0.1469    0.662     H
H       0.2883   0.8531    0.338     H
H       0.2883   0.8531    0.662     H
H       0.2896   0.3948   0.2479     H
H       0.2896   0.3948   0.7521     H
H       0.2896   0.6052   0.2479     H
H       0.2896   0.6052   0.7521     H
C       0.2945   0.1634   0.1672     C
C       0.2945   0.1634   0.8328     C
H       0.2945   0.2648   0.4546     H
H       0.2945   0.2648   0.5454     H
H       0.2945   0.7352   0.4546     H
H       0.2945   0.7352   0.5454     H
C       0.2945   0.8366   0.1672     C
C       0.2945   0.8366   0.8328     C
C       0.2956   0.2413   0.2361     C
C       0.2956   0.2413   0.7639     C
C       0.2956   0.7587   0.2361     C
C       0.2956   0.7587   0.7639     C
H       0.3027   0.1372   0.1016     H
H       0.3027   0.1372   0.8984     H
H       0.3027   0.8628   0.1016     H
H       0.3027   0.8628   0.8984     H
H       0.3033   0.4281   0.3186     H
H       0.3033   0.4281   0.6814     H
H       0.3033   0.5719   0.3186     H
H       0.3033   0.5719   0.6814     H
H       0.3048   0.1365   0.1824     H
H       0.3048   0.1365   0.8176     H
H       0.3048   0.8635   0.1824     H
H       0.3048   0.8635   0.8176     H
C       0.3079   0.2729   0.4265     C
C       0.3079   0.2729   0.5735     C
C       0.3079   0.7271   0.4265     C
C       0.3079   0.7271   0.5735     C
C       0.3106   0.1475   0.3162     C
C       0.3106   0.1475   0.6838     C
C       0.3106   0.8525   0.3162     C
C       0.3106   0.8525   0.6838     C
C        0.311   0.1802   0.2834     C
C        0.311   0.1802   0.7166     C
C        0.311   0.8198   0.2834     C
C        0.311   0.8198   0.7166     C
O      0.31183  0.40976   0.0516     O
O      0.31183  0.40976   0.9484     O
O      0.31183  0.59024   0.0516     O
O      0.31183  0.59024   0.9484     O
C       0.3156   0.3437   0.1161     C
C       0.3156   0.3437   0.8839     C
C       0.3156   0.6563   0.1161     C
C       0.3156   0.6563   0.8839     C
C       0.3162   0.3106   0.1475     C
C       0.3162   0.3106   0.8525     C
C       0.3162   0.6894   0.1475     C
C       0.3162   0.6894   0.8525     C
H       0.3186   0.3033   0.4281     H
H       0.3186   0.3033   0.5719     H
H       0.3186   0.6967   0.4281     H
H       0.3186   0.6967   0.5719     H
Zn     0.32278  0.44645      0.0    Zn
Zn     0.32278  0.55355      0.0    Zn
H       0.3258   0.2236   0.1502     H
H       0.3258   0.2236   0.8498     H
H       0.3258   0.7764   0.1502     H
H       0.3258   0.7764   0.8498     H
C       0.3325   0.1992   0.1708     C
C       0.3325   0.1992   0.8292     C
C       0.3325   0.8008   0.1708     C
C       0.3325   0.8008   0.8292     C
H       0.3326   0.2532   0.4203     H
H       0.3326   0.2532   0.5797     H
H       0.3326   0.7468   0.4203     H
H       0.3326   0.7468   0.5797     H
H       0.3369   0.3434   0.0933     H
H       0.3369   0.3434   0.9067     H
H       0.3369   0.6566   0.0933     H
H       0.3369   0.6566   0.9067     H
H        0.338   0.2883   0.1469     H
H        0.338   0.2883   0.8531     H
H        0.338   0.7117   0.1469     H
H        0.338   0.7117   0.8531     H
C       0.3383   0.2186   0.2182     C
C       0.3383   0.2186   0.7818     C
C       0.3383   0.7814   0.2182     C
C       0.3383   0.7814   0.7818     C
C        0.343   0.1828   0.2509     C
C        0.343   0.1828   0.7491     C
C        0.343   0.8172   0.2509     C
C        0.343   0.8172   0.7491     C
H       0.3434   0.0933   0.3369     H
H       0.3434   0.0933   0.6631     H
H       0.3434   0.9067   0.3369     H
H       0.3434   0.9067   0.6631     H
C       0.3437   0.1161   0.3156     C
C       0.3437   0.1161   0.6844     C
C       0.3437   0.8839   0.3156     C
C       0.3437   0.8839   0.6844     C
H       0.3604    0.286   0.2791     H
H       0.3604    0.286   0.7209     H
H       0.3604    0.714   0.2791     H
H       0.3604    0.714   0.7209     H
H       0.3605   0.1857   0.1614     H
H       0.3605   0.1857   0.8386     H
H       0.3605   0.8143   0.1614     H
H       0.3605   0.8143   0.8386     H
H       0.3743   0.2746   0.1991     H
H       0.3743   0.2746   0.8009     H
H       0.3743   0.7254   0.1991     H
H       0.3743   0.7254   0.8009     H
C       0.3776   0.1173   0.2843     C
C       0.3776   0.1173   0.7157     C
C       0.3776   0.8827   0.2843     C
C       0.3776   0.8827   0.7157     C
C       0.3783   0.1496   0.2521     C
C       0.3783   0.1496   0.7479     C
C       0.3783   0.8504   0.2521     C
C       0.3783   0.8504   0.7479     C
C       0.3789   0.2505   0.2205     C
C       0.3789   0.2505   0.7795     C
C       0.3789   0.7495   0.2205     C
C       0.3789   0.7495   0.7795     C
O      0.38514   0.4628      0.0     O
O      0.38514   0.5372      0.0     O
C       0.3881   0.2722   0.2689     C
C       0.3881   0.2722   0.7311     C
C       0.3881   0.7278   0.2689     C
C       0.3881   0.7278   0.7311     C
H       0.3948   0.2479   0.2896     H
H       0.3948   0.2479   0.7104     H
H       0.3948   0.7521   0.2896     H
H       0.3948   0.7521   0.7104     H
H       0.4013   0.1504   0.2311     H
H       0.4013   0.1504   0.7689     H
H       0.4013   0.8496   0.2311     H
H       0.4013   0.8496   0.7689     H
C       0.4042      0.5      0.0     C
H       0.4054   0.2341   0.2113     H
H       0.4054   0.2341   0.7887     H
H       0.4054   0.7659   0.2113     H
H       0.4054   0.7659   0.7887     H
O      0.40976   0.0516  0.31183     O
O      0.40976   0.0516  0.68817     O
O      0.40976   0.9484  0.31183     O
O      0.40976   0.9484  0.68817     O
C       0.4153   0.0827   0.2855     C
C       0.4153   0.0827   0.7145     C
C       0.4153   0.9173   0.2855     C
C       0.4153   0.9173   0.7145     C
H       0.4203   0.3326   0.2532     H
H       0.4203   0.3326   0.7468     H
H       0.4203   0.6674   0.2532     H
H       0.4203   0.6674   0.7468     H
C       0.4265   0.3079   0.2729     C
C       0.4265   0.3079   0.7271     C
C       0.4265   0.6921   0.2729     C
C       0.4265   0.6921   0.7271     C
H       0.4281   0.3186   0.3033     H
H       0.4281   0.3186   0.6967     H
H       0.4281   0.6814   0.3033     H
H       0.4281   0.6814   0.6967     H
H       0.4328      0.0   0.4617     H
H       0.4328      0.0   0.5383     H
Zn     0.44645      0.0  0.32278    Zn
Zn     0.44645      0.0  0.67722    Zn
O       0.4466  0.08766  0.25881     O
O       0.4466  0.08766  0.74119     O
O       0.4466  0.91234  0.25881     O
O       0.4466  0.91234  0.74119     O
C        0.453      0.5      0.0     C
H       0.4546   0.2945   0.2648     H
H       0.4546   0.2945   0.7352     H
H       0.4546   0.7055   0.2648     H
H       0.4546   0.7055   0.7352     H
C       0.4599      0.0   0.4771     C
C       0.4599      0.0   0.5229     C
H       0.4617   0.4328      0.0     H
H       0.4617   0.5672      0.0     H
O       0.4628      0.0  0.38514     O
O       0.4628      0.0  0.61486     O
C       0.4771   0.4599      0.0     C
C       0.4771   0.5401      0.0     C
C          0.5      0.0   0.0242     C
C          0.5      0.0   0.1183     C
C          0.5      0.0   0.1667     C
O          0.5      0.0    0.286     O
C          0.5      0.0   0.4042     C
C          0.5      0.0    0.453     C
C          0.5      0.0    0.547     C
C          0.5      0.0   0.5958     C
O          0.5      0.0    0.714     O
C          0.5      0.0   0.8333     C
C          0.5      0.0   0.8817     C
C          0.5      0.0   0.9758     C
C          0.5   0.0367   0.0475     C
C          0.5   0.0367   0.9525     C
O          0.5   0.0374   0.1856     O
O          0.5   0.0374   0.8144     O
C          0.5   0.0401   0.0958     C
C          0.5   0.0401   0.9042     C
Zn         0.5    0.053  0.24849    Zn
Zn         0.5    0.053  0.75151    Zn
H          0.5   0.0635   0.0315     H
H          0.5   0.0635   0.9685     H
H          0.5   0.0676   0.1107     H
H          0.5   0.0676   0.8893     H
H          0.5   0.9324   0.1107     H
H          0.5   0.9324   0.8893     H
H          0.5   0.9365   0.0315     H
H          0.5   0.9365   0.9685     H
Zn         0.5    0.947  0.24849    Zn
Zn         0.5    0.947  0.75151    Zn
C          0.5   0.9599   0.0958     C
C          0.5   0.9599   0.9042     C
O          0.5   0.9626   0.1856     O
O          0.5   0.9626   0.8144     O
C          0.5   0.9633   0.0475     C
C          0.5   0.9633   0.9525     C
C       0.5229   0.4599      0.0     C
C       0.5229   0.5401      0.0     C
O       0.5372      0.0  0.38514     O
O       0.5372      0.0  0.61486     O
H       0.5383   0.4328      0.0     H
H       0.5383   0.5672      0.0     H
C       0.5401      0.0   0.4771     C
C       0.5401      0.0   0.5229     C
H       0.5454   0.2945   0.2648     H
H       0.5454   0.2945   0.7352     H
H       0.5454   0.7055   0.2648     H
H       0.5454   0.7055   0.7352     H
C        0.547      0.5      0.0     C
O       0.5534  0.08766  0.25881     O
O       0.5534  0.08766  0.74119     O
O       0.5534  0.91234  0.25881     O
O       0.5534  0.91234  0.74119     O
Zn     0.55355      0.0  0.32278    Zn
Zn     0.55355      0.0  0.67722    Zn
H       0.5672      0.0   0.4617     H
H       0.5672      0.0   0.5383     H
H       0.5719   0.3186   0.3033     H
H       0.5719   0.3186   0.6967     H
H       0.5719   0.6814   0.3033     H
H       0.5719   0.6814   0.6967     H
C       0.5735   0.3079   0.2729     C
C       0.5735   0.3079   0.7271     C
C       0.5735   0.6921   0.2729     C
C       0.5735   0.6921   0.7271     C
H       0.5797   0.3326   0.2532     H
H       0.5797   0.3326   0.7468     H
H       0.5797   0.6674   0.2532     H
H       0.5797   0.6674   0.7468     H
C       0.5847   0.0827   0.2855     C
C       0.5847   0.0827   0.7145     C
C       0.5847   0.9173   0.2855     C
C       0.5847   0.9173   0.7145     C
O      0.59024   0.0516  0.31183     O
O      0.59024   0.0516  0.68817     O
O      0.59024   0.9484  0.31183     O
O      0.59024   0.9484  0.68817     O
H       0.5946   0.2341   0.2113     H
H       0.5946   0.2341   0.7887     H
H       0.5946   0.7659   0.2113     H
H       0.5946   0.7659   0.7887     H
C       0.5958      0.5      0.0     C
H       0.5987   0.1504   0.2311     H
H       0.5987   0.1504   0.7689     H
H       0.5987   0.8496   0.2311     H
H       0.5987   0.8496   0.7689     H
H       0.6052   0.2479   0.2896     H
H       0.6052   0.2479   0.7104     H
H       0.6052   0.7521   0.2896     H
H       0.6052   0.7521   0.7104     H
C       0.6119   0.2722   0.2689     C
C       0.6119   0.2722   0.7311     C
C       0.6119   0.7278   0.2689     C
C       0.6119   0.7278   0.7311     C
O      0.61486   0.4628      0.0     O
O      0.61486   0.5372      0.0     O
C       0.6211   0.2505   0.2205     C
C       0.6211   0.2505   0.7795     C
C       0.6211   0.7495   0.2205     C
C       0.6211   0.7495   0.7795     C
C       0.6217   0.1496   0.2521     C
C       0.6217   0.1496   0.7479     C
C       0.6217   0.8504   0.2521     C
C       0.6217   0.8504   0.7479     C
C       0.6224   0.1173   0.2843     C
C       0.6224   0.1173   0.7157     C
C       0.6224   0.8827   0.2843     C
C       0.6224   0.8827   0.7157     C
H       0.6257   0.2746   0.1991     H
H       0.6257   0.2746   0.8009     H
H       0.6257   0.7254   0.1991     H
H       0.6257   0.7254   0.8009     H
H       0.6395   0.1857   0.1614     H
H       0.6395   0.1857   0.8386     H
H       0.6395   0.8143   0.1614     H
H       0.6395   0.8143   0.8386     H
H       0.6396    0.286   0.2791     H
H       0.6396    0.286   0.7209     H
H       0.6396    0.714   0.2791     H
H       0.6396    0.714   0.7209     H
C       0.6563   0.1161   0.3156     C
C       0.6563   0.1161   0.6844     C
C       0.6563   0.8839   0.3156     C
C       0.6563   0.8839   0.6844     C
H       0.6566   0.0933   0.3369     H
H       0.6566   0.0933   0.6631     H
H       0.6566   0.9067   0.3369     H
H       0.6566   0.9067   0.6631     H
C        0.657   0.1828   0.2509     C
C        0.657   0.1828   0.7491     C
C        0.657   0.8172   0.2509     C
C        0.657   0.8172   0.7491     C
C       0.6617   0.2186   0.2182     C
C       0.6617   0.2186   0.7818     C
C       0.6617   0.7814   0.2182     C
C       0.6617   0.7814   0.7818     C
H        0.662   0.2883   0.1469     H
H        0.662   0.2883   0.8531     H
H        0.662   0.7117   0.1469     H
H        0.662   0.7117   0.8531     H
H       0.6631   0.3434   0.0933     H
H       0.6631   0.3434   0.9067     H
H       0.6631   0.6566   0.0933     H
H       0.6631   0.6566   0.9067     H
H       0.6674   0.2532   0.4203     H
H       0.6674   0.2532   0.5797     H
H       0.6674   0.7468   0.4203     H
H       0.6674   0.7468   0.5797     H
C       0.6675   0.1992   0.1708     C
C       0.6675   0.1992   0.8292     C
C       0.6675   0.8008   0.1708     C
C       0.6675   0.8008   0.8292     C
H       0.6742   0.2236   0.1502     H
H       0.6742   0.2236   0.8498     H
H       0.6742   0.7764   0.1502     H
H       0.6742   0.7764   0.8498     H
Zn     0.67722  0.44645      0.0    Zn
Zn     0.67722  0.55355      0.0    Zn
H       0.6814   0.3033   0.4281     H
H       0.6814   0.3033   0.5719     H
H       0.6814   0.6967   0.4281     H
H       0.6814   0.6967   0.5719     H
C       0.6838   0.3106   0.1475     C
C       0.6838   0.3106   0.8525     C
C       0.6838   0.6894   0.1475     C
C       0.6838   0.6894   0.8525     C
C       0.6844   0.3437   0.1161     C
C       0.6844   0.3437   0.8839     C
C       0.6844   0.6563   0.1161     C
C       0.6844   0.6563   0.8839     C
O      0.68817  0.40976   0.0516     O
O      0.68817  0.40976   0.9484     O
O      0.68817  0.59024   0.0516     O
O      0.68817  0.59024   0.9484     O
C        0.689   0.1802   0.2834     C
C        0.689   0.1802   0.7166     C
C        0.689   0.8198   0.2834     C
C        0.689   0.8198   0.7166     C
C       0.6894   0.1475   0.3162     C
C       0.6894   0.1475   0.6838     C
C       0.6894   0.8525   0.3162     C
C       0.6894   0.8525   0.6838     C
C       0.6921   0.2729   0.4265     C
C       0.6921   0.2729   0.5735     C
C       0.6921   0.7271   0.4265     C
C       0.6921   0.7271   0.5735     C
H       0.6952   0.1365   0.1824     H
H       0.6952   0.1365   0.8176     H
H       0.6952   0.8635   0.1824     H
H       0.6952   0.8635   0.8176     H
H       0.6967   0.4281   0.3186     H
H       0.6967   0.4281   0.6814     H
H       0.6967   0.5719   0.3186     H
H       0.6967   0.5719   0.6814     H
H       0.6973   0.1372   0.1016     H
H       0.6973   0.1372   0.8984     H
H       0.6973   0.8628   0.1016     H
H       0.6973   0.8628   0.8984     H
C       0.7044   0.2413   0.2361     C
C       0.7044   0.2413   0.7639     C
C       0.7044   0.7587   0.2361     C
C       0.7044   0.7587   0.7639     C
C       0.7055   0.1634   0.1672     C
C       0.7055   0.1634   0.8328     C
H       0.7055   0.2648   0.4546     H
H       0.7055   0.2648   0.5454     H
H       0.7055   0.7352   0.4546     H
H       0.7055   0.7352   0.5454     H
C       0.7055   0.8366   0.1672     C
C       0.7055   0.8366   0.8328     C
H       0.7104   0.3948   0.2479     H
H       0.7104   0.3948   0.7521     H
H       0.7104   0.6052   0.2479     H
H       0.7104   0.6052   0.7521     H
H       0.7117   0.1469    0.338     H
H       0.7117   0.1469    0.662     H
H       0.7117   0.8531    0.338     H
H       0.7117   0.8531    0.662     H
H        0.714   0.2791   0.3604     H
H        0.714   0.2791   0.6396     H
O        0.714      0.5      0.0     O
H        0.714   0.7209   0.3604     H
H        0.714   0.7209   0.6396     H
C       0.7145   0.4153   0.0827     C
C       0.7145   0.4153   0.9173     C
C       0.7145   0.5847   0.0827     C
C       0.7145   0.5847   0.9173     C
C       0.7157   0.3776   0.1173     C
C       0.7157   0.3776   0.8827     C
C       0.7157   0.6224   0.1173     C
C       0.7157   0.6224   0.8827     C
C       0.7166    0.311   0.1802     C
C       0.7166    0.311   0.8198     C
C       0.7166    0.689   0.1802     C
C       0.7166    0.689   0.8198     C
H       0.7209   0.3604    0.286     H
H       0.7209   0.3604    0.714     H
H       0.7209   0.6396    0.286     H
H       0.7209   0.6396    0.714     H
C       0.7213   0.2193   0.2745     C
C       0.7213   0.2193   0.7255     C
C       0.7213   0.7807   0.2745     C
C       0.7213   0.7807   0.7255     C
C       0.7221   0.1493   0.1183     C
C       0.7221   0.1493   0.8817     C
C       0.7221   0.8507   0.1183     C
C       0.7221   0.8507   0.8817     C
H       0.7254   0.1991   0.3743     H
H       0.7254   0.1991   0.6257     H
H       0.7254   0.8009   0.3743     H
H       0.7254   0.8009   0.6257     H
C       0.7255   0.2787   0.2193     C
C       0.7255   0.2787   0.7807     C
C       0.7255   0.7213   0.2193     C
C       0.7255   0.7213   0.7807     C
C       0.7271   0.4265   0.3079     C
C       0.7271   0.4265   0.6921     C
C       0.7271   0.5735   0.3079     C
C       0.7271   0.5735   0.6921     C
C       0.7278   0.2689   0.3881     C
C       0.7278   0.2689   0.6119     C
C       0.7278   0.7311   0.3881     C
C       0.7278   0.7311   0.6119     C
C       0.7311   0.3881   0.2722     C
C       0.7311   0.3881   0.7278     C
C       0.7311   0.6119   0.2722     C
C       0.7311   0.6119   0.7278     C
H       0.7313   0.1744   0.1836     H
H       0.7313   0.1744   0.8164     H
H       0.7313   0.8256   0.1836     H
H       0.7313   0.8256   0.8164     H
H       0.7337   0.1752   0.1031     H
H       0.7337   0.1752   0.8969     H
H       0.7337   0.8248   0.1031     H
H       0.7337   0.8248   0.8969     H
H       0.7352   0.4546   0.2945     H
H       0.7352   0.4546   0.7055     H
H       0.7352   0.5454   0.2945     H
H       0.7352   0.5454   0.7055     H
O      0.74119   0.4466  0.08766     O
O      0.74119   0.4466  0.91234     O
O      0.74119   0.5534  0.08766     O
O      0.74119   0.5534  0.91234     O
H       0.7452    0.127   0.1208     H
H       0.7452    0.127   0.8792     H
H       0.7452    0.873   0.1208     H
H       0.7452    0.873   0.8792     H
H       0.7468   0.4203   0.3326     H
H       0.7468   0.4203   0.6674     H
H       0.7468   0.5797   0.3326     H
H       0.7468   0.5797   0.6674     H
C       0.7479   0.3783   0.1496     C
C       0.7479   0.3783   0.8504     C
C       0.7479   0.6217   0.1496     C
C       0.7479   0.6217   0.8504     C
C       0.7491    0.343   0.1828     C
C       0.7491    0.343   0.8172     C
C       0.7491    0.657   0.1828     C
C       0.7491    0.657   0.8172     C
C       0.7495   0.2205   0.3789     C
C       0.7495   0.2205   0.6211     C
C       0.7495   0.7795   0.3789     C
C       0.7495   0.7795   0.6211     C
Zn     0.75151      0.5    0.053    Zn
Zn     0.75151      0.5    0.947    Zn
H       0.7521   0.2896   0.3948     H
H       0.7521   0.2896   0.6052     H
H       0.7521   0.7104   0.3948     H
H       0.7521   0.7104   0.6052     H
C       0.7587   0.2361   0.2956     C
C       0.7587   0.2361   0.7044     C
C       0.7587   0.7639   0.2956     C
C       0.7587   0.7639   0.7044     C
C       0.7639   0.2956   0.2413     C
C       0.7639   0.2956   0.7587     C
C       0.7639   0.7044   0.2413     C
C       0.7639   0.7044   0.7587     C
H       0.7659   0.2113   0.4054     H
H       0.7659   0.2113   0.5946     H
H       0.7659   0.7887   0.4054     H
H       0.7659   0.7887   0.5946     H
H       0.7689   0.4013   0.1504     H
H       0.7689   0.4013   0.8496     H
H       0.7689   0.5987   0.1504     H
H       0.7689   0.5987   0.8496     H
H       0.7764   0.1502   0.3258     H
H       0.7764   0.1502   0.6742     H
H       0.7764   0.8498   0.3258     H
H       0.7764   0.8498   0.6742     H
C       0.7795   0.3789   0.2505     C
C       0.7795   0.3789   0.7495     C
C       0.7795   0.6211   0.2505     C
C       0.7795   0.6211   0.7495     C
C       0.7807   0.2745   0.2787     C
C       0.7807   0.2745   0.7213     C
C       0.7807   0.7255   0.2787     C
C       0.7807   0.7255   0.7213     C
C       0.7814   0.2182   0.3383     C
C       0.7814   0.2182   0.6617     C
C       0.7814   0.7818   0.3383     C
C       0.7814   0.7818   0.6617     C
C       0.7818   0.3383   0.2186     C
C       0.7818   0.3383   0.7814     C
C       0.7818   0.6617   0.2186     C
C       0.7818   0.6617   0.7814     C
H       0.7887   0.4054   0.2341     H
H       0.7887   0.4054   0.7659     H
H       0.7887   0.5946   0.2341     H
H       0.7887   0.5946   0.7659     H
C       0.8008   0.1708   0.3325     C
C       0.8008   0.1708   0.6675     C
C       0.8008   0.8292   0.3325     C
C       0.8008   0.8292   0.6675     C
H       0.8009   0.3743   0.2746     H
H       0.8009   0.3743   0.7254     H
H       0.8009   0.6257   0.2746     H
H       0.8009   0.6257   0.7254     H
H       0.8143   0.1614   0.3605     H
H       0.8143   0.1614   0.6395     H
H       0.8143   0.8386   0.3605     H
H       0.8143   0.8386   0.6395     H
O       0.8144      0.5   0.0374     O
O       0.8144      0.5   0.9626     O
H       0.8164   0.2687   0.1744     H
H       0.8164   0.2687   0.8256     H
H       0.8164   0.7313   0.1744     H
H       0.8164   0.7313   0.8256     H
C       0.8172   0.2509    0.343     C
C       0.8172   0.2509    0.657     C
C       0.8172   0.7491    0.343     C
C       0.8172   0.7491    0.657     C
H       0.8176   0.3048   0.1365     H
H       0.8176   0.3048   0.8635     H
H       0.8176   0.6952   0.1365     H
H       0.8176   0.6952   0.8635     H
C       0.8198   0.2834    0.311     C
C       0.8198   0.2834    0.689     C
C       0.8198   0.7166    0.311     C
C       0.8198   0.7166    0.689     C
H       0.8248   0.1031   0.2663     H
H       0.8248   0.1031   0.7337     H
H       0.8248   0.8969   0.2663     H
H       0.8248   0.8969   0.7337     H
H       0.8256   0.1836   0.2687     H
H       0.8256   0.1836   0.7313     H
H       0.8256   0.8164   0.2687     H
H       0.8256   0.8164   0.7313     H
C       0.8292   0.3325   0.1992     C
C       0.8292   0.3325   0.8008     C
C       0.8292   0.6675   0.1992     C
C       0.8292   0.6675   0.8008     C
C       0.8328   0.2945   0.1634     C
C       0.8328   0.2945   0.8366     C
C       0.8328   0.7055   0.1634     C
C       0.8328   0.7055   0.8366     C
C       0.8333      0.5      0.0     C
C       0.8366   0.1672   0.2945     C
C       0.8366   0.1672   0.7055     C
C       0.8366   0.8328   0.2945     C
C       0.8366   0.8328   0.7055     C
H       0.8386   0.3605   0.1857     H
H       0.8386   0.3605   0.8143     H
H       0.8386   0.6395   0.1857     H
H       0.8386   0.6395   0.8143     H
H       0.8496   0.2311   0.4013     H
H       0.8496   0.2311   0.5987     H
H       0.8496   0.7689   0.4013     H
H       0.8496   0.7689   0.5987     H
H       0.8498   0.3258   0.2236     H
H       0.8498   0.3258   0.7764     H
H       0.8498   0.6742   0.2236     H
H       0.8498   0.6742   0.7764     H
C       0.8504   0.2521   0.3783     C
C       0.8504   0.2521   0.6217     C
C       0.8504   0.7479   0.3783     C
C       0.8504   0.7479   0.6217     C
C       0.8507   0.1183   0.2779     C
C       0.8507   0.1183   0.7221     C
C       0.8507   0.8817   0.2779     C
C       0.8507   0.8817   0.7221     C
C       0.8525   0.3162   0.3106     C
C       0.8525   0.3162   0.6894     C
C       0.8525   0.6838   0.3106     C
C       0.8525   0.6838   0.6894     C
H       0.8531    0.338   0.2883     H
H       0.8531    0.338   0.7117     H
H       0.8531    0.662   0.2883     H
H       0.8531    0.662   0.7117     H
H       0.8628   0.1016   0.3027     H
H       0.8628   0.1016   0.6973     H
H       0.8628   0.8984   0.3027     H
H       0.8628   0.8984   0.6973     H
H       0.8635   0.1824   0.3048     H
H       0.8635   0.1824   0.6952     H
H       0.8635   0.8176   0.3048     H
H       0.8635   0.8176   0.6952     H
H        0.873   0.1208   0.2548     H
H        0.873   0.1208   0.7452     H
H        0.873   0.8792   0.2548     H
H        0.873   0.8792   0.7452     H
H       0.8792   0.2548    0.127     H
H       0.8792   0.2548    0.873     H
H       0.8792   0.7452    0.127     H
H       0.8792   0.7452    0.873     H
C       0.8817   0.2779   0.1493     C
C       0.8817   0.2779   0.8507     C
C       0.8817      0.5      0.0     C
C       0.8817   0.7221   0.1493     C
C       0.8817   0.7221   0.8507     C
C       0.8827   0.2843   0.3776     C
C       0.8827   0.2843   0.6224     C
C       0.8827   0.7157   0.3776     C
C       0.8827   0.7157   0.6224     C
C       0.8839   0.3156   0.3437     C
C       0.8839   0.3156   0.6563     C
C       0.8839   0.6844   0.3437     C
C       0.8839   0.6844   0.6563     C
H       0.8893      0.5   0.0676     H
H       0.8893      0.5   0.9324     H
H       0.8969   0.2663   0.1752     H
H       0.8969   0.2663   0.8248     H
H       0.8969   0.7337   0.1752     H
H       0.8969   0.7337   0.8248     H
H       0.8984   0.3027   0.1372     H
H       0.8984   0.3027   0.8628     H
H       0.8984   0.6973   0.1372     H
H       0.8984   0.6973   0.8628     H
C       0.9042      0.5   0.0401     C
C       0.9042      0.5   0.9599     C
H       0.9067   0.3369   0.3434     H
H       0.9067   0.3369   0.6566     H
H       0.9067   0.6631   0.3434     H
H       0.9067   0.6631   0.6566     H
O      0.91234  0.25881   0.4466     O
O      0.91234  0.25881   0.5534     O
O      0.91234  0.74119   0.4466     O
O      0.91234  0.74119   0.5534     O
C       0.9173   0.2855   0.4153     C
C       0.9173   0.2855   0.5847     C
C       0.9173   0.7145   0.4153     C
C       0.9173   0.7145   0.5847     C
H       0.9324   0.1107      0.5     H
H       0.9324   0.8893      0.5     H
H       0.9365   0.0315      0.5     H
H       0.9365   0.9685      0.5     H
Zn       0.947  0.24849      0.5    Zn
Zn       0.947  0.75151      0.5    Zn
O       0.9484  0.31183  0.40976     O
O       0.9484  0.31183  0.59024     O
O       0.9484  0.68817  0.40976     O
O       0.9484  0.68817  0.59024     O
C       0.9525      0.5   0.0367     C
C       0.9525      0.5   0.9633     C
C       0.9599   0.0958      0.5     C
C       0.9599   0.9042      0.5     C
O       0.9626   0.1856      0.5     O
O       0.9626   0.8144      0.5     O
C       0.9633   0.0475      0.5     C
C       0.9633   0.9525      0.5     C
H       0.9685      0.5   0.0635     H
H       0.9685      0.5   0.9365     H
C       0.9758      0.5      0.0     C
