data_I
_chemical_name_common  '/Users/gianmarcoterrones/Research/MOFs/MOF_structures/water_stability_work_extra_structs/cleaned_from_CCDC/YUKMUO'
_cell_length_a 29.95080
_cell_length_b 29.95080
_cell_length_c 29.95080
_cell_angle_alpha 90.00000
_cell_angle_beta  90.00000
_cell_angle_gamma 90.00000
_space_group_name_H-M_alt      'P 1'


loop_
_space_group_symop_operation_xyz
  'x, y, z' 

loop_
_atom_site_label
_atom_site_fract_x
_atom_site_fract_y
_atom_site_fract_z
_atom_site_type_symbol
C          0.0  0.02485      0.5     C
C          0.0  0.11783      0.5     C
C          0.0  0.16747      0.5     C
O          0.0  0.28576      0.5     O
Zn         0.0  0.32269  0.44658    Zn
Zn         0.0  0.32269  0.55342    Zn
O          0.0   0.3851    0.463     O
O          0.0   0.3851    0.537     O
C          0.0  0.40397      0.5     C
C          0.0  0.45384      0.5     C
H          0.0   0.4614   0.4338     H
H          0.0   0.4614   0.5662     H
C          0.0  0.47683  0.46073     C
C          0.0  0.47683  0.53927     C
C          0.0  0.52317  0.46073     C
C          0.0  0.52317  0.53927     C
H          0.0   0.5386   0.4338     H
H          0.0   0.5386   0.5662     H
C          0.0  0.54616      0.5     C
C          0.0  0.59603      0.5     C
O          0.0   0.6149    0.463     O
O          0.0   0.6149    0.537     O
Zn         0.0  0.67731  0.44658    Zn
Zn         0.0  0.67731  0.55342    Zn
O          0.0  0.71424      0.5     O
C          0.0  0.83253      0.5     C
C          0.0  0.88217      0.5     C
C          0.0  0.97515      0.5     C
C      0.02485      0.5      0.0     C
H       0.0331      0.5   0.0647     H
H       0.0331      0.5   0.9353     H
O      0.03703  0.18636      0.5     O
O      0.03703  0.81364      0.5     O
C      0.03765  0.04826      0.5     C
C      0.03765  0.95174      0.5     C
C      0.03796  0.09464      0.5     C
C      0.03796  0.90536      0.5     C
C      0.04826      0.5  0.03765     C
C      0.04826      0.5  0.96235     C
O      0.05243  0.31243  0.41069     O
O      0.05243  0.31243  0.58931     O
O      0.05243  0.68757  0.41069     O
O      0.05243  0.68757  0.58931     O
Zn     0.05306  0.24861      0.5    Zn
Zn     0.05306  0.75139      0.5    Zn
H       0.0647   0.0331      0.5     H
H       0.0647   0.9669      0.5     H
H       0.0651   0.1097      0.5     H
H       0.0651   0.8903      0.5     H
C      0.08417  0.28586  0.41532     C
C      0.08417  0.28586  0.58468     C
C      0.08417  0.71414  0.41532     C
C      0.08417  0.71414  0.58468     C
O      0.08885  0.25901  0.44724     O
O      0.08885  0.25901  0.55276     O
O      0.08885  0.74099  0.44724     O
O      0.08885  0.74099  0.55276     O
C      0.09464      0.5  0.03796     C
C      0.09464      0.5  0.96204     C
H       0.0963   0.3395   0.3465     H
H       0.0963   0.3395   0.6535     H
H       0.0963   0.6605   0.3465     H
H       0.0963   0.6605   0.6535     H
H       0.1097      0.5   0.0651     H
H       0.1097      0.5   0.9349     H
C      0.11783      0.5      0.0     C
C       0.1189  0.31823  0.34672     C
C       0.1189  0.31823  0.65328     C
C       0.1189  0.68177  0.34672     C
C       0.1189  0.68177  0.65328     C
C      0.11938  0.28602  0.37995     C
C      0.11938  0.28602  0.62005     C
C      0.11938  0.71398  0.37995     C
C      0.11938  0.71398  0.62005     C
H       0.1409   0.2928   0.1591     H
H       0.1409   0.2928   0.8409     H
H       0.1409   0.7072   0.1591     H
H       0.1409   0.7072   0.8409     H
H       0.1485   0.1921   0.2947     H
H       0.1485   0.1921   0.7053     H
H       0.1485   0.8079   0.2947     H
H       0.1485   0.8079   0.7053     H
H       0.1511   0.3413    0.292     H
H       0.1511   0.3413    0.708     H
H       0.1511   0.6587    0.292     H
H       0.1511   0.6587    0.708     H
C      0.15148  0.31927  0.31385     C
C      0.15148  0.31927  0.68615     C
C      0.15148  0.68073  0.31385     C
C      0.15148  0.68073  0.68615     C
C      0.15247   0.2544  0.38023     C
C      0.15247   0.2544  0.61977     C
C      0.15247   0.7456  0.38023     C
C      0.15247   0.7456  0.61977     C
H       0.1533   0.2329   0.4026     H
H       0.1533   0.2329   0.5974     H
H       0.1533   0.7671   0.4026     H
H       0.1533   0.7671   0.5974     H
H       0.1536   0.3321   0.2266     H
H       0.1536   0.3321   0.7734     H
H       0.1536   0.6679   0.2266     H
H       0.1536   0.6679   0.7734     H
H       0.1591   0.1409   0.2928     H
H       0.1591   0.1409   0.7072     H
H       0.1591   0.8591   0.2928     H
H       0.1591   0.8591   0.7072     H
H       0.1671    0.361   0.1852     H
H       0.1671    0.361   0.8148     H
H       0.1671    0.639   0.1852     H
H       0.1671    0.639   0.8148     H
C      0.16747      0.5      0.0     C
C      0.17024  0.29329   0.1719     C
C      0.17024  0.29329   0.8281     C
C      0.17024  0.70671   0.1719     C
C      0.17024  0.70671   0.8281     C
C       0.1719  0.17024  0.29329     C
C       0.1719  0.17024  0.70671     C
C       0.1719  0.82976  0.29329     C
C       0.1719  0.82976  0.70671     C
H       0.1748   0.2667   0.1892     H
H       0.1748   0.2667   0.8108     H
H       0.1748   0.7333   0.1892     H
H       0.1748   0.7333   0.8108     H
C      0.17496  0.33469  0.20237     C
C      0.17496  0.33469  0.79763     C
C      0.17496  0.66531  0.20237     C
C      0.17496  0.66531  0.79763     C
C       0.1845  0.28716  0.31401     C
C       0.1845  0.28716  0.68599     C
C       0.1845  0.71284  0.31401     C
C       0.1845  0.71284  0.68599     C
C      0.18499  0.25462  0.34666     C
C      0.18499  0.25462  0.65334     C
C      0.18499  0.74538  0.34666     C
C      0.18499  0.74538  0.65334     C
H       0.1852   0.1671    0.361     H
H       0.1852   0.1671    0.639     H
H       0.1852   0.8329    0.361     H
H       0.1852   0.8329    0.639     H
O      0.18636      0.5  0.03703     O
O      0.18636      0.5  0.96297     O
H       0.1892   0.1748   0.2667     H
H       0.1892   0.1748   0.7333     H
H       0.1892   0.8252   0.2667     H
H       0.1892   0.8252   0.7333     H
H       0.1921   0.2947   0.1485     H
H       0.1921   0.2947   0.8515     H
H       0.1921   0.7053   0.1485     H
H       0.1921   0.7053   0.8515     H
H        0.202   0.3802   0.2761     H
H        0.202   0.3802   0.7239     H
H        0.202   0.6198   0.2761     H
H        0.202   0.6198   0.7239     H
C      0.20237  0.17496  0.33469     C
C      0.20237  0.17496  0.66531     C
C      0.20237  0.82504  0.33469     C
C      0.20237  0.82504  0.66531     C
H       0.2151   0.4092   0.2346     H
H       0.2151   0.4092   0.7654     H
H       0.2151   0.5908   0.2346     H
H       0.2151   0.5908   0.7654     H
C      0.22212  0.34178  0.22261     C
C      0.22212  0.34178  0.77739     C
C      0.22212  0.65822  0.22261     C
C      0.22212  0.65822  0.77739     C
C      0.22261  0.22212  0.34178     C
C      0.22261  0.22212  0.65822     C
C      0.22261  0.77788  0.34178     C
C      0.22261  0.77788  0.65822     C
C      0.22372  0.27829  0.28315     C
C      0.22372  0.27829  0.71685     C
C      0.22372  0.72171  0.28315     C
C      0.22372  0.72171  0.71685     C
C      0.22377  0.38357  0.25234     C
C      0.22377  0.38357  0.74766     C
C      0.22377  0.61643  0.25234     C
C      0.22377  0.61643  0.74766     C
H       0.2266   0.1536   0.3321     H
H       0.2266   0.1536   0.6679     H
H       0.2266   0.8464   0.3321     H
H       0.2266   0.8464   0.6679     H
H       0.2329   0.4026   0.1533     H
H       0.2329   0.4026   0.8467     H
H       0.2329   0.5974   0.1533     H
H       0.2329   0.5974   0.8467     H
H       0.2346   0.2151   0.4092     H
H       0.2346   0.2151   0.5908     H
H       0.2346   0.7849   0.4092     H
H       0.2346   0.7849   0.5908     H
C      0.24013  0.29969  0.24539     C
C      0.24013  0.29969  0.75461     C
C      0.24013  0.70031  0.24539     C
C      0.24013  0.70031  0.75461     C
C      0.24539  0.24013  0.29969     C
C      0.24539  0.24013  0.70031     C
C      0.24539  0.75987  0.29969     C
C      0.24539  0.75987  0.70031     C
Zn     0.24861      0.5  0.05306    Zn
Zn     0.24861      0.5  0.94694    Zn
H         0.25   0.2911   0.3948     H
H         0.25   0.2911   0.6052     H
H         0.25   0.7089   0.3948     H
H         0.25   0.7089   0.6052     H
C      0.25234  0.22377  0.38357     C
C      0.25234  0.22377  0.61643     C
C      0.25234  0.77623  0.38357     C
C      0.25234  0.77623  0.61643     C
C       0.2544  0.38023  0.15247     C
C       0.2544  0.38023  0.84753     C
C       0.2544  0.61977  0.15247     C
C       0.2544  0.61977  0.84753     C
C      0.25462  0.34666  0.18499     C
C      0.25462  0.34666  0.81501     C
C      0.25462  0.65334  0.18499     C
C      0.25462  0.65334  0.81501     C
O      0.25901  0.44724  0.08885     O
O      0.25901  0.44724  0.91115     O
O      0.25901  0.55276  0.08885     O
O      0.25901  0.55276  0.91115     O
H       0.2667   0.1892   0.1748     H
H       0.2667   0.1892   0.8252     H
H       0.2667   0.8108   0.1748     H
H       0.2667   0.8108   0.8252     H
H       0.2678   0.4206   0.2892     H
H       0.2678   0.4206   0.7108     H
H       0.2678   0.5794   0.2892     H
H       0.2678   0.5794   0.7108     H
C        0.269   0.3929   0.2731     C
C        0.269   0.3929   0.7269     C
C        0.269   0.6071   0.2731     C
C        0.269   0.6071   0.7269     C
C       0.2731    0.269   0.3929     C
C       0.2731    0.269   0.6071     C
C       0.2731    0.731   0.3929     C
C       0.2731    0.731   0.6071     C
H       0.2761    0.202   0.3802     H
H       0.2761    0.202   0.6198     H
H       0.2761    0.798   0.3802     H
H       0.2761    0.798   0.6198     H
H       0.2766   0.3692   0.2933     H
H       0.2766   0.3692   0.7067     H
H       0.2766   0.6308   0.2933     H
H       0.2766   0.6308   0.7067     H
C      0.27829  0.28315  0.22372     C
C      0.27829  0.28315  0.77628     C
C      0.27829  0.71685  0.22372     C
C      0.27829  0.71685  0.77628     C
C      0.28315  0.22372  0.27829     C
C      0.28315  0.22372  0.72171     C
C      0.28315  0.77628  0.27829     C
C      0.28315  0.77628  0.72171     C
O      0.28576      0.5      0.0     O
C      0.28586  0.41532  0.08417     C
C      0.28586  0.41532  0.91583     C
C      0.28586  0.58468  0.08417     C
C      0.28586  0.58468  0.91583     C
C      0.28602  0.37995  0.11938     C
C      0.28602  0.37995  0.88062     C
C      0.28602  0.62005  0.11938     C
C      0.28602  0.62005  0.88062     C
C      0.28716  0.31401   0.1845     C
C      0.28716  0.31401   0.8155     C
C      0.28716  0.68599   0.1845     C
C      0.28716  0.68599   0.8155     C
H       0.2892   0.2678   0.4206     H
H       0.2892   0.2678   0.5794     H
H       0.2892   0.7322   0.4206     H
H       0.2892   0.7322   0.5794     H
H       0.2911   0.3948     0.25     H
H       0.2911   0.3948     0.75     H
H       0.2911   0.6052     0.25     H
H       0.2911   0.6052     0.75     H
H        0.292   0.1511   0.3413     H
H        0.292   0.1511   0.6587     H
H        0.292   0.8489   0.3413     H
H        0.292   0.8489   0.6587     H
H       0.2928   0.1591   0.1409     H
H       0.2928   0.1591   0.8591     H
H       0.2928   0.8409   0.1409     H
H       0.2928   0.8409   0.8591     H
C      0.29329   0.1719  0.17024     C
C      0.29329   0.1719  0.82976     C
C      0.29329   0.8281  0.17024     C
C      0.29329   0.8281  0.82976     C
H       0.2933   0.2766   0.3692     H
H       0.2933   0.2766   0.6308     H
H       0.2933   0.7234   0.3692     H
H       0.2933   0.7234   0.6308     H
H       0.2947   0.1485   0.1921     H
H       0.2947   0.1485   0.8079     H
H       0.2947   0.8515   0.1921     H
H       0.2947   0.8515   0.8079     H
C      0.29969  0.24539  0.24013     C
C      0.29969  0.24539  0.75987     C
C      0.29969  0.75461  0.24013     C
C      0.29969  0.75461  0.75987     C
O      0.31243  0.41069  0.05243     O
O      0.31243  0.41069  0.94757     O
O      0.31243  0.58931  0.05243     O
O      0.31243  0.58931  0.94757     O
C      0.31385  0.15148  0.31927     C
C      0.31385  0.15148  0.68073     C
C      0.31385  0.84852  0.31927     C
C      0.31385  0.84852  0.68073     C
C      0.31401   0.1845  0.28716     C
C      0.31401   0.1845  0.71284     C
C      0.31401   0.8155  0.28716     C
C      0.31401   0.8155  0.71284     C
C      0.31823  0.34672   0.1189     C
C      0.31823  0.34672   0.8811     C
C      0.31823  0.65328   0.1189     C
C      0.31823  0.65328   0.8811     C
C      0.31927  0.31385  0.15148     C
C      0.31927  0.31385  0.84852     C
C      0.31927  0.68615  0.15148     C
C      0.31927  0.68615  0.84852     C
Zn     0.32269  0.44658      0.0    Zn
Zn     0.32269  0.55342      0.0    Zn
H       0.3321   0.2266   0.1536     H
H       0.3321   0.2266   0.8464     H
H       0.3321   0.7734   0.1536     H
H       0.3321   0.7734   0.8464     H
C      0.33469  0.20237  0.17496     C
C      0.33469  0.20237  0.82504     C
C      0.33469  0.79763  0.17496     C
C      0.33469  0.79763  0.82504     C
H       0.3395   0.3465   0.0963     H
H       0.3395   0.3465   0.9037     H
H       0.3395   0.6535   0.0963     H
H       0.3395   0.6535   0.9037     H
H       0.3413    0.292   0.1511     H
H       0.3413    0.292   0.8489     H
H       0.3413    0.708   0.1511     H
H       0.3413    0.708   0.8489     H
C      0.34178  0.22261  0.22212     C
C      0.34178  0.22261  0.77788     C
C      0.34178  0.77739  0.22212     C
C      0.34178  0.77739  0.77788     C
H       0.3465   0.0963   0.3395     H
H       0.3465   0.0963   0.6605     H
H       0.3465   0.9037   0.3395     H
H       0.3465   0.9037   0.6605     H
C      0.34666  0.18499  0.25462     C
C      0.34666  0.18499  0.74538     C
C      0.34666  0.81501  0.25462     C
C      0.34666  0.81501  0.74538     C
C      0.34672   0.1189  0.31823     C
C      0.34672   0.1189  0.68177     C
C      0.34672   0.8811  0.31823     C
C      0.34672   0.8811  0.68177     C
H        0.361   0.1852   0.1671     H
H        0.361   0.1852   0.8329     H
H        0.361   0.8148   0.1671     H
H        0.361   0.8148   0.8329     H
H       0.3692   0.2933   0.2766     H
H       0.3692   0.2933   0.7234     H
H       0.3692   0.7067   0.2766     H
H       0.3692   0.7067   0.7234     H
C      0.37995  0.11938  0.28602     C
C      0.37995  0.11938  0.71398     C
C      0.37995  0.88062  0.28602     C
C      0.37995  0.88062  0.71398     C
H       0.3802   0.2761    0.202     H
H       0.3802   0.2761    0.798     H
H       0.3802   0.7239    0.202     H
H       0.3802   0.7239    0.798     H
C      0.38023  0.15247   0.2544     C
C      0.38023  0.15247   0.7456     C
C      0.38023  0.84753   0.2544     C
C      0.38023  0.84753   0.7456     C
C      0.38357  0.25234  0.22377     C
C      0.38357  0.25234  0.77623     C
C      0.38357  0.74766  0.22377     C
C      0.38357  0.74766  0.77623     C
O       0.3851    0.463      0.0     O
O       0.3851    0.537      0.0     O
C       0.3929   0.2731    0.269     C
C       0.3929   0.2731    0.731     C
C       0.3929   0.7269    0.269     C
C       0.3929   0.7269    0.731     C
H       0.3948     0.25   0.2911     H
H       0.3948     0.25   0.7089     H
H       0.3948     0.75   0.2911     H
H       0.3948     0.75   0.7089     H
H       0.4026   0.1533   0.2329     H
H       0.4026   0.1533   0.7671     H
H       0.4026   0.8467   0.2329     H
H       0.4026   0.8467   0.7671     H
C      0.40397      0.5      0.0     C
H       0.4092   0.2346   0.2151     H
H       0.4092   0.2346   0.7849     H
H       0.4092   0.7654   0.2151     H
H       0.4092   0.7654   0.7849     H
O      0.41069  0.05243  0.31243     O
O      0.41069  0.05243  0.68757     O
O      0.41069  0.94757  0.31243     O
O      0.41069  0.94757  0.68757     O
C      0.41532  0.08417  0.28586     C
C      0.41532  0.08417  0.71414     C
C      0.41532  0.91583  0.28586     C
C      0.41532  0.91583  0.71414     C
H       0.4206   0.2892   0.2678     H
H       0.4206   0.2892   0.7322     H
H       0.4206   0.7108   0.2678     H
H       0.4206   0.7108   0.7322     H
H       0.4338      0.0   0.4614     H
H       0.4338      0.0   0.5386     H
Zn     0.44658      0.0  0.32269    Zn
Zn     0.44658      0.0  0.67731    Zn
O      0.44724  0.08885  0.25901     O
O      0.44724  0.08885  0.74099     O
O      0.44724  0.91115  0.25901     O
O      0.44724  0.91115  0.74099     O
C      0.45384      0.5      0.0     C
C      0.46073      0.0  0.47683     C
C      0.46073      0.0  0.52317     C
H       0.4614   0.4338      0.0     H
H       0.4614   0.5662      0.0     H
O        0.463      0.0   0.3851     O
O        0.463      0.0   0.6149     O
C      0.47683  0.46073      0.0     C
C      0.47683  0.53927      0.0     C
C          0.5      0.0  0.02485     C
C          0.5      0.0  0.11783     C
C          0.5      0.0  0.16747     C
O          0.5      0.0  0.28576     O
C          0.5      0.0  0.40397     C
C          0.5      0.0  0.45384     C
C          0.5      0.0  0.54616     C
C          0.5      0.0  0.59603     C
O          0.5      0.0  0.71424     O
C          0.5      0.0  0.83253     C
C          0.5      0.0  0.88217     C
C          0.5      0.0  0.97515     C
O          0.5  0.03703  0.18636     O
O          0.5  0.03703  0.81364     O
C          0.5  0.03765  0.04826     C
C          0.5  0.03765  0.95174     C
C          0.5  0.03796  0.09464     C
C          0.5  0.03796  0.90536     C
Zn         0.5  0.05306  0.24861    Zn
Zn         0.5  0.05306  0.75139    Zn
H          0.5   0.0647   0.0331     H
H          0.5   0.0647   0.9669     H
H          0.5   0.0651   0.1097     H
H          0.5   0.0651   0.8903     H
H          0.5   0.9349   0.1097     H
H          0.5   0.9349   0.8903     H
H          0.5   0.9353   0.0331     H
H          0.5   0.9353   0.9669     H
Zn         0.5  0.94694  0.24861    Zn
Zn         0.5  0.94694  0.75139    Zn
C          0.5  0.96204  0.09464     C
C          0.5  0.96204  0.90536     C
C          0.5  0.96235  0.04826     C
C          0.5  0.96235  0.95174     C
O          0.5  0.96297  0.18636     O
O          0.5  0.96297  0.81364     O
C      0.52317  0.46073      0.0     C
C      0.52317  0.53927      0.0     C
O        0.537      0.0   0.3851     O
O        0.537      0.0   0.6149     O
H       0.5386   0.4338      0.0     H
H       0.5386   0.5662      0.0     H
C      0.53927      0.0  0.47683     C
C      0.53927      0.0  0.52317     C
C      0.54616      0.5      0.0     C
O      0.55276  0.08885  0.25901     O
O      0.55276  0.08885  0.74099     O
O      0.55276  0.91115  0.25901     O
O      0.55276  0.91115  0.74099     O
Zn     0.55342      0.0  0.32269    Zn
Zn     0.55342      0.0  0.67731    Zn
H       0.5662      0.0   0.4614     H
H       0.5662      0.0   0.5386     H
H       0.5794   0.2892   0.2678     H
H       0.5794   0.2892   0.7322     H
H       0.5794   0.7108   0.2678     H
H       0.5794   0.7108   0.7322     H
C      0.58468  0.08417  0.28586     C
C      0.58468  0.08417  0.71414     C
C      0.58468  0.91583  0.28586     C
C      0.58468  0.91583  0.71414     C
O      0.58931  0.05243  0.31243     O
O      0.58931  0.05243  0.68757     O
O      0.58931  0.94757  0.31243     O
O      0.58931  0.94757  0.68757     O
H       0.5908   0.2346   0.2151     H
H       0.5908   0.2346   0.7849     H
H       0.5908   0.7654   0.2151     H
H       0.5908   0.7654   0.7849     H
C      0.59603      0.5      0.0     C
H       0.5974   0.1533   0.2329     H
H       0.5974   0.1533   0.7671     H
H       0.5974   0.8467   0.2329     H
H       0.5974   0.8467   0.7671     H
H       0.6052     0.25   0.2911     H
H       0.6052     0.25   0.7089     H
H       0.6052     0.75   0.2911     H
H       0.6052     0.75   0.7089     H
C       0.6071   0.2731    0.269     C
C       0.6071   0.2731    0.731     C
C       0.6071   0.7269    0.269     C
C       0.6071   0.7269    0.731     C
O       0.6149    0.463      0.0     O
O       0.6149    0.537      0.0     O
C      0.61643  0.25234  0.22377     C
C      0.61643  0.25234  0.77623     C
C      0.61643  0.74766  0.22377     C
C      0.61643  0.74766  0.77623     C
C      0.61977  0.15247   0.2544     C
C      0.61977  0.15247   0.7456     C
C      0.61977  0.84753   0.2544     C
C      0.61977  0.84753   0.7456     C
H       0.6198   0.2761    0.202     H
H       0.6198   0.2761    0.798     H
H       0.6198   0.7239    0.202     H
H       0.6198   0.7239    0.798     H
C      0.62005  0.11938  0.28602     C
C      0.62005  0.11938  0.71398     C
C      0.62005  0.88062  0.28602     C
C      0.62005  0.88062  0.71398     C
H       0.6308   0.2933   0.2766     H
H       0.6308   0.2933   0.7234     H
H       0.6308   0.7067   0.2766     H
H       0.6308   0.7067   0.7234     H
H        0.639   0.1852   0.1671     H
H        0.639   0.1852   0.8329     H
H        0.639   0.8148   0.1671     H
H        0.639   0.8148   0.8329     H
C      0.65328   0.1189  0.31823     C
C      0.65328   0.1189  0.68177     C
C      0.65328   0.8811  0.31823     C
C      0.65328   0.8811  0.68177     C
C      0.65334  0.18499  0.25462     C
C      0.65334  0.18499  0.74538     C
C      0.65334  0.81501  0.25462     C
C      0.65334  0.81501  0.74538     C
H       0.6535   0.0963   0.3395     H
H       0.6535   0.0963   0.6605     H
H       0.6535   0.9037   0.3395     H
H       0.6535   0.9037   0.6605     H
C      0.65822  0.22261  0.22212     C
C      0.65822  0.22261  0.77788     C
C      0.65822  0.77739  0.22212     C
C      0.65822  0.77739  0.77788     C
H       0.6587    0.292   0.1511     H
H       0.6587    0.292   0.8489     H
H       0.6587    0.708   0.1511     H
H       0.6587    0.708   0.8489     H
H       0.6605   0.3465   0.0963     H
H       0.6605   0.3465   0.9037     H
H       0.6605   0.6535   0.0963     H
H       0.6605   0.6535   0.9037     H
C      0.66531  0.20237  0.17496     C
C      0.66531  0.20237  0.82504     C
C      0.66531  0.79763  0.17496     C
C      0.66531  0.79763  0.82504     C
H       0.6679   0.2266   0.1536     H
H       0.6679   0.2266   0.8464     H
H       0.6679   0.7734   0.1536     H
H       0.6679   0.7734   0.8464     H
Zn     0.67731  0.44658      0.0    Zn
Zn     0.67731  0.55342      0.0    Zn
C      0.68073  0.31385  0.15148     C
C      0.68073  0.31385  0.84852     C
C      0.68073  0.68615  0.15148     C
C      0.68073  0.68615  0.84852     C
C      0.68177  0.34672   0.1189     C
C      0.68177  0.34672   0.8811     C
C      0.68177  0.65328   0.1189     C
C      0.68177  0.65328   0.8811     C
C      0.68599   0.1845  0.28716     C
C      0.68599   0.1845  0.71284     C
C      0.68599   0.8155  0.28716     C
C      0.68599   0.8155  0.71284     C
C      0.68615  0.15148  0.31927     C
C      0.68615  0.15148  0.68073     C
C      0.68615  0.84852  0.31927     C
C      0.68615  0.84852  0.68073     C
O      0.68757  0.41069  0.05243     O
O      0.68757  0.41069  0.94757     O
O      0.68757  0.58931  0.05243     O
O      0.68757  0.58931  0.94757     O
C      0.70031  0.24539  0.24013     C
C      0.70031  0.24539  0.75987     C
C      0.70031  0.75461  0.24013     C
C      0.70031  0.75461  0.75987     C
H       0.7053   0.1485   0.1921     H
H       0.7053   0.1485   0.8079     H
H       0.7053   0.8515   0.1921     H
H       0.7053   0.8515   0.8079     H
H       0.7067   0.2766   0.3692     H
H       0.7067   0.2766   0.6308     H
H       0.7067   0.7234   0.3692     H
H       0.7067   0.7234   0.6308     H
C      0.70671   0.1719  0.17024     C
C      0.70671   0.1719  0.82976     C
C      0.70671   0.8281  0.17024     C
C      0.70671   0.8281  0.82976     C
H       0.7072   0.1591   0.1409     H
H       0.7072   0.1591   0.8591     H
H       0.7072   0.8409   0.1409     H
H       0.7072   0.8409   0.8591     H
H        0.708   0.1511   0.3413     H
H        0.708   0.1511   0.6587     H
H        0.708   0.8489   0.3413     H
H        0.708   0.8489   0.6587     H
H       0.7089   0.3948     0.25     H
H       0.7089   0.3948     0.75     H
H       0.7089   0.6052     0.25     H
H       0.7089   0.6052     0.75     H
H       0.7108   0.2678   0.4206     H
H       0.7108   0.2678   0.5794     H
H       0.7108   0.7322   0.4206     H
H       0.7108   0.7322   0.5794     H
C      0.71284  0.31401   0.1845     C
C      0.71284  0.31401   0.8155     C
C      0.71284  0.68599   0.1845     C
C      0.71284  0.68599   0.8155     C
C      0.71398  0.37995  0.11938     C
C      0.71398  0.37995  0.88062     C
C      0.71398  0.62005  0.11938     C
C      0.71398  0.62005  0.88062     C
C      0.71414  0.41532  0.08417     C
C      0.71414  0.41532  0.91583     C
C      0.71414  0.58468  0.08417     C
C      0.71414  0.58468  0.91583     C
O      0.71424      0.5      0.0     O
C      0.71685  0.22372  0.27829     C
C      0.71685  0.22372  0.72171     C
C      0.71685  0.77628  0.27829     C
C      0.71685  0.77628  0.72171     C
C      0.72171  0.28315  0.22372     C
C      0.72171  0.28315  0.77628     C
C      0.72171  0.71685  0.22372     C
C      0.72171  0.71685  0.77628     C
H       0.7234   0.3692   0.2933     H
H       0.7234   0.3692   0.7067     H
H       0.7234   0.6308   0.2933     H
H       0.7234   0.6308   0.7067     H
H       0.7239    0.202   0.3802     H
H       0.7239    0.202   0.6198     H
H       0.7239    0.798   0.3802     H
H       0.7239    0.798   0.6198     H
C       0.7269    0.269   0.3929     C
C       0.7269    0.269   0.6071     C
C       0.7269    0.731   0.3929     C
C       0.7269    0.731   0.6071     C
C        0.731   0.3929   0.2731     C
C        0.731   0.3929   0.7269     C
C        0.731   0.6071   0.2731     C
C        0.731   0.6071   0.7269     C
H       0.7322   0.4206   0.2892     H
H       0.7322   0.4206   0.7108     H
H       0.7322   0.5794   0.2892     H
H       0.7322   0.5794   0.7108     H
H       0.7333   0.1892   0.1748     H
H       0.7333   0.1892   0.8252     H
H       0.7333   0.8108   0.1748     H
H       0.7333   0.8108   0.8252     H
O      0.74099  0.44724  0.08885     O
O      0.74099  0.44724  0.91115     O
O      0.74099  0.55276  0.08885     O
O      0.74099  0.55276  0.91115     O
C      0.74538  0.34666  0.18499     C
C      0.74538  0.34666  0.81501     C
C      0.74538  0.65334  0.18499     C
C      0.74538  0.65334  0.81501     C
C       0.7456  0.38023  0.15247     C
C       0.7456  0.38023  0.84753     C
C       0.7456  0.61977  0.15247     C
C       0.7456  0.61977  0.84753     C
C      0.74766  0.22377  0.38357     C
C      0.74766  0.22377  0.61643     C
C      0.74766  0.77623  0.38357     C
C      0.74766  0.77623  0.61643     C
H         0.75   0.2911   0.3948     H
H         0.75   0.2911   0.6052     H
H         0.75   0.7089   0.3948     H
H         0.75   0.7089   0.6052     H
Zn     0.75139      0.5  0.05306    Zn
Zn     0.75139      0.5  0.94694    Zn
C      0.75461  0.24013  0.29969     C
C      0.75461  0.24013  0.70031     C
C      0.75461  0.75987  0.29969     C
C      0.75461  0.75987  0.70031     C
C      0.75987  0.29969  0.24539     C
C      0.75987  0.29969  0.75461     C
C      0.75987  0.70031  0.24539     C
C      0.75987  0.70031  0.75461     C
H       0.7654   0.2151   0.4092     H
H       0.7654   0.2151   0.5908     H
H       0.7654   0.7849   0.4092     H
H       0.7654   0.7849   0.5908     H
H       0.7671   0.4026   0.1533     H
H       0.7671   0.4026   0.8467     H
H       0.7671   0.5974   0.1533     H
H       0.7671   0.5974   0.8467     H
H       0.7734   0.1536   0.3321     H
H       0.7734   0.1536   0.6679     H
H       0.7734   0.8464   0.3321     H
H       0.7734   0.8464   0.6679     H
C      0.77623  0.38357  0.25234     C
C      0.77623  0.38357  0.74766     C
C      0.77623  0.61643  0.25234     C
C      0.77623  0.61643  0.74766     C
C      0.77628  0.27829  0.28315     C
C      0.77628  0.27829  0.71685     C
C      0.77628  0.72171  0.28315     C
C      0.77628  0.72171  0.71685     C
C      0.77739  0.22212  0.34178     C
C      0.77739  0.22212  0.65822     C
C      0.77739  0.77788  0.34178     C
C      0.77739  0.77788  0.65822     C
C      0.77788  0.34178  0.22261     C
C      0.77788  0.34178  0.77739     C
C      0.77788  0.65822  0.22261     C
C      0.77788  0.65822  0.77739     C
H       0.7849   0.4092   0.2346     H
H       0.7849   0.4092   0.7654     H
H       0.7849   0.5908   0.2346     H
H       0.7849   0.5908   0.7654     H
C      0.79763  0.17496  0.33469     C
C      0.79763  0.17496  0.66531     C
C      0.79763  0.82504  0.33469     C
C      0.79763  0.82504  0.66531     C
H        0.798   0.3802   0.2761     H
H        0.798   0.3802   0.7239     H
H        0.798   0.6198   0.2761     H
H        0.798   0.6198   0.7239     H
H       0.8079   0.2947   0.1485     H
H       0.8079   0.2947   0.8515     H
H       0.8079   0.7053   0.1485     H
H       0.8079   0.7053   0.8515     H
H       0.8108   0.1748   0.2667     H
H       0.8108   0.1748   0.7333     H
H       0.8108   0.8252   0.2667     H
H       0.8108   0.8252   0.7333     H
O      0.81364      0.5  0.03703     O
O      0.81364      0.5  0.96297     O
H       0.8148   0.1671    0.361     H
H       0.8148   0.1671    0.639     H
H       0.8148   0.8329    0.361     H
H       0.8148   0.8329    0.639     H
C      0.81501  0.25462  0.34666     C
C      0.81501  0.25462  0.65334     C
C      0.81501  0.74538  0.34666     C
C      0.81501  0.74538  0.65334     C
C       0.8155  0.28716  0.31401     C
C       0.8155  0.28716  0.68599     C
C       0.8155  0.71284  0.31401     C
C       0.8155  0.71284  0.68599     C
C      0.82504  0.33469  0.20237     C
C      0.82504  0.33469  0.79763     C
C      0.82504  0.66531  0.20237     C
C      0.82504  0.66531  0.79763     C
H       0.8252   0.2667   0.1892     H
H       0.8252   0.2667   0.8108     H
H       0.8252   0.7333   0.1892     H
H       0.8252   0.7333   0.8108     H
C       0.8281  0.17024  0.29329     C
C       0.8281  0.17024  0.70671     C
C       0.8281  0.82976  0.29329     C
C       0.8281  0.82976  0.70671     C
C      0.82976  0.29329   0.1719     C
C      0.82976  0.29329   0.8281     C
C      0.82976  0.70671   0.1719     C
C      0.82976  0.70671   0.8281     C
C      0.83253      0.5      0.0     C
H       0.8329    0.361   0.1852     H
H       0.8329    0.361   0.8148     H
H       0.8329    0.639   0.1852     H
H       0.8329    0.639   0.8148     H
H       0.8409   0.1409   0.2928     H
H       0.8409   0.1409   0.7072     H
H       0.8409   0.8591   0.2928     H
H       0.8409   0.8591   0.7072     H
H       0.8464   0.3321   0.2266     H
H       0.8464   0.3321   0.7734     H
H       0.8464   0.6679   0.2266     H
H       0.8464   0.6679   0.7734     H
H       0.8467   0.2329   0.4026     H
H       0.8467   0.2329   0.5974     H
H       0.8467   0.7671   0.4026     H
H       0.8467   0.7671   0.5974     H
C      0.84753   0.2544  0.38023     C
C      0.84753   0.2544  0.61977     C
C      0.84753   0.7456  0.38023     C
C      0.84753   0.7456  0.61977     C
C      0.84852  0.31927  0.31385     C
C      0.84852  0.31927  0.68615     C
C      0.84852  0.68073  0.31385     C
C      0.84852  0.68073  0.68615     C
H       0.8489   0.3413    0.292     H
H       0.8489   0.3413    0.708     H
H       0.8489   0.6587    0.292     H
H       0.8489   0.6587    0.708     H
H       0.8515   0.1921   0.2947     H
H       0.8515   0.1921   0.7053     H
H       0.8515   0.8079   0.2947     H
H       0.8515   0.8079   0.7053     H
H       0.8591   0.2928   0.1591     H
H       0.8591   0.2928   0.8409     H
H       0.8591   0.7072   0.1591     H
H       0.8591   0.7072   0.8409     H
C      0.88062  0.28602  0.37995     C
C      0.88062  0.28602  0.62005     C
C      0.88062  0.71398  0.37995     C
C      0.88062  0.71398  0.62005     C
C       0.8811  0.31823  0.34672     C
C       0.8811  0.31823  0.65328     C
C       0.8811  0.68177  0.34672     C
C       0.8811  0.68177  0.65328     C
C      0.88217      0.5      0.0     C
H       0.8903      0.5   0.0651     H
H       0.8903      0.5   0.9349     H
H       0.9037   0.3395   0.3465     H
H       0.9037   0.3395   0.6535     H
H       0.9037   0.6605   0.3465     H
H       0.9037   0.6605   0.6535     H
C      0.90536      0.5  0.03796     C
C      0.90536      0.5  0.96204     C
O      0.91115  0.25901  0.44724     O
O      0.91115  0.25901  0.55276     O
O      0.91115  0.74099  0.44724     O
O      0.91115  0.74099  0.55276     O
C      0.91583  0.28586  0.41532     C
C      0.91583  0.28586  0.58468     C
C      0.91583  0.71414  0.41532     C
C      0.91583  0.71414  0.58468     C
H       0.9349   0.1097      0.5     H
H       0.9349   0.8903      0.5     H
H       0.9353   0.0331      0.5     H
H       0.9353   0.9669      0.5     H
Zn     0.94694  0.24861      0.5    Zn
Zn     0.94694  0.75139      0.5    Zn
O      0.94757  0.31243  0.41069     O
O      0.94757  0.31243  0.58931     O
O      0.94757  0.68757  0.41069     O
O      0.94757  0.68757  0.58931     O
C      0.95174      0.5  0.03765     C
C      0.95174      0.5  0.96235     C
C      0.96204  0.09464      0.5     C
C      0.96204  0.90536      0.5     C
C      0.96235  0.04826      0.5     C
C      0.96235  0.95174      0.5     C
O      0.96297  0.18636      0.5     O
O      0.96297  0.81364      0.5     O
H       0.9669      0.5   0.0647     H
H       0.9669      0.5   0.9353     H
C      0.97515      0.5      0.0     C
