data_I
_chemical_name_common  '/Users/gianmarcoterrones/Downloads/ZIF-11_no_solvent'
_cell_length_a 28.75951
_cell_length_b 28.75951
_cell_length_c 28.75951
_cell_angle_alpha 90.00000
_cell_angle_beta  90.00000
_cell_angle_gamma 90.00000
_space_group_name_H-M_alt      'P 1'


loop_
_space_group_symop_operation_xyz
  'x, y, z' 

loop_
_atom_site_label
_atom_site_fract_x
_atom_site_fract_y
_atom_site_fract_z
_atom_site_type_symbol
C          0.0  0.25604  0.39504     C
C          0.0  0.25604  0.60504     C
H          0.0 0.275554 0.427426     H
H          0.0 0.275554 0.572574     H
C          0.0  0.39504  0.25604     C
C          0.0  0.39504  0.74404     C
H          0.0 0.427426 0.275554     H
H          0.0 0.427426 0.724446     H
H          0.0 0.572574 0.275554     H
H          0.0 0.572574 0.724446     H
C          0.0  0.60504  0.25604     C
C          0.0  0.60504  0.74404     C
H          0.0 0.724446 0.427426     H
H          0.0 0.724446 0.572574     H
C          0.0  0.74404  0.39504     C
C          0.0  0.74404  0.60504     C
C      0.02475  0.18037  0.26525     C
C      0.02475  0.18037  0.73485     C
C      0.02475  0.26525  0.18037     C
C      0.02475  0.26525  0.81977     C
C      0.02475  0.73485  0.18037     C
C      0.02475  0.73485  0.81977     C
C      0.02475  0.81977  0.26525     C
C      0.02475  0.81977  0.73485     C
C      0.02564  0.22154  0.33564     C
C      0.02564  0.22154  0.66444     C
C      0.02564  0.33564  0.22154     C
C      0.02564  0.33564  0.77854     C
C      0.02564  0.66444  0.22154     C
C      0.02564  0.66444  0.77854     C
C      0.02564  0.77854  0.33564     C
C      0.02564  0.77854  0.66444     C
H     0.037352   0.0953 0.477714     H
H     0.037352   0.0953 0.522286     H
H     0.037352 0.477714   0.0953     H
H     0.037352 0.477714   0.9047     H
H     0.037352 0.522286   0.0953     H
H     0.037352 0.522286   0.9047     H
H     0.037352   0.9047 0.477714     H
H     0.037352   0.9047 0.522286     H
N      0.03944  0.24404  0.37514     N
N      0.03944  0.24404  0.62494     N
N      0.03944  0.37514  0.24404     N
N      0.03944  0.37514  0.75604     N
N      0.03944  0.62494  0.24404     N
N      0.03944  0.62494  0.75604     N
N      0.03944  0.75604  0.37514     N
N      0.03944  0.75604  0.62494     N
H     0.042797 0.163715 0.236368     H
H     0.042797 0.163715 0.763632     H
H     0.042797 0.236368 0.163715     H
H     0.042797 0.236368 0.836285     H
H     0.042797 0.763632 0.163715     H
H     0.042797 0.763632 0.836285     H
H     0.042797 0.836285 0.236368     H
H     0.042797 0.836285 0.763632     H
H     0.046003  0.17164 0.441646     H
H     0.046003  0.17164 0.558354     H
H     0.046003 0.441646  0.17164     H
H     0.046003 0.441646  0.82836     H
H     0.046003 0.558354  0.17164     H
H     0.046003 0.558354  0.82836     H
H     0.046003  0.82836 0.441646     H
H     0.046003  0.82836 0.558354     H
C      0.05004  0.19984  0.29914     C
C      0.05004  0.19984  0.70094     C
C      0.05004  0.29914  0.19984     C
C      0.05004  0.29914  0.80024     C
C      0.05004  0.70094  0.19984     C
C      0.05004  0.70094  0.80024     C
C      0.05004  0.80024  0.29914     C
C      0.05004  0.80024  0.70094     C
C      0.07037  0.10387  0.46117     C
C      0.07037  0.10387  0.53897     C
C      0.07037  0.46117  0.10387     C
C      0.07037  0.46117  0.89627     C
C      0.07037  0.53897  0.10387     C
C      0.07037  0.53897  0.89627     C
C      0.07037  0.89627  0.46117     C
C      0.07037  0.89627  0.53897     C
C      0.07447  0.14667  0.44237     C
C      0.07447  0.14667  0.55777     C
C      0.07447  0.44237  0.14667     C
C      0.07447  0.44237  0.85347     C
C      0.07447  0.55777  0.14667     C
C      0.07447  0.55777  0.85347     C
C      0.07447  0.85347  0.44237     C
C      0.07447  0.85347  0.55777     C
H      0.07674 0.307959 0.307959     H
H      0.07674 0.307959 0.692041     H
H      0.07674 0.692041 0.307959     H
H      0.07674 0.692041 0.692041     H
H     0.087728  0.43844  0.45805     H
H     0.087728  0.43844  0.54195     H
H     0.087728  0.45805  0.43844     H
H     0.087728  0.45805  0.56156     H
H     0.087728  0.54195  0.43844     H
H     0.087728  0.54195  0.56156     H
H     0.087728  0.56156  0.45805     H
H     0.087728  0.56156  0.54195     H
H      0.08785 0.198912 0.298465     H
H      0.08785 0.198912 0.701535     H
H      0.08785 0.298465 0.198912     H
H      0.08785 0.298465 0.801088     H
H      0.08785 0.701535 0.198912     H
H      0.08785 0.701535 0.801088     H
H      0.08785 0.801088 0.298465     H
H      0.08785 0.801088 0.701535     H
C      0.09139  0.40549  0.47628     C
C      0.09139  0.40549  0.52388     C
C      0.09139  0.47628  0.40549     C
C      0.09139  0.47628  0.59469     C
C      0.09139  0.52388  0.40549     C
C      0.09139  0.52388  0.59469     C
C      0.09139  0.59469  0.47628     C
C      0.09139  0.59469  0.52388     C
H     0.094672 0.365291 0.412053     H
H     0.094672 0.365291 0.587947     H
H     0.094672 0.412053 0.365291     H
H     0.094672 0.412053 0.634709     H
H     0.094672 0.587947 0.365291     H
H     0.094672 0.587947 0.634709     H
H     0.094672 0.634709 0.412053     H
H     0.094672 0.634709 0.587947     H
H       0.0953 0.037352 0.477714     H
H       0.0953 0.037352 0.522286     H
H       0.0953 0.477714 0.037352     H
H       0.0953 0.477714 0.962647     H
H       0.0953 0.522286 0.037352     H
H       0.0953 0.522286 0.962647     H
H       0.0953 0.962647 0.477714     H
H       0.0953 0.962647 0.522286     H
C      0.09578  0.36477  0.44997     C
C      0.09578  0.36477  0.55017     C
C      0.09578  0.44997  0.36477     C
C      0.09578  0.44997  0.63537     C
C      0.09578  0.55017  0.36477     C
C      0.09578  0.55017  0.63537     C
C      0.09578  0.63537  0.44997     C
C      0.09578  0.63537  0.55017     C
C      0.10151  0.32314  0.47478     C
C      0.10151  0.32314  0.52538     C
C      0.10151  0.47478  0.32314     C
C      0.10151  0.47478  0.67694     C
C      0.10151  0.52538  0.32314     C
C      0.10151  0.52538  0.67694     C
C      0.10151  0.67694  0.47478     C
C      0.10151  0.67694  0.52538     C
N      0.10224  0.27684  0.46072     N
N      0.10224  0.27684  0.53932     N
N      0.10224  0.46072  0.27684     N
N      0.10224  0.46072  0.72324     N
N      0.10224  0.53932  0.27684     N
N      0.10224  0.53932  0.72324     N
N      0.10224  0.72324  0.46072     N
N      0.10224  0.72324  0.53932     N
C      0.10387  0.07037  0.46117     C
C      0.10387  0.07037  0.53897     C
C      0.10387  0.46117  0.07037     C
C      0.10387  0.46117  0.92977     C
C      0.10387  0.53897  0.07037     C
C      0.10387  0.53897  0.92977     C
C      0.10387  0.92977  0.46117     C
C      0.10387  0.92977  0.53897     C
Zn    0.104294 0.251973 0.396233    Zn
Zn    0.104294 0.251973 0.603773    Zn
Zn    0.104294 0.396233 0.251973    Zn
Zn    0.104294 0.396233 0.748033    Zn
Zn    0.104294 0.603773 0.251973    Zn
Zn    0.104294 0.603773 0.748033    Zn
Zn    0.104294 0.748033 0.396233    Zn
Zn    0.104294 0.748033 0.603773    Zn
C      0.11065  0.25335      0.5     C
C      0.11065      0.5  0.25335     C
C      0.11065      0.5  0.74675     C
C      0.11065  0.74675      0.5     C
C      0.11135  0.31894  0.31894     C
C      0.11135  0.31894  0.68114     C
C      0.11135  0.68114  0.31894     C
C      0.11135  0.68114  0.68114     C
C      0.12017  0.15638  0.42308     C
C      0.12017  0.15638  0.57708     C
C      0.12017  0.42308  0.15638     C
C      0.12017  0.42308  0.84378     C
C      0.12017  0.57708  0.15638     C
C      0.12017  0.57708  0.84378     C
C      0.12017  0.84378  0.42308     C
C      0.12017  0.84378  0.57708     C
H     0.123345 0.217644      0.5     H
H     0.123345      0.5 0.217644     H
H     0.123345      0.5 0.782356     H
H     0.123345 0.782356      0.5     H
N      0.13124  0.29752  0.35294     N
N      0.13124  0.29752  0.64714     N
N      0.13124  0.35294  0.29752     N
N      0.13124  0.35294  0.70252     N
N      0.13124  0.64714  0.29752     N
N      0.13124  0.64714  0.70252     N
N      0.13124  0.70252  0.35294     N
N      0.13124  0.70252  0.64714     N
N      0.13584  0.19064  0.39922     N
N      0.13584  0.19064  0.60082     N
N      0.13584  0.39922  0.19064     N
N      0.13584  0.39922  0.80944     N
N      0.13584  0.60082  0.19064     N
N      0.13584  0.60082  0.80944     N
N      0.13584  0.80944  0.39922     N
N      0.13584  0.80944  0.60082     N
C      0.14667  0.07447  0.44237     C
C      0.14667  0.07447  0.55777     C
C      0.14667  0.44237  0.07447     C
C      0.14667  0.44237  0.92567     C
C      0.14667  0.55777  0.07447     C
C      0.14667  0.55777  0.92567     C
C      0.14667  0.92567  0.44237     C
C      0.14667  0.92567  0.55777     C
C      0.15638  0.12017  0.42308     C
C      0.15638  0.12017  0.57708     C
C      0.15638  0.42308  0.12017     C
C      0.15638  0.42308  0.87997     C
C      0.15638  0.57708  0.12017     C
C      0.15638  0.57708  0.87997     C
C      0.15638  0.87997  0.42308     C
C      0.15638  0.87997  0.57708     C
H     0.163715 0.042797 0.236368     H
H     0.163715 0.042797 0.763632     H
H     0.163715 0.236368 0.042797     H
H     0.163715 0.236368 0.957203     H
H     0.163715 0.763632 0.042797     H
H     0.163715 0.763632 0.957203     H
H     0.163715 0.957203 0.236368     H
H     0.163715 0.957203 0.763632     H
H      0.17164 0.046003 0.441646     H
H      0.17164 0.046003 0.558354     H
H      0.17164 0.441646 0.046003     H
H      0.17164 0.441646 0.953997     H
H      0.17164 0.558354 0.046003     H
H      0.17164 0.558354 0.953997     H
H      0.17164 0.953997 0.441646     H
H      0.17164 0.953997 0.558354     H
C      0.17384  0.31974  0.35544     C
C      0.17384  0.31974  0.64464     C
C      0.17384  0.35544  0.31974     C
C      0.17384  0.35544  0.68034     C
C      0.17384  0.64464  0.31974     C
C      0.17384  0.64464  0.68034     C
C      0.17384  0.68034  0.35544     C
C      0.17384  0.68034  0.64464     C
C      0.17934  0.17934  0.39084     C
C      0.17934  0.17934  0.60924     C
C      0.17934  0.39084  0.17934     C
C      0.17934  0.39084  0.82074     C
C      0.17934  0.60924  0.17934     C
C      0.17934  0.60924  0.82074     C
C      0.17934  0.82074  0.39084     C
C      0.17934  0.82074  0.60924     C
C      0.18037  0.02475  0.26525     C
C      0.18037  0.02475  0.73485     C
C      0.18037  0.26525  0.02475     C
C      0.18037  0.26525  0.97535     C
C      0.18037  0.73485  0.02475     C
C      0.18037  0.73485  0.97535     C
C      0.18037  0.97535  0.26525     C
C      0.18037  0.97535  0.73485     C
N      0.19064  0.13584  0.39922     N
N      0.19064  0.13584  0.60082     N
N      0.19064  0.39922  0.13584     N
N      0.19064  0.39922  0.86424     N
N      0.19064  0.60082  0.13584     N
N      0.19064  0.60082  0.86424     N
N      0.19064  0.86424  0.39922     N
N      0.19064  0.86424  0.60082     N
H     0.198912  0.08785 0.298465     H
H     0.198912  0.08785 0.701535     H
H     0.198912 0.298465  0.08785     H
H     0.198912 0.298465  0.91215     H
H     0.198912 0.701535  0.08785     H
H     0.198912 0.701535  0.91215     H
H     0.198912  0.91215 0.298465     H
H     0.198912  0.91215 0.701535     H
C      0.19984  0.05004  0.29914     C
C      0.19984  0.05004  0.70094     C
C      0.19984  0.29914  0.05004     C
C      0.19984  0.29914  0.95004     C
C      0.19984  0.70094  0.05004     C
C      0.19984  0.70094  0.95004     C
C      0.19984  0.95004  0.29914     C
C      0.19984  0.95004  0.70094     C
H      0.20442  0.20442 0.377694     H
H      0.20442  0.20442 0.622306     H
H      0.20442 0.377694  0.20442     H
H      0.20442 0.377694  0.79558     H
H      0.20442 0.622306  0.20442     H
H      0.20442 0.622306  0.79558     H
H      0.20442  0.79558 0.377694     H
H      0.20442  0.79558 0.622306     H
H     0.212281 0.290715 0.412404     H
H     0.212281 0.290715 0.587596     H
H     0.212281 0.412404 0.290715     H
H     0.212281 0.412404 0.709285     H
H     0.212281 0.587596 0.290715     H
H     0.212281 0.587596 0.709285     H
H     0.212281 0.709285 0.412404     H
H     0.212281 0.709285 0.587596     H
C      0.21375  0.31395  0.38255     C
C      0.21375  0.31395  0.61755     C
C      0.21375  0.38255  0.31395     C
C      0.21375  0.38255  0.68615     C
C      0.21375  0.61755  0.31395     C
C      0.21375  0.61755  0.68615     C
C      0.21375  0.68615  0.38255     C
C      0.21375  0.68615  0.61755     C
H     0.217644 0.123345      0.5     H
H     0.217644      0.5 0.123345     H
H     0.217644      0.5 0.876655     H
H     0.217644 0.876655      0.5     H
C      0.22154  0.02564  0.33564     C
C      0.22154  0.02564  0.66444     C
C      0.22154  0.33564  0.02564     C
C      0.22154  0.33564  0.97444     C
C      0.22154  0.66444  0.02564     C
C      0.22154  0.66444  0.97444     C
C      0.22154  0.97444  0.33564     C
C      0.22154  0.97444  0.66444     C
H     0.236368 0.042797 0.163715     H
H     0.236368 0.042797 0.836285     H
H     0.236368 0.163715 0.042797     H
H     0.236368 0.163715 0.957203     H
H     0.236368 0.836285 0.042797     H
H     0.236368 0.836285 0.957203     H
H     0.236368 0.957203 0.163715     H
H     0.236368 0.957203 0.836285     H
N      0.24404  0.03944  0.37514     N
N      0.24404  0.03944  0.62494     N
N      0.24404  0.37514  0.03944     N
N      0.24404  0.37514  0.96064     N
N      0.24404  0.62494  0.03944     N
N      0.24404  0.62494  0.96064     N
N      0.24404  0.96064  0.37514     N
N      0.24404  0.96064  0.62494     N
Zn    0.251973 0.104294 0.396233    Zn
Zn    0.251973 0.104294 0.603773    Zn
Zn    0.251973 0.396233 0.104294    Zn
Zn    0.251973 0.396233 0.895714    Zn
Zn    0.251973 0.603773 0.104294    Zn
Zn    0.251973 0.603773 0.895714    Zn
Zn    0.251973 0.895714 0.396233    Zn
Zn    0.251973 0.895714 0.603773    Zn
C      0.25335  0.11065      0.5     C
C      0.25335      0.5  0.11065     C
C      0.25335      0.5  0.88945     C
C      0.25335  0.88945      0.5     C
C      0.25604      0.0  0.39504     C
C      0.25604      0.0  0.60504     C
C      0.25604  0.39504      0.0     C
C      0.25604  0.60504      0.0     C
C     0.256416 0.337411 0.372314     C
C     0.256416 0.337411 0.627714     C
C     0.256416 0.372314 0.337411     C
C     0.256416 0.372314 0.662611     C
C     0.256416 0.627714 0.337411     C
C     0.256416 0.627714 0.662611     C
C     0.256416 0.662611 0.372314     C
C     0.256416 0.662611 0.627714     C
C      0.26525  0.02475  0.18037     C
C      0.26525  0.02475  0.81977     C
C      0.26525  0.18037  0.02475     C
C      0.26525  0.18037  0.97535     C
C      0.26525  0.81977  0.02475     C
C      0.26525  0.81977  0.97535     C
C      0.26525  0.97535  0.18037     C
C      0.26525  0.97535  0.81977     C
H     0.275554      0.0 0.427426     H
H     0.275554      0.0 0.572574     H
H     0.275554 0.427426      0.0     H
H     0.275554 0.572574      0.0     H
N      0.27684  0.10224  0.46072     N
N      0.27684  0.10224  0.53932     N
N      0.27684  0.46072  0.10224     N
N      0.27684  0.46072  0.89784     N
N      0.27684  0.53932  0.10224     N
N      0.27684  0.53932  0.89784     N
N      0.27684  0.89784  0.46072     N
N      0.27684  0.89784  0.53932     N
H     0.288195  0.32868 0.390923     H
H     0.288195  0.32868 0.609077     H
H     0.288195 0.390923  0.32868     H
H     0.288195 0.390923  0.67132     H
H     0.288195 0.609077  0.32868     H
H     0.288195 0.609077  0.67132     H
H     0.288195  0.67132 0.390923     H
H     0.288195  0.67132 0.609077     H
H     0.290715 0.212281 0.412404     H
H     0.290715 0.212281 0.587596     H
H     0.290715 0.412404 0.212281     H
H     0.290715 0.412404 0.787719     H
H     0.290715 0.587596 0.212281     H
H     0.290715 0.587596 0.787719     H
H     0.290715 0.787719 0.412404     H
H     0.290715 0.787719 0.587596     H
N      0.29752  0.13124  0.35294     N
N      0.29752  0.13124  0.64714     N
N      0.29752  0.35294  0.13124     N
N      0.29752  0.35294  0.86884     N
N      0.29752  0.64714  0.13124     N
N      0.29752  0.64714  0.86884     N
N      0.29752  0.86884  0.35294     N
N      0.29752  0.86884  0.64714     N
H     0.298465  0.08785 0.198912     H
H     0.298465  0.08785 0.801088     H
H     0.298465 0.198912  0.08785     H
H     0.298465 0.198912  0.91215     H
H     0.298465 0.801088  0.08785     H
H     0.298465 0.801088  0.91215     H
H     0.298465  0.91215 0.198912     H
H     0.298465  0.91215 0.801088     H
C      0.29914  0.05004  0.19984     C
C      0.29914  0.05004  0.80024     C
C      0.29914  0.19984  0.05004     C
C      0.29914  0.19984  0.95004     C
C      0.29914  0.80024  0.05004     C
C      0.29914  0.80024  0.95004     C
C      0.29914  0.95004  0.19984     C
C      0.29914  0.95004  0.80024     C
H     0.307959  0.07674 0.307959     H
H     0.307959  0.07674 0.692041     H
H     0.307959 0.307959  0.07674     H
H     0.307959 0.307959  0.92326     H
H     0.307959 0.692041  0.07674     H
H     0.307959 0.692041  0.92326     H
H     0.307959  0.92326 0.307959     H
H     0.307959  0.92326 0.692041     H
C      0.31395  0.21375  0.38255     C
C      0.31395  0.21375  0.61755     C
C      0.31395  0.38255  0.21375     C
C      0.31395  0.38255  0.78635     C
C      0.31395  0.61755  0.21375     C
C      0.31395  0.61755  0.78635     C
C      0.31395  0.78635  0.38255     C
C      0.31395  0.78635  0.61755     C
C      0.31894  0.11135  0.31894     C
C      0.31894  0.11135  0.68114     C
C      0.31894  0.31894  0.11135     C
C      0.31894  0.31894  0.88875     C
C      0.31894  0.68114  0.11135     C
C      0.31894  0.68114  0.88875     C
C      0.31894  0.88875  0.31894     C
C      0.31894  0.88875  0.68114     C
C      0.31974  0.17384  0.35544     C
C      0.31974  0.17384  0.64464     C
C      0.31974  0.35544  0.17384     C
C      0.31974  0.35544  0.82624     C
C      0.31974  0.64464  0.17384     C
C      0.31974  0.64464  0.82624     C
C      0.31974  0.82624  0.35544     C
C      0.31974  0.82624  0.64464     C
C      0.32314  0.10151  0.47478     C
C      0.32314  0.10151  0.52538     C
C      0.32314  0.47478  0.10151     C
C      0.32314  0.47478  0.89851     C
C      0.32314  0.52538  0.10151     C
C      0.32314  0.52538  0.89851     C
C      0.32314  0.89851  0.47478     C
C      0.32314  0.89851  0.52538     C
H      0.32868 0.288195 0.390923     H
H      0.32868 0.288195 0.609077     H
H      0.32868 0.390923 0.288195     H
H      0.32868 0.390923 0.711805     H
H      0.32868 0.609077 0.288195     H
H      0.32868 0.609077 0.711805     H
H      0.32868 0.711805 0.390923     H
H      0.32868 0.711805 0.609077     H
C      0.33564  0.02564  0.22154     C
C      0.33564  0.02564  0.77854     C
C      0.33564  0.22154  0.02564     C
C      0.33564  0.22154  0.97444     C
C      0.33564  0.77854  0.02564     C
C      0.33564  0.77854  0.97444     C
C      0.33564  0.97444  0.22154     C
C      0.33564  0.97444  0.77854     C
C     0.337411 0.256416 0.372314     C
C     0.337411 0.256416 0.627714     C
C     0.337411 0.372314 0.256416     C
C     0.337411 0.372314 0.743616     C
C     0.337411 0.627714 0.256416     C
C     0.337411 0.627714 0.743616     C
C     0.337411 0.743616 0.372314     C
C     0.337411 0.743616 0.627714     C
N      0.35294  0.13124  0.29752     N
N      0.35294  0.13124  0.70252     N
N      0.35294  0.29752  0.13124     N
N      0.35294  0.29752  0.86884     N
N      0.35294  0.70252  0.13124     N
N      0.35294  0.70252  0.86884     N
N      0.35294  0.86884  0.29752     N
N      0.35294  0.86884  0.70252     N
C      0.35544  0.17384  0.31974     C
C      0.35544  0.17384  0.68034     C
C      0.35544  0.31974  0.17384     C
C      0.35544  0.31974  0.82624     C
C      0.35544  0.68034  0.17384     C
C      0.35544  0.68034  0.82624     C
C      0.35544  0.82624  0.31974     C
C      0.35544  0.82624  0.68034     C
C      0.36477  0.09578  0.44997     C
C      0.36477  0.09578  0.55017     C
C      0.36477  0.44997  0.09578     C
C      0.36477  0.44997  0.90438     C
C      0.36477  0.55017  0.09578     C
C      0.36477  0.55017  0.90438     C
C      0.36477  0.90438  0.44997     C
C      0.36477  0.90438  0.55017     C
H     0.365291 0.094672 0.412053     H
H     0.365291 0.094672 0.587947     H
H     0.365291 0.412053 0.094672     H
H     0.365291 0.412053 0.905328     H
H     0.365291 0.587947 0.094672     H
H     0.365291 0.587947 0.905328     H
H     0.365291 0.905328 0.412053     H
H     0.365291 0.905328 0.587947     H
C     0.372314 0.256416 0.337411     C
C     0.372314 0.256416 0.662611     C
C     0.372314 0.337411 0.256416     C
C     0.372314 0.337411 0.743616     C
C     0.372314 0.662611 0.256416     C
C     0.372314 0.662611 0.743616     C
C     0.372314 0.743616 0.337411     C
C     0.372314 0.743616 0.662611     C
N      0.37514  0.03944  0.24404     N
N      0.37514  0.03944  0.75604     N
N      0.37514  0.24404  0.03944     N
N      0.37514  0.24404  0.96064     N
N      0.37514  0.75604  0.03944     N
N      0.37514  0.75604  0.96064     N
N      0.37514  0.96064  0.24404     N
N      0.37514  0.96064  0.75604     N
H     0.377694  0.20442  0.20442     H
H     0.377694  0.20442  0.79558     H
H     0.377694  0.79558  0.20442     H
H     0.377694  0.79558  0.79558     H
C      0.38255  0.21375  0.31395     C
C      0.38255  0.21375  0.68615     C
C      0.38255  0.31395  0.21375     C
C      0.38255  0.31395  0.78635     C
C      0.38255  0.68615  0.21375     C
C      0.38255  0.68615  0.78635     C
C      0.38255  0.78635  0.31395     C
C      0.38255  0.78635  0.68615     C
C      0.39084  0.17934  0.17934     C
C      0.39084  0.17934  0.82074     C
C      0.39084  0.82074  0.17934     C
C      0.39084  0.82074  0.82074     C
H     0.390923 0.288195  0.32868     H
H     0.390923 0.288195  0.67132     H
H     0.390923  0.32868 0.288195     H
H     0.390923  0.32868 0.711805     H
H     0.390923  0.67132 0.288195     H
H     0.390923  0.67132 0.711805     H
H     0.390923 0.711805  0.32868     H
H     0.390923 0.711805  0.67132     H
C      0.39504      0.0  0.25604     C
C      0.39504      0.0  0.74404     C
C      0.39504  0.25604      0.0     C
C      0.39504  0.74404      0.0     C
Zn    0.396233 0.104294 0.251973    Zn
Zn    0.396233 0.104294 0.748033    Zn
Zn    0.396233 0.251973 0.104294    Zn
Zn    0.396233 0.251973 0.895714    Zn
Zn    0.396233 0.748033 0.104294    Zn
Zn    0.396233 0.748033 0.895714    Zn
Zn    0.396233 0.895714 0.251973    Zn
Zn    0.396233 0.895714 0.748033    Zn
N      0.39922  0.13584  0.19064     N
N      0.39922  0.13584  0.80944     N
N      0.39922  0.19064  0.13584     N
N      0.39922  0.19064  0.86424     N
N      0.39922  0.80944  0.13584     N
N      0.39922  0.80944  0.86424     N
N      0.39922  0.86424  0.19064     N
N      0.39922  0.86424  0.80944     N
C      0.40549  0.09139  0.47628     C
C      0.40549  0.09139  0.52388     C
C      0.40549  0.47628  0.09139     C
C      0.40549  0.47628  0.90879     C
C      0.40549  0.52388  0.09139     C
C      0.40549  0.52388  0.90879     C
C      0.40549  0.90879  0.47628     C
C      0.40549  0.90879  0.52388     C
H     0.412053 0.094672 0.365291     H
H     0.412053 0.094672 0.634709     H
H     0.412053 0.365291 0.094672     H
H     0.412053 0.365291 0.905328     H
H     0.412053 0.634709 0.094672     H
H     0.412053 0.634709 0.905328     H
H     0.412053 0.905328 0.365291     H
H     0.412053 0.905328 0.634709     H
H     0.412404 0.212281 0.290715     H
H     0.412404 0.212281 0.709285     H
H     0.412404 0.290715 0.212281     H
H     0.412404 0.290715 0.787719     H
H     0.412404 0.709285 0.212281     H
H     0.412404 0.709285 0.787719     H
H     0.412404 0.787719 0.290715     H
H     0.412404 0.787719 0.709285     H
C      0.42308  0.12017  0.15638     C
C      0.42308  0.12017  0.84378     C
C      0.42308  0.15638  0.12017     C
C      0.42308  0.15638  0.87997     C
C      0.42308  0.84378  0.12017     C
C      0.42308  0.84378  0.87997     C
C      0.42308  0.87997  0.15638     C
C      0.42308  0.87997  0.84378     C
H     0.427426      0.0 0.275554     H
H     0.427426      0.0 0.724446     H
H     0.427426 0.275554      0.0     H
H     0.427426 0.724446      0.0     H
H      0.43844 0.087728  0.45805     H
H      0.43844 0.087728  0.54195     H
H      0.43844  0.45805 0.087728     H
H      0.43844  0.45805 0.912272     H
H      0.43844  0.54195 0.087728     H
H      0.43844  0.54195 0.912272     H
H      0.43844 0.912272  0.45805     H
H      0.43844 0.912272  0.54195     H
H     0.441646 0.046003  0.17164     H
H     0.441646 0.046003  0.82836     H
H     0.441646  0.17164 0.046003     H
H     0.441646  0.17164 0.953997     H
H     0.441646  0.82836 0.046003     H
H     0.441646  0.82836 0.953997     H
H     0.441646 0.953997  0.17164     H
H     0.441646 0.953997  0.82836     H
C      0.44237  0.07447  0.14667     C
C      0.44237  0.07447  0.85347     C
C      0.44237  0.14667  0.07447     C
C      0.44237  0.14667  0.92567     C
C      0.44237  0.85347  0.07447     C
C      0.44237  0.85347  0.92567     C
C      0.44237  0.92567  0.14667     C
C      0.44237  0.92567  0.85347     C
C      0.44997  0.09578  0.36477     C
C      0.44997  0.09578  0.63537     C
C      0.44997  0.36477  0.09578     C
C      0.44997  0.36477  0.90438     C
C      0.44997  0.63537  0.09578     C
C      0.44997  0.63537  0.90438     C
C      0.44997  0.90438  0.36477     C
C      0.44997  0.90438  0.63537     C
H      0.45805 0.087728  0.43844     H
H      0.45805 0.087728  0.56156     H
H      0.45805  0.43844 0.087728     H
H      0.45805  0.43844 0.912272     H
H      0.45805  0.56156 0.087728     H
H      0.45805  0.56156 0.912272     H
H      0.45805 0.912272  0.43844     H
H      0.45805 0.912272  0.56156     H
N      0.46072  0.10224  0.27684     N
N      0.46072  0.10224  0.72324     N
N      0.46072  0.27684  0.10224     N
N      0.46072  0.27684  0.89784     N
N      0.46072  0.72324  0.10224     N
N      0.46072  0.72324  0.89784     N
N      0.46072  0.89784  0.27684     N
N      0.46072  0.89784  0.72324     N
C      0.46117  0.07037  0.10387     C
C      0.46117  0.07037  0.89627     C
C      0.46117  0.10387  0.07037     C
C      0.46117  0.10387  0.92977     C
C      0.46117  0.89627  0.07037     C
C      0.46117  0.89627  0.92977     C
C      0.46117  0.92977  0.10387     C
C      0.46117  0.92977  0.89627     C
C      0.47478  0.10151  0.32314     C
C      0.47478  0.10151  0.67694     C
C      0.47478  0.32314  0.10151     C
C      0.47478  0.32314  0.89851     C
C      0.47478  0.67694  0.10151     C
C      0.47478  0.67694  0.89851     C
C      0.47478  0.89851  0.32314     C
C      0.47478  0.89851  0.67694     C
C      0.47628  0.09139  0.40549     C
C      0.47628  0.09139  0.59469     C
C      0.47628  0.40549  0.09139     C
C      0.47628  0.40549  0.90879     C
C      0.47628  0.59469  0.09139     C
C      0.47628  0.59469  0.90879     C
C      0.47628  0.90879  0.40549     C
C      0.47628  0.90879  0.59469     C
H     0.477714 0.037352   0.0953     H
H     0.477714 0.037352   0.9047     H
H     0.477714   0.0953 0.037352     H
H     0.477714   0.0953 0.962647     H
H     0.477714   0.9047 0.037352     H
H     0.477714   0.9047 0.962647     H
H     0.477714 0.962647   0.0953     H
H     0.477714 0.962647   0.9047     H
C          0.5  0.11065  0.25335     C
C          0.5  0.11065  0.74675     C
H          0.5 0.123345 0.217644     H
H          0.5 0.123345 0.782356     H
H          0.5 0.217644 0.123345     H
H          0.5 0.217644 0.876655     H
C          0.5  0.25335  0.11065     C
C          0.5  0.25335  0.88945     C
C          0.5  0.74675  0.11065     C
C          0.5  0.74675  0.88945     C
H          0.5 0.782356 0.123345     H
H          0.5 0.782356 0.876655     H
H          0.5 0.876655 0.217644     H
H          0.5 0.876655 0.782356     H
C          0.5  0.88945  0.25335     C
C          0.5  0.88945  0.74675     C
H     0.522286 0.037352   0.0953     H
H     0.522286 0.037352   0.9047     H
H     0.522286   0.0953 0.037352     H
H     0.522286   0.0953 0.962647     H
H     0.522286   0.9047 0.037352     H
H     0.522286   0.9047 0.962647     H
H     0.522286 0.962647   0.0953     H
H     0.522286 0.962647   0.9047     H
C      0.52388  0.09139  0.40549     C
C      0.52388  0.09139  0.59469     C
C      0.52388  0.40549  0.09139     C
C      0.52388  0.40549  0.90879     C
C      0.52388  0.59469  0.09139     C
C      0.52388  0.59469  0.90879     C
C      0.52388  0.90879  0.40549     C
C      0.52388  0.90879  0.59469     C
C      0.52538  0.10151  0.32314     C
C      0.52538  0.10151  0.67694     C
C      0.52538  0.32314  0.10151     C
C      0.52538  0.32314  0.89851     C
C      0.52538  0.67694  0.10151     C
C      0.52538  0.67694  0.89851     C
C      0.52538  0.89851  0.32314     C
C      0.52538  0.89851  0.67694     C
C      0.53897  0.07037  0.10387     C
C      0.53897  0.07037  0.89627     C
C      0.53897  0.10387  0.07037     C
C      0.53897  0.10387  0.92977     C
C      0.53897  0.89627  0.07037     C
C      0.53897  0.89627  0.92977     C
C      0.53897  0.92977  0.10387     C
C      0.53897  0.92977  0.89627     C
N      0.53932  0.10224  0.27684     N
N      0.53932  0.10224  0.72324     N
N      0.53932  0.27684  0.10224     N
N      0.53932  0.27684  0.89784     N
N      0.53932  0.72324  0.10224     N
N      0.53932  0.72324  0.89784     N
N      0.53932  0.89784  0.27684     N
N      0.53932  0.89784  0.72324     N
H      0.54195 0.087728  0.43844     H
H      0.54195 0.087728  0.56156     H
H      0.54195  0.43844 0.087728     H
H      0.54195  0.43844 0.912272     H
H      0.54195  0.56156 0.087728     H
H      0.54195  0.56156 0.912272     H
H      0.54195 0.912272  0.43844     H
H      0.54195 0.912272  0.56156     H
C      0.55017  0.09578  0.36477     C
C      0.55017  0.09578  0.63537     C
C      0.55017  0.36477  0.09578     C
C      0.55017  0.36477  0.90438     C
C      0.55017  0.63537  0.09578     C
C      0.55017  0.63537  0.90438     C
C      0.55017  0.90438  0.36477     C
C      0.55017  0.90438  0.63537     C
C      0.55777  0.07447  0.14667     C
C      0.55777  0.07447  0.85347     C
C      0.55777  0.14667  0.07447     C
C      0.55777  0.14667  0.92567     C
C      0.55777  0.85347  0.07447     C
C      0.55777  0.85347  0.92567     C
C      0.55777  0.92567  0.14667     C
C      0.55777  0.92567  0.85347     C
H     0.558354 0.046003  0.17164     H
H     0.558354 0.046003  0.82836     H
H     0.558354  0.17164 0.046003     H
H     0.558354  0.17164 0.953997     H
H     0.558354  0.82836 0.046003     H
H     0.558354  0.82836 0.953997     H
H     0.558354 0.953997  0.17164     H
H     0.558354 0.953997  0.82836     H
H      0.56156 0.087728  0.45805     H
H      0.56156 0.087728  0.54195     H
H      0.56156  0.45805 0.087728     H
H      0.56156  0.45805 0.912272     H
H      0.56156  0.54195 0.087728     H
H      0.56156  0.54195 0.912272     H
H      0.56156 0.912272  0.45805     H
H      0.56156 0.912272  0.54195     H
H     0.572574      0.0 0.275554     H
H     0.572574      0.0 0.724446     H
H     0.572574 0.275554      0.0     H
H     0.572574 0.724446      0.0     H
C      0.57708  0.12017  0.15638     C
C      0.57708  0.12017  0.84378     C
C      0.57708  0.15638  0.12017     C
C      0.57708  0.15638  0.87997     C
C      0.57708  0.84378  0.12017     C
C      0.57708  0.84378  0.87997     C
C      0.57708  0.87997  0.15638     C
C      0.57708  0.87997  0.84378     C
H     0.587596 0.212281 0.290715     H
H     0.587596 0.212281 0.709285     H
H     0.587596 0.290715 0.212281     H
H     0.587596 0.290715 0.787719     H
H     0.587596 0.709285 0.212281     H
H     0.587596 0.709285 0.787719     H
H     0.587596 0.787719 0.290715     H
H     0.587596 0.787719 0.709285     H
H     0.587947 0.094672 0.365291     H
H     0.587947 0.094672 0.634709     H
H     0.587947 0.365291 0.094672     H
H     0.587947 0.365291 0.905328     H
H     0.587947 0.634709 0.094672     H
H     0.587947 0.634709 0.905328     H
H     0.587947 0.905328 0.365291     H
H     0.587947 0.905328 0.634709     H
C      0.59469  0.09139  0.47628     C
C      0.59469  0.09139  0.52388     C
C      0.59469  0.47628  0.09139     C
C      0.59469  0.47628  0.90879     C
C      0.59469  0.52388  0.09139     C
C      0.59469  0.52388  0.90879     C
C      0.59469  0.90879  0.47628     C
C      0.59469  0.90879  0.52388     C
N      0.60082  0.13584  0.19064     N
N      0.60082  0.13584  0.80944     N
N      0.60082  0.19064  0.13584     N
N      0.60082  0.19064  0.86424     N
N      0.60082  0.80944  0.13584     N
N      0.60082  0.80944  0.86424     N
N      0.60082  0.86424  0.19064     N
N      0.60082  0.86424  0.80944     N
Zn    0.603773 0.104294 0.251973    Zn
Zn    0.603773 0.104294 0.748033    Zn
Zn    0.603773 0.251973 0.104294    Zn
Zn    0.603773 0.251973 0.895714    Zn
Zn    0.603773 0.748033 0.104294    Zn
Zn    0.603773 0.748033 0.895714    Zn
Zn    0.603773 0.895714 0.251973    Zn
Zn    0.603773 0.895714 0.748033    Zn
C      0.60504      0.0  0.25604     C
C      0.60504      0.0  0.74404     C
C      0.60504  0.25604      0.0     C
C      0.60504  0.74404      0.0     C
H     0.609077 0.288195  0.32868     H
H     0.609077 0.288195  0.67132     H
H     0.609077  0.32868 0.288195     H
H     0.609077  0.32868 0.711805     H
H     0.609077  0.67132 0.288195     H
H     0.609077  0.67132 0.711805     H
H     0.609077 0.711805  0.32868     H
H     0.609077 0.711805  0.67132     H
C      0.60924  0.17934  0.17934     C
C      0.60924  0.17934  0.82074     C
C      0.60924  0.82074  0.17934     C
C      0.60924  0.82074  0.82074     C
C      0.61755  0.21375  0.31395     C
C      0.61755  0.21375  0.68615     C
C      0.61755  0.31395  0.21375     C
C      0.61755  0.31395  0.78635     C
C      0.61755  0.68615  0.21375     C
C      0.61755  0.68615  0.78635     C
C      0.61755  0.78635  0.31395     C
C      0.61755  0.78635  0.68615     C
H     0.622306  0.20442  0.20442     H
H     0.622306  0.20442  0.79558     H
H     0.622306  0.79558  0.20442     H
H     0.622306  0.79558  0.79558     H
N      0.62494  0.03944  0.24404     N
N      0.62494  0.03944  0.75604     N
N      0.62494  0.24404  0.03944     N
N      0.62494  0.24404  0.96064     N
N      0.62494  0.75604  0.03944     N
N      0.62494  0.75604  0.96064     N
N      0.62494  0.96064  0.24404     N
N      0.62494  0.96064  0.75604     N
C     0.627714 0.256416 0.337411     C
C     0.627714 0.256416 0.662611     C
C     0.627714 0.337411 0.256416     C
C     0.627714 0.337411 0.743616     C
C     0.627714 0.662611 0.256416     C
C     0.627714 0.662611 0.743616     C
C     0.627714 0.743616 0.337411     C
C     0.627714 0.743616 0.662611     C
H     0.634709 0.094672 0.412053     H
H     0.634709 0.094672 0.587947     H
H     0.634709 0.412053 0.094672     H
H     0.634709 0.412053 0.905328     H
H     0.634709 0.587947 0.094672     H
H     0.634709 0.587947 0.905328     H
H     0.634709 0.905328 0.412053     H
H     0.634709 0.905328 0.587947     H
C      0.63537  0.09578  0.44997     C
C      0.63537  0.09578  0.55017     C
C      0.63537  0.44997  0.09578     C
C      0.63537  0.44997  0.90438     C
C      0.63537  0.55017  0.09578     C
C      0.63537  0.55017  0.90438     C
C      0.63537  0.90438  0.44997     C
C      0.63537  0.90438  0.55017     C
C      0.64464  0.17384  0.31974     C
C      0.64464  0.17384  0.68034     C
C      0.64464  0.31974  0.17384     C
C      0.64464  0.31974  0.82624     C
C      0.64464  0.68034  0.17384     C
C      0.64464  0.68034  0.82624     C
C      0.64464  0.82624  0.31974     C
C      0.64464  0.82624  0.68034     C
N      0.64714  0.13124  0.29752     N
N      0.64714  0.13124  0.70252     N
N      0.64714  0.29752  0.13124     N
N      0.64714  0.29752  0.86884     N
N      0.64714  0.70252  0.13124     N
N      0.64714  0.70252  0.86884     N
N      0.64714  0.86884  0.29752     N
N      0.64714  0.86884  0.70252     N
C     0.662611 0.256416 0.372314     C
C     0.662611 0.256416 0.627714     C
C     0.662611 0.372314 0.256416     C
C     0.662611 0.372314 0.743616     C
C     0.662611 0.627714 0.256416     C
C     0.662611 0.627714 0.743616     C
C     0.662611 0.743616 0.372314     C
C     0.662611 0.743616 0.627714     C
C      0.66444  0.02564  0.22154     C
C      0.66444  0.02564  0.77854     C
C      0.66444  0.22154  0.02564     C
C      0.66444  0.22154  0.97444     C
C      0.66444  0.77854  0.02564     C
C      0.66444  0.77854  0.97444     C
C      0.66444  0.97444  0.22154     C
C      0.66444  0.97444  0.77854     C
H      0.67132 0.288195 0.390923     H
H      0.67132 0.288195 0.609077     H
H      0.67132 0.390923 0.288195     H
H      0.67132 0.390923 0.711805     H
H      0.67132 0.609077 0.288195     H
H      0.67132 0.609077 0.711805     H
H      0.67132 0.711805 0.390923     H
H      0.67132 0.711805 0.609077     H
C      0.67694  0.10151  0.47478     C
C      0.67694  0.10151  0.52538     C
C      0.67694  0.47478  0.10151     C
C      0.67694  0.47478  0.89851     C
C      0.67694  0.52538  0.10151     C
C      0.67694  0.52538  0.89851     C
C      0.67694  0.89851  0.47478     C
C      0.67694  0.89851  0.52538     C
C      0.68034  0.17384  0.35544     C
C      0.68034  0.17384  0.64464     C
C      0.68034  0.35544  0.17384     C
C      0.68034  0.35544  0.82624     C
C      0.68034  0.64464  0.17384     C
C      0.68034  0.64464  0.82624     C
C      0.68034  0.82624  0.35544     C
C      0.68034  0.82624  0.64464     C
C      0.68114  0.11135  0.31894     C
C      0.68114  0.11135  0.68114     C
C      0.68114  0.31894  0.11135     C
C      0.68114  0.31894  0.88875     C
C      0.68114  0.68114  0.11135     C
C      0.68114  0.68114  0.88875     C
C      0.68114  0.88875  0.31894     C
C      0.68114  0.88875  0.68114     C
C      0.68615  0.21375  0.38255     C
C      0.68615  0.21375  0.61755     C
C      0.68615  0.38255  0.21375     C
C      0.68615  0.38255  0.78635     C
C      0.68615  0.61755  0.21375     C
C      0.68615  0.61755  0.78635     C
C      0.68615  0.78635  0.38255     C
C      0.68615  0.78635  0.61755     C
H     0.692041  0.07674 0.307959     H
H     0.692041  0.07674 0.692041     H
H     0.692041 0.307959  0.07674     H
H     0.692041 0.307959  0.92326     H
H     0.692041 0.692041  0.07674     H
H     0.692041 0.692041  0.92326     H
H     0.692041  0.92326 0.307959     H
H     0.692041  0.92326 0.692041     H
C      0.70094  0.05004  0.19984     C
C      0.70094  0.05004  0.80024     C
C      0.70094  0.19984  0.05004     C
C      0.70094  0.19984  0.95004     C
C      0.70094  0.80024  0.05004     C
C      0.70094  0.80024  0.95004     C
C      0.70094  0.95004  0.19984     C
C      0.70094  0.95004  0.80024     C
H     0.701535  0.08785 0.198912     H
H     0.701535  0.08785 0.801088     H
H     0.701535 0.198912  0.08785     H
H     0.701535 0.198912  0.91215     H
H     0.701535 0.801088  0.08785     H
H     0.701535 0.801088  0.91215     H
H     0.701535  0.91215 0.198912     H
H     0.701535  0.91215 0.801088     H
N      0.70252  0.13124  0.35294     N
N      0.70252  0.13124  0.64714     N
N      0.70252  0.35294  0.13124     N
N      0.70252  0.35294  0.86884     N
N      0.70252  0.64714  0.13124     N
N      0.70252  0.64714  0.86884     N
N      0.70252  0.86884  0.35294     N
N      0.70252  0.86884  0.64714     N
H     0.709285 0.212281 0.412404     H
H     0.709285 0.212281 0.587596     H
H     0.709285 0.412404 0.212281     H
H     0.709285 0.412404 0.787719     H
H     0.709285 0.587596 0.212281     H
H     0.709285 0.587596 0.787719     H
H     0.709285 0.787719 0.412404     H
H     0.709285 0.787719 0.587596     H
H     0.711805  0.32868 0.390923     H
H     0.711805  0.32868 0.609077     H
H     0.711805 0.390923  0.32868     H
H     0.711805 0.390923  0.67132     H
H     0.711805 0.609077  0.32868     H
H     0.711805 0.609077  0.67132     H
H     0.711805  0.67132 0.390923     H
H     0.711805  0.67132 0.609077     H
N      0.72324  0.10224  0.46072     N
N      0.72324  0.10224  0.53932     N
N      0.72324  0.46072  0.10224     N
N      0.72324  0.46072  0.89784     N
N      0.72324  0.53932  0.10224     N
N      0.72324  0.53932  0.89784     N
N      0.72324  0.89784  0.46072     N
N      0.72324  0.89784  0.53932     N
H     0.724446      0.0 0.427426     H
H     0.724446      0.0 0.572574     H
H     0.724446 0.427426      0.0     H
H     0.724446 0.572574      0.0     H
C      0.73485  0.02475  0.18037     C
C      0.73485  0.02475  0.81977     C
C      0.73485  0.18037  0.02475     C
C      0.73485  0.18037  0.97535     C
C      0.73485  0.81977  0.02475     C
C      0.73485  0.81977  0.97535     C
C      0.73485  0.97535  0.18037     C
C      0.73485  0.97535  0.81977     C
C     0.743616 0.337411 0.372314     C
C     0.743616 0.337411 0.627714     C
C     0.743616 0.372314 0.337411     C
C     0.743616 0.372314 0.662611     C
C     0.743616 0.627714 0.337411     C
C     0.743616 0.627714 0.662611     C
C     0.743616 0.662611 0.372314     C
C     0.743616 0.662611 0.627714     C
C      0.74404      0.0  0.39504     C
C      0.74404      0.0  0.60504     C
C      0.74404  0.39504      0.0     C
C      0.74404  0.60504      0.0     C
C      0.74675  0.11065      0.5     C
C      0.74675      0.5  0.11065     C
C      0.74675      0.5  0.88945     C
C      0.74675  0.88945      0.5     C
Zn    0.748033 0.104294 0.396233    Zn
Zn    0.748033 0.104294 0.603773    Zn
Zn    0.748033 0.396233 0.104294    Zn
Zn    0.748033 0.396233 0.895714    Zn
Zn    0.748033 0.603773 0.104294    Zn
Zn    0.748033 0.603773 0.895714    Zn
Zn    0.748033 0.895714 0.396233    Zn
Zn    0.748033 0.895714 0.603773    Zn
N      0.75604  0.03944  0.37514     N
N      0.75604  0.03944  0.62494     N
N      0.75604  0.37514  0.03944     N
N      0.75604  0.37514  0.96064     N
N      0.75604  0.62494  0.03944     N
N      0.75604  0.62494  0.96064     N
N      0.75604  0.96064  0.37514     N
N      0.75604  0.96064  0.62494     N
H     0.763632 0.042797 0.163715     H
H     0.763632 0.042797 0.836285     H
H     0.763632 0.163715 0.042797     H
H     0.763632 0.163715 0.957203     H
H     0.763632 0.836285 0.042797     H
H     0.763632 0.836285 0.957203     H
H     0.763632 0.957203 0.163715     H
H     0.763632 0.957203 0.836285     H
C      0.77854  0.02564  0.33564     C
C      0.77854  0.02564  0.66444     C
C      0.77854  0.33564  0.02564     C
C      0.77854  0.33564  0.97444     C
C      0.77854  0.66444  0.02564     C
C      0.77854  0.66444  0.97444     C
C      0.77854  0.97444  0.33564     C
C      0.77854  0.97444  0.66444     C
H     0.782356 0.123345      0.5     H
H     0.782356      0.5 0.123345     H
H     0.782356      0.5 0.876655     H
H     0.782356 0.876655      0.5     H
C      0.78635  0.31395  0.38255     C
C      0.78635  0.31395  0.61755     C
C      0.78635  0.38255  0.31395     C
C      0.78635  0.38255  0.68615     C
C      0.78635  0.61755  0.31395     C
C      0.78635  0.61755  0.68615     C
C      0.78635  0.68615  0.38255     C
C      0.78635  0.68615  0.61755     C
H     0.787719 0.290715 0.412404     H
H     0.787719 0.290715 0.587596     H
H     0.787719 0.412404 0.290715     H
H     0.787719 0.412404 0.709285     H
H     0.787719 0.587596 0.290715     H
H     0.787719 0.587596 0.709285     H
H     0.787719 0.709285 0.412404     H
H     0.787719 0.709285 0.587596     H
H      0.79558  0.20442 0.377694     H
H      0.79558  0.20442 0.622306     H
H      0.79558 0.377694  0.20442     H
H      0.79558 0.377694  0.79558     H
H      0.79558 0.622306  0.20442     H
H      0.79558 0.622306  0.79558     H
H      0.79558  0.79558 0.377694     H
H      0.79558  0.79558 0.622306     H
C      0.80024  0.05004  0.29914     C
C      0.80024  0.05004  0.70094     C
C      0.80024  0.29914  0.05004     C
C      0.80024  0.29914  0.95004     C
C      0.80024  0.70094  0.05004     C
C      0.80024  0.70094  0.95004     C
C      0.80024  0.95004  0.29914     C
C      0.80024  0.95004  0.70094     C
H     0.801088  0.08785 0.298465     H
H     0.801088  0.08785 0.701535     H
H     0.801088 0.298465  0.08785     H
H     0.801088 0.298465  0.91215     H
H     0.801088 0.701535  0.08785     H
H     0.801088 0.701535  0.91215     H
H     0.801088  0.91215 0.298465     H
H     0.801088  0.91215 0.701535     H
N      0.80944  0.13584  0.39922     N
N      0.80944  0.13584  0.60082     N
N      0.80944  0.39922  0.13584     N
N      0.80944  0.39922  0.86424     N
N      0.80944  0.60082  0.13584     N
N      0.80944  0.60082  0.86424     N
N      0.80944  0.86424  0.39922     N
N      0.80944  0.86424  0.60082     N
C      0.81977  0.02475  0.26525     C
C      0.81977  0.02475  0.73485     C
C      0.81977  0.26525  0.02475     C
C      0.81977  0.26525  0.97535     C
C      0.81977  0.73485  0.02475     C
C      0.81977  0.73485  0.97535     C
C      0.81977  0.97535  0.26525     C
C      0.81977  0.97535  0.73485     C
C      0.82074  0.17934  0.39084     C
C      0.82074  0.17934  0.60924     C
C      0.82074  0.39084  0.17934     C
C      0.82074  0.39084  0.82074     C
C      0.82074  0.60924  0.17934     C
C      0.82074  0.60924  0.82074     C
C      0.82074  0.82074  0.39084     C
C      0.82074  0.82074  0.60924     C
C      0.82624  0.31974  0.35544     C
C      0.82624  0.31974  0.64464     C
C      0.82624  0.35544  0.31974     C
C      0.82624  0.35544  0.68034     C
C      0.82624  0.64464  0.31974     C
C      0.82624  0.64464  0.68034     C
C      0.82624  0.68034  0.35544     C
C      0.82624  0.68034  0.64464     C
H      0.82836 0.046003 0.441646     H
H      0.82836 0.046003 0.558354     H
H      0.82836 0.441646 0.046003     H
H      0.82836 0.441646 0.953997     H
H      0.82836 0.558354 0.046003     H
H      0.82836 0.558354 0.953997     H
H      0.82836 0.953997 0.441646     H
H      0.82836 0.953997 0.558354     H
H     0.836285 0.042797 0.236368     H
H     0.836285 0.042797 0.763632     H
H     0.836285 0.236368 0.042797     H
H     0.836285 0.236368 0.957203     H
H     0.836285 0.763632 0.042797     H
H     0.836285 0.763632 0.957203     H
H     0.836285 0.957203 0.236368     H
H     0.836285 0.957203 0.763632     H
C      0.84378  0.12017  0.42308     C
C      0.84378  0.12017  0.57708     C
C      0.84378  0.42308  0.12017     C
C      0.84378  0.42308  0.87997     C
C      0.84378  0.57708  0.12017     C
C      0.84378  0.57708  0.87997     C
C      0.84378  0.87997  0.42308     C
C      0.84378  0.87997  0.57708     C
C      0.85347  0.07447  0.44237     C
C      0.85347  0.07447  0.55777     C
C      0.85347  0.44237  0.07447     C
C      0.85347  0.44237  0.92567     C
C      0.85347  0.55777  0.07447     C
C      0.85347  0.55777  0.92567     C
C      0.85347  0.92567  0.44237     C
C      0.85347  0.92567  0.55777     C
N      0.86424  0.19064  0.39922     N
N      0.86424  0.19064  0.60082     N
N      0.86424  0.39922  0.19064     N
N      0.86424  0.39922  0.80944     N
N      0.86424  0.60082  0.19064     N
N      0.86424  0.60082  0.80944     N
N      0.86424  0.80944  0.39922     N
N      0.86424  0.80944  0.60082     N
N      0.86884  0.29752  0.35294     N
N      0.86884  0.29752  0.64714     N
N      0.86884  0.35294  0.29752     N
N      0.86884  0.35294  0.70252     N
N      0.86884  0.64714  0.29752     N
N      0.86884  0.64714  0.70252     N
N      0.86884  0.70252  0.35294     N
N      0.86884  0.70252  0.64714     N
H     0.876655 0.217644      0.5     H
H     0.876655      0.5 0.217644     H
H     0.876655      0.5 0.782356     H
H     0.876655 0.782356      0.5     H
C      0.87997  0.15638  0.42308     C
C      0.87997  0.15638  0.57708     C
C      0.87997  0.42308  0.15638     C
C      0.87997  0.42308  0.84378     C
C      0.87997  0.57708  0.15638     C
C      0.87997  0.57708  0.84378     C
C      0.87997  0.84378  0.42308     C
C      0.87997  0.84378  0.57708     C
C      0.88875  0.31894  0.31894     C
C      0.88875  0.31894  0.68114     C
C      0.88875  0.68114  0.31894     C
C      0.88875  0.68114  0.68114     C
C      0.88945  0.25335      0.5     C
C      0.88945      0.5  0.25335     C
C      0.88945      0.5  0.74675     C
C      0.88945  0.74675      0.5     C
Zn    0.895714 0.251973 0.396233    Zn
Zn    0.895714 0.251973 0.603773    Zn
Zn    0.895714 0.396233 0.251973    Zn
Zn    0.895714 0.396233 0.748033    Zn
Zn    0.895714 0.603773 0.251973    Zn
Zn    0.895714 0.603773 0.748033    Zn
Zn    0.895714 0.748033 0.396233    Zn
Zn    0.895714 0.748033 0.603773    Zn
C      0.89627  0.07037  0.46117     C
C      0.89627  0.07037  0.53897     C
C      0.89627  0.46117  0.07037     C
C      0.89627  0.46117  0.92977     C
C      0.89627  0.53897  0.07037     C
C      0.89627  0.53897  0.92977     C
C      0.89627  0.92977  0.46117     C
C      0.89627  0.92977  0.53897     C
N      0.89784  0.27684  0.46072     N
N      0.89784  0.27684  0.53932     N
N      0.89784  0.46072  0.27684     N
N      0.89784  0.46072  0.72324     N
N      0.89784  0.53932  0.27684     N
N      0.89784  0.53932  0.72324     N
N      0.89784  0.72324  0.46072     N
N      0.89784  0.72324  0.53932     N
C      0.89851  0.32314  0.47478     C
C      0.89851  0.32314  0.52538     C
C      0.89851  0.47478  0.32314     C
C      0.89851  0.47478  0.67694     C
C      0.89851  0.52538  0.32314     C
C      0.89851  0.52538  0.67694     C
C      0.89851  0.67694  0.47478     C
C      0.89851  0.67694  0.52538     C
C      0.90438  0.36477  0.44997     C
C      0.90438  0.36477  0.55017     C
C      0.90438  0.44997  0.36477     C
C      0.90438  0.44997  0.63537     C
C      0.90438  0.55017  0.36477     C
C      0.90438  0.55017  0.63537     C
C      0.90438  0.63537  0.44997     C
C      0.90438  0.63537  0.55017     C
H       0.9047 0.037352 0.477714     H
H       0.9047 0.037352 0.522286     H
H       0.9047 0.477714 0.037352     H
H       0.9047 0.477714 0.962647     H
H       0.9047 0.522286 0.037352     H
H       0.9047 0.522286 0.962647     H
H       0.9047 0.962647 0.477714     H
H       0.9047 0.962647 0.522286     H
H     0.905328 0.365291 0.412053     H
H     0.905328 0.365291 0.587947     H
H     0.905328 0.412053 0.365291     H
H     0.905328 0.412053 0.634709     H
H     0.905328 0.587947 0.365291     H
H     0.905328 0.587947 0.634709     H
H     0.905328 0.634709 0.412053     H
H     0.905328 0.634709 0.587947     H
C      0.90879  0.40549  0.47628     C
C      0.90879  0.40549  0.52388     C
C      0.90879  0.47628  0.40549     C
C      0.90879  0.47628  0.59469     C
C      0.90879  0.52388  0.40549     C
C      0.90879  0.52388  0.59469     C
C      0.90879  0.59469  0.47628     C
C      0.90879  0.59469  0.52388     C
H      0.91215 0.198912 0.298465     H
H      0.91215 0.198912 0.701535     H
H      0.91215 0.298465 0.198912     H
H      0.91215 0.298465 0.801088     H
H      0.91215 0.701535 0.198912     H
H      0.91215 0.701535 0.801088     H
H      0.91215 0.801088 0.298465     H
H      0.91215 0.801088 0.701535     H
H     0.912272  0.43844  0.45805     H
H     0.912272  0.43844  0.54195     H
H     0.912272  0.45805  0.43844     H
H     0.912272  0.45805  0.56156     H
H     0.912272  0.54195  0.43844     H
H     0.912272  0.54195  0.56156     H
H     0.912272  0.56156  0.45805     H
H     0.912272  0.56156  0.54195     H
H      0.92326 0.307959 0.307959     H
H      0.92326 0.307959 0.692041     H
H      0.92326 0.692041 0.307959     H
H      0.92326 0.692041 0.692041     H
C      0.92567  0.14667  0.44237     C
C      0.92567  0.14667  0.55777     C
C      0.92567  0.44237  0.14667     C
C      0.92567  0.44237  0.85347     C
C      0.92567  0.55777  0.14667     C
C      0.92567  0.55777  0.85347     C
C      0.92567  0.85347  0.44237     C
C      0.92567  0.85347  0.55777     C
C      0.92977  0.10387  0.46117     C
C      0.92977  0.10387  0.53897     C
C      0.92977  0.46117  0.10387     C
C      0.92977  0.46117  0.89627     C
C      0.92977  0.53897  0.10387     C
C      0.92977  0.53897  0.89627     C
C      0.92977  0.89627  0.46117     C
C      0.92977  0.89627  0.53897     C
C      0.95004  0.19984  0.29914     C
C      0.95004  0.19984  0.70094     C
C      0.95004  0.29914  0.19984     C
C      0.95004  0.29914  0.80024     C
C      0.95004  0.70094  0.19984     C
C      0.95004  0.70094  0.80024     C
C      0.95004  0.80024  0.29914     C
C      0.95004  0.80024  0.70094     C
H     0.953997  0.17164 0.441646     H
H     0.953997  0.17164 0.558354     H
H     0.953997 0.441646  0.17164     H
H     0.953997 0.441646  0.82836     H
H     0.953997 0.558354  0.17164     H
H     0.953997 0.558354  0.82836     H
H     0.953997  0.82836 0.441646     H
H     0.953997  0.82836 0.558354     H
H     0.957203 0.163715 0.236368     H
H     0.957203 0.163715 0.763632     H
H     0.957203 0.236368 0.163715     H
H     0.957203 0.236368 0.836285     H
H     0.957203 0.763632 0.163715     H
H     0.957203 0.763632 0.836285     H
H     0.957203 0.836285 0.236368     H
H     0.957203 0.836285 0.763632     H
N      0.96064  0.24404  0.37514     N
N      0.96064  0.24404  0.62494     N
N      0.96064  0.37514  0.24404     N
N      0.96064  0.37514  0.75604     N
N      0.96064  0.62494  0.24404     N
N      0.96064  0.62494  0.75604     N
N      0.96064  0.75604  0.37514     N
N      0.96064  0.75604  0.62494     N
H     0.962647   0.0953 0.477714     H
H     0.962647   0.0953 0.522286     H
H     0.962647 0.477714   0.0953     H
H     0.962647 0.477714   0.9047     H
H     0.962647 0.522286   0.0953     H
H     0.962647 0.522286   0.9047     H
H     0.962647   0.9047 0.477714     H
H     0.962647   0.9047 0.522286     H
C      0.97444  0.22154  0.33564     C
C      0.97444  0.22154  0.66444     C
C      0.97444  0.33564  0.22154     C
C      0.97444  0.33564  0.77854     C
C      0.97444  0.66444  0.22154     C
C      0.97444  0.66444  0.77854     C
C      0.97444  0.77854  0.33564     C
C      0.97444  0.77854  0.66444     C
C      0.97535  0.18037  0.26525     C
C      0.97535  0.18037  0.73485     C
C      0.97535  0.26525  0.18037     C
C      0.97535  0.26525  0.81977     C
C      0.97535  0.73485  0.18037     C
C      0.97535  0.73485  0.81977     C
C      0.97535  0.81977  0.26525     C
C      0.97535  0.81977  0.73485     C
