data_I
_chemical_name_common  '/Users/gianmarcoterrones/Downloads/Zn-DMOF-Cl2_no_solvent'
_cell_length_a 21.81830
_cell_length_b 21.81830
_cell_length_c 38.66080
_cell_angle_alpha 90.00000
_cell_angle_beta  90.00000
_cell_angle_gamma 90.00000
_space_group_name_H-M_alt      'P 1'


loop_
_space_group_symop_operation_xyz
  'x, y, z' 

loop_
_atom_site_label
_atom_site_fract_x
_atom_site_fract_y
_atom_site_fract_z
_atom_site_type_symbol
C      0.01424  0.02434 0.0963616     C
C      0.01424  0.47574 0.5963616     C
C      0.01424  0.52434 0.9036416     C
C      0.01424  0.97574 0.4036416     C
C      0.02474  0.01734 0.3475018     C
C      0.02474  0.48274 0.8475018     C
C      0.02474  0.51734 0.6525018     C
C      0.02474  0.98274 0.1525018     C
C      0.03784  0.02414 0.8453717     C
C      0.03784  0.47594 0.3453717     C
C      0.03784  0.52414 0.1546317     C
C      0.03784  0.97594 0.6546317     C
Cl    0.042539 0.0576116 0.058216    Cl
Cl    0.042539 0.4423916 0.558216    Cl
Cl    0.042539 0.5576116 0.941796    Cl
Cl    0.042539 0.9423916 0.441796    Cl
C      0.04864  0.01804 0.5982017     C
C      0.04864  0.48204 0.0982017     C
C      0.04864  0.51804 0.4018017     C
C      0.04864  0.98204 0.9018017     C
C      0.05234  0.00724 0.1230516     C
C      0.05234  0.49284 0.6230516     C
C      0.05234  0.50724 0.8769516     C
C      0.05234  0.99284 0.3769516     C
H      0.05322  0.03131 0.325777     H
H      0.05322  0.46869 0.825777     H
H      0.05322  0.53131 0.674223     H
H      0.05322  0.96869 0.174223     H
Cl    0.066369 0.0563516 0.807636    Cl
Cl    0.066369 0.4436516 0.307636    Cl
Cl    0.066369 0.5563516 0.192376    Cl
Cl    0.066369 0.9436516 0.692376    Cl
C      0.07614  0.00624 0.8723716     C
C      0.07614  0.49384 0.3723716     C
C      0.07614  0.50624 0.1276316     C
C      0.07614  0.99384 0.6276316     C
H     0.076911 0.032104 0.576409     H
H     0.076911 0.467896 0.076409     H
H     0.076911 0.532104 0.423591     H
H     0.076911 0.967896 0.923591     H
C      0.12144  0.01074 0.1231516     C
C      0.12144  0.48934 0.6231516     C
C      0.12144  0.51074 0.8768516     C
C      0.12144  0.98934 0.3768516     C
C      0.14474  0.01024 0.8720816     C
C      0.14474  0.48984 0.3720816     C
C      0.14474  0.51024 0.1279216     C
C      0.14474  0.98984 0.6279216     C
O      0.14582  0.02212 0.1514511     O
O      0.14582  0.47792 0.6514511     O
O      0.14582  0.52212 0.8485511     O
O      0.14582  0.97792 0.3485511     O
H     0.147043 0.036705 0.280861     H
H     0.147043 0.463295 0.780861     H
H     0.147043 0.536705 0.719139     H
H     0.147043 0.963295 0.219139     H
H     0.147477  0.04458 0.222522     H
H     0.147477  0.45542 0.722522     H
H     0.147477  0.54458 0.777478     H
H     0.147477  0.95542 0.277478     H
O      0.14822  0.00062 0.0948011     O
O      0.14822  0.49942 0.5948011     O
O      0.14822  0.50062 0.9052011     O
O      0.14822  0.99942 0.4052011     O
H     0.150363 0.005093 0.025758     H
H     0.150363 0.494907 0.525758     H
H     0.150363 0.505093 0.974242     H
H     0.150363 0.994907 0.474242     H
H     0.157517 0.007601 0.967492     H
H     0.157517 0.492399 0.467492     H
H     0.157517 0.507601 0.032508     H
H     0.157517 0.992399 0.532508     H
O      0.16982  0.02512 0.9002711     O
O      0.16982  0.47492 0.4002711     O
O      0.16982  0.52512 0.0997311     O
O      0.16982  0.97492 0.5997311     O
C      0.17094  0.00265 0.2301017     C
C      0.17094  0.49745 0.7301017     C
C      0.17094  0.50265 0.7699017     C
C      0.17094  0.99745 0.2699017     C
O      0.17222  0.00222 0.6556412     O
O      0.17222  0.49782 0.1556412     O
O      0.17222  0.50222 0.3443612     O
O      0.17222  0.99782 0.8443612     O
H      0.18507 0.057954 0.776699     H
H      0.18507 0.442046   0.2767     H
H      0.18507 0.557954 0.223301     H
H      0.18507 0.942046 0.723301     H
H     0.186504 0.052656 0.718358     H
H     0.186504 0.447344 0.218358     H
H     0.186504 0.552656 0.281642     H
H     0.186504 0.947344 0.781642     H
H     0.192046  0.06493   0.4733     H
H     0.192046  0.43507 0.973301     H
H     0.192046  0.56493 0.526699     H
H     0.192046  0.93507   0.0267     H
Cl    0.1923916 0.207479 0.191796    Cl
Cl    0.1923916 0.292539 0.691796    Cl
Cl    0.1923916 0.707479 0.808216    Cl
Cl    0.1923916 0.792539 0.308216    Cl
C      0.19254  0.01764 0.4822417     C
C      0.19254  0.48244 0.9822417     C
C      0.19254  0.51764 0.5177617     C
C      0.19254  0.98244 0.0177617     C
Cl    0.1936516 0.183649 0.442376    Cl
Cl    0.1936516 0.316369 0.942376    Cl
Cl    0.1936516 0.683649 0.557636    Cl
Cl    0.1936516 0.816369 0.057636    Cl
C      0.19704  0.01664 0.5220017     C
C      0.19704  0.48344 0.0220017     C
C      0.19704  0.51664 0.4780017     C
C      0.19704  0.98344 0.9780017     C
H     0.197344 0.063496 0.531642     H
H     0.197344 0.436504 0.031642     H
H     0.197344 0.563496 0.468358     H
H     0.197344 0.936504 0.968358     H
H      0.20542 0.102523 0.027478     H
H      0.20542 0.397477 0.527478     H
H      0.20542 0.602523 0.972522     H
H      0.20542 0.897477 0.472522     H
H     0.213295 0.102957 0.969139     H
H     0.213295 0.397043 0.469139     H
H     0.213295 0.602957 0.030861     H
H     0.213295 0.897043 0.530861     H
H     0.217896 0.173089 0.673591     H
H     0.217896 0.326911 0.173591     H
H     0.217896 0.673089 0.326409     H
H     0.217896 0.826911 0.826409     H
H      0.21869  0.19678 0.924223     H
H      0.21869  0.30322 0.424223     H
H      0.21869  0.69678 0.075777     H
H      0.21869  0.80322 0.575777     H
O      0.22492  0.08022 0.3497311     O
O      0.22492  0.41982 0.8497311     O
O      0.22492  0.58022 0.6502711     O
O      0.22492  0.91982 0.1502711     O
C      0.22574  0.23584 0.1536416     C
C      0.22574  0.26424 0.6536416     C
C      0.22574  0.73584 0.8463616     C
C      0.22574  0.76424 0.3463616     C
C      0.22594  0.21224 0.4046317     C
C      0.22594  0.28784 0.9046317     C
C      0.22594  0.71224 0.5953717     C
C      0.22594  0.78784 0.0953717     C
O      0.22792  0.10422 0.0985511     O
O      0.22792  0.39582 0.5985511     O
O      0.22792  0.60422 0.9014511     O
O      0.22792  0.89582 0.4014511     O
C      0.23204  0.20144 0.6518017     C
C      0.23204  0.29864 0.1518017     C
C      0.23204  0.70144 0.3482017     C
C      0.23204  0.79864 0.8482017     C
C      0.23244  0.05754 0.7677617     C
C      0.23244  0.44254 0.2677617     C
C      0.23244  0.55754 0.2322417     C
C      0.23244  0.94254 0.7322417     C
C      0.23274  0.22534 0.9025018     C
C      0.23274  0.27474 0.4025018     C
C      0.23274  0.72534 0.0975018     C
C      0.23274  0.77474 0.5975018     C
C      0.23344  0.05304 0.7280017     C
C      0.23344  0.44704 0.2280017     C
C      0.23344  0.55304 0.2720017     C
C      0.23344  0.94704 0.7720017     C
N      0.23512  0.00402 0.2167612     N
N      0.23512  0.49602 0.7167612     N
N      0.23512  0.50402 0.7832412     N
N      0.23512  0.99602 0.2832412     N
Zn    0.236033 0.010243 0.16367315    Zn
Zn    0.236033 0.489763 0.66367315    Zn
Zn    0.236033 0.510243 0.83632715    Zn
Zn    0.236033 0.989763 0.33632715    Zn
C      0.23934  0.12864 0.1268516     C
C      0.23934  0.37144 0.6268516     C
C      0.23934  0.62864 0.8731516     C
C      0.23934  0.87144 0.3731516     C
Zn    0.239763 0.013973 0.08632715    Zn
Zn    0.239763 0.486033 0.58632715    Zn
Zn    0.239763 0.513973 0.91367315    Zn
Zn    0.239763 0.986033 0.41367315    Zn
C      0.23984  0.10534 0.3779216     C
C      0.23984  0.39474 0.8779216     C
C      0.23984  0.60534 0.6220816     C
C      0.23984  0.89474 0.1220816     C
H     0.242399 0.092483 0.282508     H
H     0.242399 0.407517 0.782508     H
H     0.242399 0.592483 0.717492     H
H     0.242399 0.907517 0.217492     H
C      0.24284  0.19774 0.1269516     C
C      0.24284  0.30234 0.6269516     C
C      0.24284  0.69774 0.8730516     C
C      0.24284  0.80234 0.3730516     C
C      0.24384  0.17394 0.3776316     C
C      0.24384  0.32614 0.8776316     C
C      0.24384  0.67394 0.6223716     C
C      0.24384  0.82614 0.1223716     C
H     0.244907 0.099637 0.224242     H
H     0.244907 0.400363 0.724242     H
H     0.244907 0.599637 0.775758     H
H     0.244907 0.900363 0.275758     H
N      0.24602  0.01492 0.0332412     N
N      0.24602  0.48512 0.5332412     N
N      0.24602  0.51492 0.9667612     N
N      0.24602  0.98512 0.4667612     N
C      0.24745  0.07914 0.0199017     C
C      0.24745  0.42094 0.5199017     C
C      0.24745  0.57914 0.9801017     C
C      0.24745  0.92094 0.4801017     C
O      0.24782  0.07782 0.5943612     O
O      0.24782  0.42222 0.0943612     O
O      0.24782  0.57782 0.4056412     O
O      0.24782  0.92222 0.9056412     O
O      0.24942  0.10182 0.1552011     O
O      0.24942  0.39822 0.6552011     O
O      0.24942  0.60182 0.8448011     O
O      0.24942  0.89822 0.3448011     O
O      0.25062  0.10182 0.8448011     O
O      0.25062  0.39822 0.3448011     O
O      0.25062  0.60182 0.1552011     O
O      0.25062  0.89822 0.6552011     O
O      0.25222  0.07782 0.4056412     O
O      0.25222  0.42222 0.9056412     O
O      0.25222  0.57782 0.5943612     O
O      0.25222  0.92222 0.0943612     O
C      0.25265  0.07914 0.9801017     C
C      0.25265  0.42094 0.4801017     C
C      0.25265  0.57914 0.0199017     C
C      0.25265  0.92094 0.5199017     C
N      0.25402  0.01492 0.9667612     N
N      0.25402  0.48512 0.4667612     N
N      0.25402  0.51492 0.0332412     N
N      0.25402  0.98512 0.5332412     N
H     0.255093 0.099637 0.775758     H
H     0.255093 0.400363 0.275758     H
H     0.255093 0.599637 0.224242     H
H     0.255093 0.900363 0.724242     H
C      0.25624  0.17394 0.6223716     C
C      0.25624  0.32614 0.1223716     C
C      0.25624  0.67394 0.3776316     C
C      0.25624  0.82614 0.8776316     C
C      0.25724  0.19774 0.8730516     C
C      0.25724  0.30234 0.3730516     C
C      0.25724  0.69774 0.1269516     C
C      0.25724  0.80234 0.6269516     C
H     0.257601 0.092483 0.717492     H
H     0.257601 0.407517 0.217492     H
H     0.257601 0.592483 0.282508     H
H     0.257601 0.907517 0.782508     H
C      0.26024  0.10534 0.6220816     C
C      0.26024  0.39474 0.1220816     C
C      0.26024  0.60534 0.3779216     C
C      0.26024  0.89474 0.8779216     C
Zn    0.260243 0.013973 0.91367315    Zn
Zn    0.260243 0.486033 0.41367315    Zn
Zn    0.260243 0.513973 0.08632715    Zn
Zn    0.260243 0.986033 0.58632715    Zn
C      0.26074  0.12864 0.8731516     C
C      0.26074  0.37144 0.3731516     C
C      0.26074  0.62864 0.1268516     C
C      0.26074  0.87144 0.6268516     C
Zn    0.263973 0.010243 0.83632715    Zn
Zn    0.263973 0.489763 0.33632715    Zn
Zn    0.263973 0.510243 0.16367315    Zn
Zn    0.263973 0.989763 0.66367315    Zn
N      0.26492  0.00402 0.7832412     N
N      0.26492  0.49602 0.2832412     N
N      0.26492  0.50402 0.2167612     N
N      0.26492  0.99602 0.7167612     N
C      0.26664  0.05304 0.2720017     C
C      0.26664  0.44704 0.7720017     C
C      0.26664  0.55304 0.7280017     C
C      0.26664  0.94704 0.2280017     C
C      0.26734  0.22534 0.0975018     C
C      0.26734  0.27474 0.5975018     C
C      0.26734  0.72534 0.9025018     C
C      0.26734  0.77474 0.4025018     C
C      0.26764  0.05754 0.2322417     C
C      0.26764  0.44254 0.7322417     C
C      0.26764  0.55754 0.7677617     C
C      0.26764  0.94254 0.2677617     C
C      0.26804  0.20144 0.3482017     C
C      0.26804  0.29864 0.8482017     C
C      0.26804  0.70144 0.6518017     C
C      0.26804  0.79864 0.1518017     C
O      0.27212  0.10422 0.9014511     O
O      0.27212  0.39582 0.4014511     O
O      0.27212  0.60422 0.0985511     O
O      0.27212  0.89582 0.5985511     O
C      0.27414  0.21224 0.5953717     C
C      0.27414  0.28784 0.0953717     C
C      0.27414  0.71224 0.4046317     C
C      0.27414  0.78784 0.9046317     C
C      0.27434  0.23584 0.8463616     C
C      0.27434  0.26424 0.3463616     C
C      0.27434  0.73584 0.1536416     C
C      0.27434  0.76424 0.6536416     C
O      0.27512  0.08022 0.6502711     O
O      0.27512  0.41982 0.1502711     O
O      0.27512  0.58022 0.3497311     O
O      0.27512  0.91982 0.8497311     O
H      0.28131  0.19678 0.075777     H
H      0.28131  0.30322 0.575777     H
H      0.28131  0.69678 0.924223     H
H      0.28131  0.80322 0.424223     H
H     0.282104 0.173089 0.326409     H
H     0.282104 0.326911 0.826409     H
H     0.282104 0.673089 0.673591     H
H     0.282104 0.826911 0.173591     H
H     0.286705 0.102957 0.030861     H
H     0.286705 0.397043 0.530861     H
H     0.286705 0.602957 0.969139     H
H     0.286705 0.897043 0.469139     H
H      0.29458 0.102523 0.972522     H
H      0.29458 0.397477 0.472522     H
H      0.29458 0.602523 0.027478     H
H      0.29458 0.897477 0.527478     H
H     0.302656 0.063496 0.468358     H
H     0.302656 0.436504 0.968358     H
H     0.302656 0.563496 0.531642     H
H     0.302656 0.936504 0.031642     H
C      0.30304  0.01664 0.4780017     C
C      0.30304  0.48344 0.9780017     C
C      0.30304  0.51664 0.5220017     C
C      0.30304  0.98344 0.0220017     C
Cl    0.3063516 0.183649 0.557636    Cl
Cl    0.3063516 0.316369 0.057636    Cl
Cl    0.3063516 0.683649 0.442376    Cl
Cl    0.3063516 0.816369 0.942376    Cl
C      0.30754  0.01764 0.5177617     C
C      0.30754  0.48244 0.0177617     C
C      0.30754  0.51764 0.4822417     C
C      0.30754  0.98244 0.9822417     C
Cl    0.3076116 0.207479 0.808216    Cl
Cl    0.3076116 0.292539 0.308216    Cl
Cl    0.3076116 0.707479 0.191796    Cl
Cl    0.3076116 0.792539 0.691796    Cl
H     0.307954  0.06493 0.526699     H
H     0.307954  0.43507   0.0267     H
H     0.307954  0.56493   0.4733     H
H     0.307954  0.93507 0.973301     H
H     0.313496 0.052656 0.281642     H
H     0.313496 0.447344 0.781642     H
H     0.313496 0.552656 0.718358     H
H     0.313496 0.947344 0.218358     H
H      0.31493 0.057954 0.223301     H
H      0.31493 0.442046 0.723301     H
H      0.31493 0.557954 0.776699     H
H      0.31493 0.942046   0.2767     H
O      0.32782  0.00222 0.3443612     O
O      0.32782  0.49782 0.8443612     O
O      0.32782  0.50222 0.6556412     O
O      0.32782  0.99782 0.1556412     O
C      0.32914  0.00265 0.7699017     C
C      0.32914  0.49745 0.2699017     C
C      0.32914  0.50265 0.2301017     C
C      0.32914  0.99745 0.7301017     C
O      0.33022  0.02512 0.0997311     O
O      0.33022  0.47492 0.5997311     O
O      0.33022  0.52512 0.9002711     O
O      0.33022  0.97492 0.4002711     O
H     0.342483 0.007601 0.032508     H
H     0.342483 0.492399 0.532508     H
H     0.342483 0.507601 0.967492     H
H     0.342483 0.992399 0.467492     H
H     0.349637 0.005093 0.974242     H
H     0.349637 0.494907 0.474242     H
H     0.349637 0.505093 0.025758     H
H     0.349637 0.994907 0.525758     H
O      0.35182  0.00062 0.9052011     O
O      0.35182  0.49942 0.4052011     O
O      0.35182  0.50062 0.0948011     O
O      0.35182  0.99942 0.5948011     O
H     0.352523  0.04458 0.777478     H
H     0.352523  0.45542 0.277478     H
H     0.352523  0.54458 0.222522     H
H     0.352523  0.95542 0.722522     H
H     0.352957 0.036705 0.719139     H
H     0.352957 0.463295 0.219139     H
H     0.352957 0.536705 0.280861     H
H     0.352957 0.963295 0.780861     H
O      0.35422  0.02212 0.8485511     O
O      0.35422  0.47792 0.3485511     O
O      0.35422  0.52212 0.1514511     O
O      0.35422  0.97792 0.6514511     O
C      0.35534  0.01024 0.1279216     C
C      0.35534  0.48984 0.6279216     C
C      0.35534  0.51024 0.8720816     C
C      0.35534  0.98984 0.3720816     C
C      0.37864  0.01074 0.8768516     C
C      0.37864  0.48934 0.3768516     C
C      0.37864  0.51074 0.1231516     C
C      0.37864  0.98934 0.6231516     C
H     0.423089 0.032104 0.423591     H
H     0.423089 0.467896 0.923591     H
H     0.423089 0.532104 0.576409     H
H     0.423089 0.967896 0.076409     H
C      0.42394  0.00624 0.1276316     C
C      0.42394  0.49384 0.6276316     C
C      0.42394  0.50624 0.8723716     C
C      0.42394  0.99384 0.3723716     C
Cl    0.433649 0.0563516 0.192376    Cl
Cl    0.433649 0.4436516 0.692376    Cl
Cl    0.433649 0.5563516 0.807636    Cl
Cl    0.433649 0.9436516 0.307636    Cl
H      0.44678  0.03131 0.674223     H
H      0.44678  0.46869 0.174223     H
H      0.44678  0.53131 0.325777     H
H      0.44678  0.96869 0.825777     H
C      0.44774  0.00724 0.8769516     C
C      0.44774  0.49284 0.3769516     C
C      0.44774  0.50724 0.1230516     C
C      0.44774  0.99284 0.6230516     C
C      0.45144  0.01804 0.4018017     C
C      0.45144  0.48204 0.9018017     C
C      0.45144  0.51804 0.5982017     C
C      0.45144  0.98204 0.0982017     C
Cl    0.457479 0.0576116 0.941796    Cl
Cl    0.457479 0.4423916 0.441796    Cl
Cl    0.457479 0.5576116 0.058216    Cl
Cl    0.457479 0.9423916 0.558216    Cl
C      0.46224  0.02414 0.1546317     C
C      0.46224  0.47594 0.6546317     C
C      0.46224  0.52414 0.8453717     C
C      0.46224  0.97594 0.3453717     C
C      0.47534  0.01734 0.6525018     C
C      0.47534  0.48274 0.1525018     C
C      0.47534  0.51734 0.3475018     C
C      0.47534  0.98274 0.8475018     C
C      0.48584  0.02434 0.9036416     C
C      0.48584  0.47574 0.4036416     C
C      0.48584  0.52434 0.0963616     C
C      0.48584  0.97574 0.5963616     C
C      0.51424  0.02434 0.4036416     C
C      0.51424  0.47574 0.9036416     C
C      0.51424  0.52434 0.5963616     C
C      0.51424  0.97574 0.0963616     C
C      0.52474  0.01734 0.1525018     C
C      0.52474  0.48274 0.6525018     C
C      0.52474  0.51734 0.8475018     C
C      0.52474  0.98274 0.3475018     C
C      0.53784  0.02414 0.6546317     C
C      0.53784  0.47594 0.1546317     C
C      0.53784  0.52414 0.3453717     C
C      0.53784  0.97594 0.8453717     C
Cl    0.542539 0.0576116 0.441796    Cl
Cl    0.542539 0.4423916 0.941796    Cl
Cl    0.542539 0.5576116 0.558216    Cl
Cl    0.542539 0.9423916 0.058216    Cl
C      0.54864  0.01804 0.9018017     C
C      0.54864  0.48204 0.4018017     C
C      0.54864  0.51804 0.0982017     C
C      0.54864  0.98204 0.5982017     C
C      0.55234  0.00724 0.3769516     C
C      0.55234  0.49284 0.8769516     C
C      0.55234  0.50724 0.6230516     C
C      0.55234  0.99284 0.1230516     C
H      0.55322  0.03131 0.174223     H
H      0.55322  0.46869 0.674223     H
H      0.55322  0.53131 0.825777     H
H      0.55322  0.96869 0.325777     H
Cl    0.566369 0.0563516 0.692376    Cl
Cl    0.566369 0.4436516 0.192376    Cl
Cl    0.566369 0.5563516 0.307636    Cl
Cl    0.566369 0.9436516 0.807636    Cl
C      0.57614  0.00624 0.6276316     C
C      0.57614  0.49384 0.1276316     C
C      0.57614  0.50624 0.3723716     C
C      0.57614  0.99384 0.8723716     C
H     0.576911 0.032104 0.923591     H
H     0.576911 0.467896 0.423591     H
H     0.576911 0.532104 0.076409     H
H     0.576911 0.967896 0.576409     H
C      0.62144  0.01074 0.3768516     C
C      0.62144  0.48934 0.8768516     C
C      0.62144  0.51074 0.6231516     C
C      0.62144  0.98934 0.1231516     C
C      0.64474  0.01024 0.6279216     C
C      0.64474  0.48984 0.1279216     C
C      0.64474  0.51024 0.3720816     C
C      0.64474  0.98984 0.8720816     C
O      0.64582  0.02212 0.3485511     O
O      0.64582  0.47792 0.8485511     O
O      0.64582  0.52212 0.6514511     O
O      0.64582  0.97792 0.1514511     O
H     0.647043 0.036705 0.219139     H
H     0.647043 0.463295 0.719139     H
H     0.647043 0.536705 0.780861     H
H     0.647043 0.963295 0.280861     H
H     0.647477  0.04458 0.277478     H
H     0.647477  0.45542 0.777478     H
H     0.647477  0.54458 0.722522     H
H     0.647477  0.95542 0.222522     H
O      0.64822  0.00062 0.4052011     O
O      0.64822  0.49942 0.9052011     O
O      0.64822  0.50062 0.5948011     O
O      0.64822  0.99942 0.0948011     O
H     0.650363 0.005093 0.474242     H
H     0.650363 0.494907 0.974242     H
H     0.650363 0.505093 0.525758     H
H     0.650363 0.994907 0.025758     H
H     0.657517 0.007601 0.532508     H
H     0.657517 0.492399 0.032508     H
H     0.657517 0.507601 0.467492     H
H     0.657517 0.992399 0.967492     H
O      0.66982  0.02512 0.5997311     O
O      0.66982  0.47492 0.0997311     O
O      0.66982  0.52512 0.4002711     O
O      0.66982  0.97492 0.9002711     O
C      0.67094  0.00265 0.2699017     C
C      0.67094  0.49745 0.7699017     C
C      0.67094  0.50265 0.7301017     C
C      0.67094  0.99745 0.2301017     C
O      0.67222  0.00222 0.8443612     O
O      0.67222  0.49782 0.3443612     O
O      0.67222  0.50222 0.1556412     O
O      0.67222  0.99782 0.6556412     O
H      0.68507 0.057954 0.723301     H
H      0.68507 0.442046 0.223301     H
H      0.68507 0.557954   0.2767     H
H      0.68507 0.942046 0.776699     H
H     0.686504 0.052656 0.781642     H
H     0.686504 0.447344 0.281642     H
H     0.686504 0.552656 0.218358     H
H     0.686504 0.947344 0.718358     H
H     0.692046  0.06493   0.0267     H
H     0.692046  0.43507 0.526699     H
H     0.692046  0.56493 0.973301     H
H     0.692046  0.93507   0.4733     H
Cl    0.6923916 0.207479 0.308216    Cl
Cl    0.6923916 0.292539 0.808216    Cl
Cl    0.6923916 0.707479 0.691796    Cl
Cl    0.6923916 0.792539 0.191796    Cl
C      0.69254  0.01764 0.0177617     C
C      0.69254  0.48244 0.5177617     C
C      0.69254  0.51764 0.9822417     C
C      0.69254  0.98244 0.4822417     C
Cl    0.6936516 0.183649 0.057636    Cl
Cl    0.6936516 0.316369 0.557636    Cl
Cl    0.6936516 0.683649 0.942376    Cl
Cl    0.6936516 0.816369 0.442376    Cl
C      0.69704  0.01664 0.9780017     C
C      0.69704  0.48344 0.4780017     C
C      0.69704  0.51664 0.0220017     C
C      0.69704  0.98344 0.5220017     C
H     0.697344 0.063496 0.968358     H
H     0.697344 0.436504 0.468358     H
H     0.697344 0.563496 0.031642     H
H     0.697344 0.936504 0.531642     H
H      0.70542 0.102523 0.472522     H
H      0.70542 0.397477 0.972522     H
H      0.70542 0.602523 0.527478     H
H      0.70542 0.897477 0.027478     H
H     0.713295 0.102957 0.530861     H
H     0.713295 0.397043 0.030861     H
H     0.713295 0.602957 0.469139     H
H     0.713295 0.897043 0.969139     H
H     0.717896 0.173089 0.826409     H
H     0.717896 0.326911 0.326409     H
H     0.717896 0.673089 0.173591     H
H     0.717896 0.826911 0.673591     H
H      0.71869  0.19678 0.575777     H
H      0.71869  0.30322 0.075777     H
H      0.71869  0.69678 0.424223     H
H      0.71869  0.80322 0.924223     H
O      0.72492  0.08022 0.1502711     O
O      0.72492  0.41982 0.6502711     O
O      0.72492  0.58022 0.8497311     O
O      0.72492  0.91982 0.3497311     O
C      0.72574  0.23584 0.3463616     C
C      0.72574  0.26424 0.8463616     C
C      0.72574  0.73584 0.6536416     C
C      0.72574  0.76424 0.1536416     C
C      0.72594  0.21224 0.0953717     C
C      0.72594  0.28784 0.5953717     C
C      0.72594  0.71224 0.9046317     C
C      0.72594  0.78784 0.4046317     C
O      0.72792  0.10422 0.4014511     O
O      0.72792  0.39582 0.9014511     O
O      0.72792  0.60422 0.5985511     O
O      0.72792  0.89582 0.0985511     O
C      0.73204  0.20144 0.8482017     C
C      0.73204  0.29864 0.3482017     C
C      0.73204  0.70144 0.1518017     C
C      0.73204  0.79864 0.6518017     C
C      0.73244  0.05754 0.7322417     C
C      0.73244  0.44254 0.2322417     C
C      0.73244  0.55754 0.2677617     C
C      0.73244  0.94254 0.7677617     C
C      0.73274  0.22534 0.5975018     C
C      0.73274  0.27474 0.0975018     C
C      0.73274  0.72534 0.4025018     C
C      0.73274  0.77474 0.9025018     C
C      0.73344  0.05304 0.7720017     C
C      0.73344  0.44704 0.2720017     C
C      0.73344  0.55304 0.2280017     C
C      0.73344  0.94704 0.7280017     C
N      0.73512  0.00402 0.2832412     N
N      0.73512  0.49602 0.7832412     N
N      0.73512  0.50402 0.7167612     N
N      0.73512  0.99602 0.2167612     N
Zn    0.736033 0.010243 0.33632715    Zn
Zn    0.736033 0.489763 0.83632715    Zn
Zn    0.736033 0.510243 0.66367315    Zn
Zn    0.736033 0.989763 0.16367315    Zn
C      0.73934  0.12864 0.3731516     C
C      0.73934  0.37144 0.8731516     C
C      0.73934  0.62864 0.6268516     C
C      0.73934  0.87144 0.1268516     C
Zn    0.739763 0.013973 0.41367315    Zn
Zn    0.739763 0.486033 0.91367315    Zn
Zn    0.739763 0.513973 0.58632715    Zn
Zn    0.739763 0.986033 0.08632715    Zn
C      0.73984  0.10534 0.1220816     C
C      0.73984  0.39474 0.6220816     C
C      0.73984  0.60534 0.8779216     C
C      0.73984  0.89474 0.3779216     C
H     0.742399 0.092483 0.217492     H
H     0.742399 0.407517 0.717492     H
H     0.742399 0.592483 0.782508     H
H     0.742399 0.907517 0.282508     H
C      0.74284  0.19774 0.3730516     C
C      0.74284  0.30234 0.8730516     C
C      0.74284  0.69774 0.6269516     C
C      0.74284  0.80234 0.1269516     C
C      0.74384  0.17394 0.1223716     C
C      0.74384  0.32614 0.6223716     C
C      0.74384  0.67394 0.8776316     C
C      0.74384  0.82614 0.3776316     C
H     0.744907 0.099637 0.275758     H
H     0.744907 0.400363 0.775758     H
H     0.744907 0.599637 0.724242     H
H     0.744907 0.900363 0.224242     H
N      0.74602  0.01492 0.4667612     N
N      0.74602  0.48512 0.9667612     N
N      0.74602  0.51492 0.5332412     N
N      0.74602  0.98512 0.0332412     N
C      0.74745  0.07914 0.4801017     C
C      0.74745  0.42094 0.9801017     C
C      0.74745  0.57914 0.5199017     C
C      0.74745  0.92094 0.0199017     C
O      0.74782  0.07782 0.9056412     O
O      0.74782  0.42222 0.4056412     O
O      0.74782  0.57782 0.0943612     O
O      0.74782  0.92222 0.5943612     O
O      0.74942  0.10182 0.3448011     O
O      0.74942  0.39822 0.8448011     O
O      0.74942  0.60182 0.6552011     O
O      0.74942  0.89822 0.1552011     O
O      0.75062  0.10182 0.6552011     O
O      0.75062  0.39822 0.1552011     O
O      0.75062  0.60182 0.3448011     O
O      0.75062  0.89822 0.8448011     O
O      0.75222  0.07782 0.0943612     O
O      0.75222  0.42222 0.5943612     O
O      0.75222  0.57782 0.9056412     O
O      0.75222  0.92222 0.4056412     O
C      0.75265  0.07914 0.5199017     C
C      0.75265  0.42094 0.0199017     C
C      0.75265  0.57914 0.4801017     C
C      0.75265  0.92094 0.9801017     C
N      0.75402  0.01492 0.5332412     N
N      0.75402  0.48512 0.0332412     N
N      0.75402  0.51492 0.4667612     N
N      0.75402  0.98512 0.9667612     N
H     0.755093 0.099637 0.724242     H
H     0.755093 0.400363 0.224242     H
H     0.755093 0.599637 0.275758     H
H     0.755093 0.900363 0.775758     H
C      0.75624  0.17394 0.8776316     C
C      0.75624  0.32614 0.3776316     C
C      0.75624  0.67394 0.1223716     C
C      0.75624  0.82614 0.6223716     C
C      0.75724  0.19774 0.6269516     C
C      0.75724  0.30234 0.1269516     C
C      0.75724  0.69774 0.3730516     C
C      0.75724  0.80234 0.8730516     C
H     0.757601 0.092483 0.782508     H
H     0.757601 0.407517 0.282508     H
H     0.757601 0.592483 0.217492     H
H     0.757601 0.907517 0.717492     H
C      0.76024  0.10534 0.8779216     C
C      0.76024  0.39474 0.3779216     C
C      0.76024  0.60534 0.1220816     C
C      0.76024  0.89474 0.6220816     C
Zn    0.760243 0.013973 0.58632715    Zn
Zn    0.760243 0.486033 0.08632715    Zn
Zn    0.760243 0.513973 0.41367315    Zn
Zn    0.760243 0.986033 0.91367315    Zn
C      0.76074  0.12864 0.6268516     C
C      0.76074  0.37144 0.1268516     C
C      0.76074  0.62864 0.3731516     C
C      0.76074  0.87144 0.8731516     C
Zn    0.763973 0.010243 0.66367315    Zn
Zn    0.763973 0.489763 0.16367315    Zn
Zn    0.763973 0.510243 0.33632715    Zn
Zn    0.763973 0.989763 0.83632715    Zn
N      0.76492  0.00402 0.7167612     N
N      0.76492  0.49602 0.2167612     N
N      0.76492  0.50402 0.2832412     N
N      0.76492  0.99602 0.7832412     N
C      0.76664  0.05304 0.2280017     C
C      0.76664  0.44704 0.7280017     C
C      0.76664  0.55304 0.7720017     C
C      0.76664  0.94704 0.2720017     C
C      0.76734  0.22534 0.4025018     C
C      0.76734  0.27474 0.9025018     C
C      0.76734  0.72534 0.5975018     C
C      0.76734  0.77474 0.0975018     C
C      0.76764  0.05754 0.2677617     C
C      0.76764  0.44254 0.7677617     C
C      0.76764  0.55754 0.7322417     C
C      0.76764  0.94254 0.2322417     C
C      0.76804  0.20144 0.1518017     C
C      0.76804  0.29864 0.6518017     C
C      0.76804  0.70144 0.8482017     C
C      0.76804  0.79864 0.3482017     C
O      0.77212  0.10422 0.5985511     O
O      0.77212  0.39582 0.0985511     O
O      0.77212  0.60422 0.4014511     O
O      0.77212  0.89582 0.9014511     O
C      0.77414  0.21224 0.9046317     C
C      0.77414  0.28784 0.4046317     C
C      0.77414  0.71224 0.0953717     C
C      0.77414  0.78784 0.5953717     C
C      0.77434  0.23584 0.6536416     C
C      0.77434  0.26424 0.1536416     C
C      0.77434  0.73584 0.3463616     C
C      0.77434  0.76424 0.8463616     C
O      0.77512  0.08022 0.8497311     O
O      0.77512  0.41982 0.3497311     O
O      0.77512  0.58022 0.1502711     O
O      0.77512  0.91982 0.6502711     O
H      0.78131  0.19678 0.424223     H
H      0.78131  0.30322 0.924223     H
H      0.78131  0.69678 0.575777     H
H      0.78131  0.80322 0.075777     H
H     0.782104 0.173089 0.173591     H
H     0.782104 0.326911 0.673591     H
H     0.782104 0.673089 0.826409     H
H     0.782104 0.826911 0.326409     H
H     0.786705 0.102957 0.469139     H
H     0.786705 0.397043 0.969139     H
H     0.786705 0.602957 0.530861     H
H     0.786705 0.897043 0.030861     H
H      0.79458 0.102523 0.527478     H
H      0.79458 0.397477 0.027478     H
H      0.79458 0.602523 0.472522     H
H      0.79458 0.897477 0.972522     H
H     0.802656 0.063496 0.031642     H
H     0.802656 0.436504 0.531642     H
H     0.802656 0.563496 0.968358     H
H     0.802656 0.936504 0.468358     H
C      0.80304  0.01664 0.0220017     C
C      0.80304  0.48344 0.5220017     C
C      0.80304  0.51664 0.9780017     C
C      0.80304  0.98344 0.4780017     C
Cl    0.8063516 0.183649 0.942376    Cl
Cl    0.8063516 0.316369 0.442376    Cl
Cl    0.8063516 0.683649 0.057636    Cl
Cl    0.8063516 0.816369 0.557636    Cl
C      0.80754  0.01764 0.9822417     C
C      0.80754  0.48244 0.4822417     C
C      0.80754  0.51764 0.0177617     C
C      0.80754  0.98244 0.5177617     C
Cl    0.8076116 0.207479 0.691796    Cl
Cl    0.8076116 0.292539 0.191796    Cl
Cl    0.8076116 0.707479 0.308216    Cl
Cl    0.8076116 0.792539 0.808216    Cl
H     0.807954  0.06493 0.973301     H
H     0.807954  0.43507   0.4733     H
H     0.807954  0.56493   0.0267     H
H     0.807954  0.93507 0.526699     H
H     0.813496 0.052656 0.218358     H
H     0.813496 0.447344 0.718358     H
H     0.813496 0.552656 0.781642     H
H     0.813496 0.947344 0.281642     H
H      0.81493 0.057954   0.2767     H
H      0.81493 0.442046 0.776699     H
H      0.81493 0.557954 0.723301     H
H      0.81493 0.942046 0.223301     H
O      0.82782  0.00222 0.1556412     O
O      0.82782  0.49782 0.6556412     O
O      0.82782  0.50222 0.8443612     O
O      0.82782  0.99782 0.3443612     O
C      0.82914  0.00265 0.7301017     C
C      0.82914  0.49745 0.2301017     C
C      0.82914  0.50265 0.2699017     C
C      0.82914  0.99745 0.7699017     C
O      0.83022  0.02512 0.4002711     O
O      0.83022  0.47492 0.9002711     O
O      0.83022  0.52512 0.5997311     O
O      0.83022  0.97492 0.0997311     O
H     0.842483 0.007601 0.467492     H
H     0.842483 0.492399 0.967492     H
H     0.842483 0.507601 0.532508     H
H     0.842483 0.992399 0.032508     H
H     0.849637 0.005093 0.525758     H
H     0.849637 0.494907 0.025758     H
H     0.849637 0.505093 0.474242     H
H     0.849637 0.994907 0.974242     H
O      0.85182  0.00062 0.5948011     O
O      0.85182  0.49942 0.0948011     O
O      0.85182  0.50062 0.4052011     O
O      0.85182  0.99942 0.9052011     O
H     0.852523  0.04458 0.722522     H
H     0.852523  0.45542 0.222522     H
H     0.852523  0.54458 0.277478     H
H     0.852523  0.95542 0.777478     H
H     0.852957 0.036705 0.780861     H
H     0.852957 0.463295 0.280861     H
H     0.852957 0.536705 0.219139     H
H     0.852957 0.963295 0.719139     H
O      0.85422  0.02212 0.6514511     O
O      0.85422  0.47792 0.1514511     O
O      0.85422  0.52212 0.3485511     O
O      0.85422  0.97792 0.8485511     O
C      0.85534  0.01024 0.3720816     C
C      0.85534  0.48984 0.8720816     C
C      0.85534  0.51024 0.6279216     C
C      0.85534  0.98984 0.1279216     C
C      0.87864  0.01074 0.6231516     C
C      0.87864  0.48934 0.1231516     C
C      0.87864  0.51074 0.3768516     C
C      0.87864  0.98934 0.8768516     C
H     0.923089 0.032104 0.076409     H
H     0.923089 0.467896 0.576409     H
H     0.923089 0.532104 0.923591     H
H     0.923089 0.967896 0.423591     H
C      0.92394  0.00624 0.3723716     C
C      0.92394  0.49384 0.8723716     C
C      0.92394  0.50624 0.6276316     C
C      0.92394  0.99384 0.1276316     C
Cl    0.933649 0.0563516 0.307636    Cl
Cl    0.933649 0.4436516 0.807636    Cl
Cl    0.933649 0.5563516 0.692376    Cl
Cl    0.933649 0.9436516 0.192376    Cl
H      0.94678  0.03131 0.825777     H
H      0.94678  0.46869 0.325777     H
H      0.94678  0.53131 0.174223     H
H      0.94678  0.96869 0.674223     H
C      0.94774  0.00724 0.6230516     C
C      0.94774  0.49284 0.1230516     C
C      0.94774  0.50724 0.3769516     C
C      0.94774  0.99284 0.8769516     C
C      0.95144  0.01804 0.0982017     C
C      0.95144  0.48204 0.5982017     C
C      0.95144  0.51804 0.9018017     C
C      0.95144  0.98204 0.4018017     C
Cl    0.957479 0.0576116 0.558216    Cl
Cl    0.957479 0.4423916 0.058216    Cl
Cl    0.957479 0.5576116 0.441796    Cl
Cl    0.957479 0.9423916 0.941796    Cl
C      0.96224  0.02414 0.3453717     C
C      0.96224  0.47594 0.8453717     C
C      0.96224  0.52414 0.6546317     C
C      0.96224  0.97594 0.1546317     C
C      0.97534  0.01734 0.8475018     C
C      0.97534  0.48274 0.3475018     C
C      0.97534  0.51734 0.1525018     C
C      0.97534  0.98274 0.6525018     C
C      0.98584  0.02434 0.5963616     C
C      0.98584  0.47574 0.0963616     C
C      0.98584  0.52434 0.4036416     C
C      0.98584  0.97574 0.9036416     C
