data_I
_chemical_name_common  'Zn-DMOF-option2//Zn-DMOF-option2_functionalized/cif/functionalized_Zn-DMOF-option2_CH3_2'
_cell_length_a 10.92882
_cell_length_b 10.92882
_cell_length_c  9.60841
_cell_angle_alpha 90.00000
_cell_angle_beta  90.00000
_cell_angle_gamma 90.00000
_space_group_name_H-M_alt      'P 1'


loop_
_space_group_symop_operation_xyz
  'x, y, z' 

loop_
_atom_site_label
_atom_site_fract_x
_atom_site_fract_y
_atom_site_fract_z
_atom_site_type_symbol
Zn        -0.5      0.5 -0.150057    Zn
Zn        -0.5      0.5 0.150063    Zn
O     -0.3176684  0.48388 -0.1154283     O
O     -0.3176684  0.48388 0.1154317     O
C     -0.26478      0.5      0.0     C
C     -0.12748      0.5      0.0     C
H     -0.112484      0.5 0.220514     H
C     -0.0633382      0.5 -0.12188     C
C     -0.0633382      0.5 0.12191999999999999     C
C     0.0633418      0.5 -0.12188     C
C     0.0633418      0.5 0.12191999999999999     C
H     0.112471      0.5 -0.22048499999999996     H
C      0.12752      0.5      0.0     C
C      0.26482      0.5      0.0     C
O     0.3176716  0.48388 -0.1154283     O
O     0.3176716  0.48388 0.1154317     O
H      0.32204 0.563039 0.383203     H
H     0.322044 0.563034 0.6169469999999999     H
H     0.322052 0.437111 0.38320799999999994     H
H     0.322056 0.43711600000000006 0.6169419999999999     H
C      0.41315  0.41315  0.42017     C
C      0.41315  0.41315  0.57997     C
C      0.41315  0.58695  0.42017     C
C      0.41315  0.58695  0.57997     C
H     0.437111 0.322052 0.38320799999999994     H
H     0.43711600000000006 0.322056 0.6169419999999999     H
H     0.43716600000000005 0.678032 0.383203     H
H      0.43717 0.678028 0.6169469999999999     H
O      0.48388 -0.3176684 -0.1154283     O
O      0.48388 -0.3176684 0.1154317     O
O      0.48388 0.3176716 -0.1154283     O
O      0.48388 0.3176716 0.1154317     O
Zn         0.5     -0.5 -0.150057    Zn
Zn         0.5     -0.5 0.150063    Zn
C          0.5 -0.26478      0.0     C
C          0.5 -0.12748      0.0     C
H          0.5 -0.112484 0.220514     H
C          0.5 -0.0633382 -0.12188     C
C          0.5 -0.0633382 0.12191999999999999     C
C          0.5 0.0633418 -0.12188     C
C          0.5 0.0633418 0.12191999999999999     C
H          0.5 0.112471 -0.22048499999999996     H
C          0.5  0.12752      0.0     C
C          0.5  0.26482      0.0     C
Zn         0.5      0.5 -0.150057    Zn
Zn         0.5      0.5 0.150063    Zn
N          0.5      0.5  0.36594     N
N          0.5      0.5  0.63414     N
Zn         0.5      0.5 0.849943    Zn
C      0.62297      0.5 0.41946999999999995     C
C      0.62297      0.5  0.58067     C
H      0.67036  0.41864  0.61777     H
H      0.67036  0.58136  0.61777     H
H     0.670366  0.41864  0.38238     H
H     0.670366  0.58136  0.38238     H
C     -0.13344372500703353      0.5 -0.2585078752483642     C
H     -0.06969381344513884      0.5 -0.34575103694652526     H
H     -0.19111026979929777 0.4188348355384372 -0.2651512343671645     H
H     -0.19111026979929793 0.581165164461563 -0.26515123436716437     H
C     0.13339972480368406      0.5 0.25857945928061526     C
H     0.06961942684796457      0.5 0.34579388368488245     H
H     0.1910639508366844 0.41883483553843714 0.26524880670656836     H
H     0.19106395083668457 0.5811651644615626 0.26524880670656836     H
C          0.5 -0.13344372500703353 -0.2585078752483642     C
H          0.5 -0.06969381344513884 -0.34575103694652526     H
H     0.581165164461563 -0.19111026979929793 -0.2651512343671645     H
H     0.4188348355384372 -0.1911102697992979 -0.2651512343671644     H
C          0.5 0.13339972480368406 0.25857945928061526     C
H          0.5 0.06961942684796457 0.34579388368488245     H
H     0.5811651644615627 0.1910639508366844 0.26524880670656836     H
H     0.4188348355384372 0.19106395083668443 0.2652488067065683     H
