data_I
_chemical_name_common  '/Users/gianmarcoterrones/Research/MOFs/MOF_structures/water_stability_work_extra_structs/cleaned_from_CCDC/ZODXEX'
_cell_length_a 41.09100
_cell_length_b 41.09100
_cell_length_c 41.09100
_cell_angle_alpha 90.00000
_cell_angle_beta  90.00000
_cell_angle_gamma 90.00000
_space_group_name_H-M_alt      'P 1'


loop_
_space_group_symop_operation_xyz
  'x, y, z' 

loop_
_atom_site_label
_atom_site_fract_x
_atom_site_fract_y
_atom_site_fract_z
_atom_site_type_symbol
O          0.0      0.0   0.3111     O
Mg         0.0      0.0  0.36351    Mg
O          0.0      0.0   0.4144     O
O          0.0      0.0   0.5856     O
Mg         0.0      0.0  0.63649    Mg
O          0.0      0.0   0.6889     O
O          0.0  0.05024  0.36434     O
O          0.0  0.05024  0.63566     O
C          0.0   0.0705   0.3435     C
C          0.0   0.0705   0.6565     C
O          0.0   0.0856      0.5     O
H          0.0   0.0984   0.4016     H
H          0.0   0.0984   0.5984     H
C          0.0  0.10606  0.35254     C
C          0.0  0.10606  0.64746     C
C          0.0  0.11478  0.38522     C
C          0.0  0.11478  0.61478     C
H          0.0    0.124   0.3063     H
H          0.0    0.124   0.6937     H
C          0.0  0.12997  0.32862     C
C          0.0  0.12997  0.67138     C
O          0.0  0.13566  0.44976     O
O          0.0  0.13566  0.55024     O
Mg         0.0  0.13649      0.5    Mg
C          0.0  0.14746  0.39394     C
C          0.0  0.14746  0.60606     C
C          0.0   0.1565   0.4295     C
C          0.0   0.1565   0.5705     C
C          0.0  0.16266  0.33734     C
C          0.0  0.16266  0.66266     C
C          0.0  0.17138  0.37003     C
C          0.0  0.17138  0.62997     C
O          0.0   0.1889      0.5     O
C          0.0  0.18914  0.31086     C
C          0.0  0.18914  0.68914     C
H          0.0   0.1937    0.376     H
H          0.0   0.1937    0.624     H
C          0.0  0.23702  0.26298     C
C          0.0  0.23702  0.73702     C
C          0.0  0.26298  0.23702     C
C          0.0  0.26298  0.76298     C
H          0.0   0.3063    0.124     H
H          0.0   0.3063    0.876     H
C          0.0  0.31086  0.18914     C
C          0.0  0.31086  0.81086     C
O          0.0   0.3111      0.0     O
C          0.0  0.32862  0.12997     C
C          0.0  0.32862  0.87003     C
C          0.0  0.33734  0.16266     C
C          0.0  0.33734  0.83734     C
C          0.0   0.3435   0.0705     C
C          0.0   0.3435   0.9295     C
C          0.0  0.35254  0.10606     C
C          0.0  0.35254  0.89394     C
Mg         0.0  0.36351      0.0    Mg
O          0.0  0.36434  0.05024     O
O          0.0  0.36434  0.94976     O
C          0.0  0.37003  0.17138     C
C          0.0  0.37003  0.82862     C
H          0.0    0.376   0.1937     H
H          0.0    0.376   0.8063     H
C          0.0  0.38522  0.11478     C
C          0.0  0.38522  0.88522     C
C          0.0  0.39394  0.14746     C
C          0.0  0.39394  0.85254     C
H          0.0   0.4016   0.0984     H
H          0.0   0.4016   0.9016     H
O          0.0   0.4144      0.0     O
C          0.0   0.4295   0.1565     C
C          0.0   0.4295   0.8435     C
O          0.0  0.44976  0.13566     O
O          0.0  0.44976  0.86434     O
O          0.0      0.5   0.0856     O
Mg         0.0      0.5  0.13649    Mg
O          0.0      0.5   0.1889     O
O          0.0      0.5   0.8111     O
Mg         0.0      0.5  0.86351    Mg
O          0.0      0.5   0.9144     O
O          0.0  0.55024  0.13566     O
O          0.0  0.55024  0.86434     O
C          0.0   0.5705   0.1565     C
C          0.0   0.5705   0.8435     C
O          0.0   0.5856      0.0     O
H          0.0   0.5984   0.0984     H
H          0.0   0.5984   0.9016     H
C          0.0  0.60606  0.14746     C
C          0.0  0.60606  0.85254     C
C          0.0  0.61478  0.11478     C
C          0.0  0.61478  0.88522     C
H          0.0    0.624   0.1937     H
H          0.0    0.624   0.8063     H
C          0.0  0.62997  0.17138     C
C          0.0  0.62997  0.82862     C
O          0.0  0.63566  0.05024     O
O          0.0  0.63566  0.94976     O
Mg         0.0  0.63649      0.0    Mg
C          0.0  0.64746  0.10606     C
C          0.0  0.64746  0.89394     C
C          0.0   0.6565   0.0705     C
C          0.0   0.6565   0.9295     C
C          0.0  0.66266  0.16266     C
C          0.0  0.66266  0.83734     C
C          0.0  0.67138  0.12997     C
C          0.0  0.67138  0.87003     C
O          0.0   0.6889      0.0     O
C          0.0  0.68914  0.18914     C
C          0.0  0.68914  0.81086     C
H          0.0   0.6937    0.124     H
H          0.0   0.6937    0.876     H
C          0.0  0.73702  0.23702     C
C          0.0  0.73702  0.76298     C
C          0.0  0.76298  0.26298     C
C          0.0  0.76298  0.73702     C
H          0.0   0.8063    0.376     H
H          0.0   0.8063    0.624     H
C          0.0  0.81086  0.31086     C
C          0.0  0.81086  0.68914     C
O          0.0   0.8111      0.5     O
C          0.0  0.82862  0.37003     C
C          0.0  0.82862  0.62997     C
C          0.0  0.83734  0.33734     C
C          0.0  0.83734  0.66266     C
C          0.0   0.8435   0.4295     C
C          0.0   0.8435   0.5705     C
C          0.0  0.85254  0.39394     C
C          0.0  0.85254  0.60606     C
Mg         0.0  0.86351      0.5    Mg
O          0.0  0.86434  0.44976     O
O          0.0  0.86434  0.55024     O
C          0.0  0.87003  0.32862     C
C          0.0  0.87003  0.67138     C
H          0.0    0.876   0.3063     H
H          0.0    0.876   0.6937     H
C          0.0  0.88522  0.38522     C
C          0.0  0.88522  0.61478     C
C          0.0  0.89394  0.35254     C
C          0.0  0.89394  0.64746     C
H          0.0   0.9016   0.4016     H
H          0.0   0.9016   0.5984     H
O          0.0   0.9144      0.5     O
C          0.0   0.9295   0.3435     C
C          0.0   0.9295   0.6565     C
O          0.0  0.94976  0.36434     O
O          0.0  0.94976  0.63566     O
O       0.0115    0.065  0.31322     O
O       0.0115    0.065  0.68678     O
O       0.0115  0.18678    0.435     O
O       0.0115  0.18678    0.565     O
O       0.0115  0.31322    0.065     O
O       0.0115  0.31322    0.935     O
O       0.0115    0.435  0.18678     O
O       0.0115    0.435  0.81322     O
O       0.0115    0.565  0.18678     O
O       0.0115    0.565  0.81322     O
O       0.0115  0.68678    0.065     O
O       0.0115  0.68678    0.935     O
O       0.0115  0.81322    0.435     O
O       0.0115  0.81322    0.565     O
O       0.0115    0.935  0.31322     O
O       0.0115    0.935  0.68678     O
Mg      0.0282   0.0282   0.2837    Mg
Mg      0.0282   0.0282   0.7163    Mg
Mg      0.0282   0.2163   0.4718    Mg
Mg      0.0282   0.2163   0.5282    Mg
Mg      0.0282   0.2837   0.0282    Mg
Mg      0.0282   0.2837   0.9718    Mg
Mg      0.0282   0.4718   0.2163    Mg
Mg      0.0282   0.4718   0.7837    Mg
Mg      0.0282   0.5282   0.2163    Mg
Mg      0.0282   0.5282   0.7837    Mg
Mg      0.0282   0.7163   0.0282    Mg
Mg      0.0282   0.7163   0.9718    Mg
Mg      0.0282   0.7837   0.4718    Mg
Mg      0.0282   0.7837   0.5282    Mg
Mg      0.0282   0.9718   0.2837    Mg
Mg      0.0282   0.9718   0.7163    Mg
C      0.02927  0.20112  0.29888     C
C      0.02927  0.20112  0.70112     C
C      0.02927  0.29888  0.20112     C
C      0.02927  0.29888  0.79888     C
C      0.02927  0.70112  0.20112     C
C      0.02927  0.70112  0.79888     C
C      0.02927  0.79888  0.29888     C
C      0.02927  0.79888  0.70112     C
C      0.02928  0.22504  0.27496     C
C      0.02928  0.22504  0.72504     C
C      0.02928  0.27496  0.22504     C
C      0.02928  0.27496  0.77496     C
C      0.02928  0.72504  0.22504     C
C      0.02928  0.72504  0.77496     C
C      0.02928  0.77496  0.27496     C
C      0.02928  0.77496  0.72504     C
H       0.0493   0.2332   0.2668     H
H       0.0493   0.2332   0.7332     H
H       0.0493   0.2668   0.2332     H
H       0.0493   0.2668   0.7668     H
H       0.0493   0.7332   0.2332     H
H       0.0493   0.7332   0.7668     H
H       0.0493   0.7668   0.2668     H
H       0.0493   0.7668   0.7332     H
O      0.05024      0.0  0.36434     O
O      0.05024      0.0  0.63566     O
O      0.05024  0.13566      0.5     O
O      0.05024  0.36434      0.0     O
O      0.05024      0.5  0.13566     O
O      0.05024      0.5  0.86434     O
O      0.05024  0.63566      0.0     O
O      0.05024  0.86434      0.5     O
H       0.0551   0.1713   0.3286     H
H       0.0551   0.1714   0.6713     H
H       0.0551   0.3286   0.8287     H
H       0.0551   0.3287   0.1714     H
H       0.0551   0.6713   0.8286     H
H       0.0551   0.6714   0.1713     H
H       0.0551   0.8286   0.3287     H
H       0.0551   0.8287   0.6714     H
C       0.0594  0.18757  0.31243     C
C       0.0594  0.18757  0.68757     C
C       0.0594  0.31243  0.18757     C
C       0.0594  0.31243  0.81243     C
C       0.0594  0.68757  0.18757     C
C       0.0594  0.68757  0.81243     C
C       0.0594  0.81243  0.31243     C
C       0.0594  0.81243  0.68757     C
O        0.065   0.0115  0.31322     O
O        0.065   0.0115  0.68678     O
O        0.065  0.18678   0.4885     O
O        0.065  0.18678   0.5115     O
O        0.065  0.31322   0.0115     O
O        0.065  0.31322   0.9885     O
O        0.065   0.4885  0.18678     O
O        0.065   0.4885  0.81322     O
O        0.065   0.5115  0.18678     O
O        0.065   0.5115  0.81322     O
O        0.065  0.68678   0.0115     O
O        0.065  0.68678   0.9885     O
O        0.065  0.81322   0.4885     O
O        0.065  0.81322   0.5115     O
O        0.065   0.9885  0.31322     O
O        0.065   0.9885  0.68678     O
C       0.0705      0.0   0.3435     C
C       0.0705      0.0   0.6565     C
C       0.0705   0.1565      0.5     C
C       0.0705   0.3435      0.0     C
C       0.0705      0.5   0.1565     C
C       0.0705      0.5   0.8435     C
C       0.0705   0.6565      0.0     C
C       0.0705   0.8435      0.5     C
H       0.0717    0.178   0.2947     H
H       0.0717    0.178   0.7053     H
H       0.0717    0.205   0.3216     H
H       0.0717    0.205   0.6784     H
H       0.0717   0.2947    0.178     H
H       0.0717   0.2947    0.822     H
H       0.0717   0.3216    0.205     H
H       0.0717   0.3216    0.795     H
H       0.0717    0.678   0.2053     H
H       0.0717    0.678   0.7947     H
H       0.0717    0.705   0.1784     H
H       0.0717    0.705   0.8216     H
H       0.0717   0.7947    0.322     H
H       0.0717   0.7947    0.678     H
H       0.0717   0.8216    0.295     H
H       0.0717   0.8216    0.705     H
O       0.0856      0.0      0.5     O
O       0.0856      0.5      0.0     O
H       0.0984      0.0   0.4016     H
H       0.0984      0.0   0.5984     H
H       0.0984   0.0984      0.5     H
H       0.0984   0.4016      0.0     H
H       0.0984      0.5   0.0984     H
H       0.0984      0.5   0.9016     H
H       0.0984   0.5984      0.0     H
H       0.0984   0.9016      0.5     H
C      0.10606      0.0  0.35254     C
C      0.10606      0.0  0.64746     C
C      0.10606  0.14746      0.5     C
C      0.10606  0.35254      0.0     C
C      0.10606      0.5  0.14746     C
C      0.10606      0.5  0.85254     C
C      0.10606  0.64746      0.0     C
C      0.10606  0.85254      0.5     C
C      0.11478      0.0  0.38522     C
C      0.11478      0.0  0.61478     C
C      0.11478  0.11478      0.5     C
C      0.11478  0.38522      0.0     C
C      0.11478      0.5  0.11478     C
C      0.11478      0.5  0.88522     C
C      0.11478  0.61478      0.0     C
C      0.11478  0.88522      0.5     C
H        0.124      0.0   0.3063     H
H        0.124      0.0   0.6937     H
H        0.124   0.1937      0.5     H
H        0.124   0.3063      0.0     H
H        0.124      0.5   0.1937     H
H        0.124      0.5   0.8063     H
H        0.124   0.6937      0.0     H
H        0.124   0.8063      0.5     H
C      0.12997      0.0  0.32862     C
C      0.12997      0.0  0.67138     C
C      0.12997  0.17138      0.5     C
C      0.12997  0.32862      0.0     C
C      0.12997      0.5  0.17138     C
C      0.12997      0.5  0.82862     C
C      0.12997  0.67138      0.0     C
C      0.12997  0.82862      0.5     C
O      0.13566      0.0  0.44976     O
O      0.13566      0.0  0.55024     O
O      0.13566  0.05024      0.5     O
O      0.13566  0.44976      0.0     O
O      0.13566      0.5  0.05024     O
O      0.13566      0.5  0.94976     O
O      0.13566  0.55024      0.0     O
O      0.13566  0.94976      0.5     O
Mg     0.13649      0.0      0.5    Mg
Mg     0.13649      0.5      0.0    Mg
C      0.14746      0.0  0.39394     C
C      0.14746      0.0  0.60606     C
C      0.14746  0.10606      0.5     C
C      0.14746  0.39394      0.0     C
C      0.14746      0.5  0.10606     C
C      0.14746      0.5  0.89394     C
C      0.14746  0.60606      0.0     C
C      0.14746  0.89394      0.5     C
C       0.1565      0.0   0.4295     C
C       0.1565      0.0   0.5705     C
C       0.1565   0.0705      0.5     C
C       0.1565   0.4295      0.0     C
C       0.1565      0.5   0.0705     C
C       0.1565      0.5   0.9295     C
C       0.1565   0.5705      0.0     C
C       0.1565   0.9295      0.5     C
C      0.16266      0.0  0.33734     C
C      0.16266      0.0  0.66266     C
C      0.16266  0.16266      0.5     C
C      0.16266  0.33734      0.0     C
C      0.16266      0.5  0.16266     C
C      0.16266      0.5  0.83734     C
C      0.16266  0.66266      0.0     C
C      0.16266  0.83734      0.5     C
H       0.1713   0.0551   0.6714     H
H       0.1713   0.1714   0.4449     H
H       0.1713   0.3286   0.0551     H
H       0.1713   0.4449   0.8286     H
H       0.1713   0.5551   0.1714     H
H       0.1713   0.6714   0.9449     H
H       0.1713   0.8286   0.5551     H
H       0.1713   0.9449   0.3286     H
C      0.17138      0.0  0.37003     C
C      0.17138      0.0  0.62997     C
C      0.17138  0.12997      0.5     C
C      0.17138  0.37003      0.0     C
C      0.17138      0.5  0.12997     C
C      0.17138      0.5  0.87003     C
C      0.17138  0.62997      0.0     C
C      0.17138  0.87003      0.5     C
H       0.1714   0.0551   0.3287     H
H       0.1714   0.1713   0.5551     H
H       0.1714   0.3287   0.9449     H
H       0.1714   0.4449   0.1713     H
H       0.1714   0.5551   0.8287     H
H       0.1714   0.6713   0.0551     H
H       0.1714   0.8287   0.4449     H
H       0.1714   0.9449   0.6713     H
H        0.178   0.0717   0.2947     H
H        0.178   0.0717   0.7053     H
H        0.178   0.2053   0.4283     H
H        0.178   0.2053   0.5717     H
H        0.178   0.2947   0.0717     H
H        0.178   0.2947   0.9283     H
H        0.178   0.4283   0.2053     H
H        0.178   0.4283   0.7947     H
H        0.178   0.5717   0.2053     H
H        0.178   0.5717   0.7947     H
H        0.178   0.7053   0.0717     H
H        0.178   0.7053   0.9283     H
H        0.178   0.7947   0.4283     H
H        0.178   0.7947   0.5717     H
H        0.178   0.9283   0.2947     H
H        0.178   0.9283   0.7053     H
O      0.18678   0.0115    0.435     O
O      0.18678   0.0115    0.565     O
O      0.18678    0.065   0.4885     O
O      0.18678    0.065   0.5115     O
O      0.18678    0.435   0.0115     O
O      0.18678    0.435   0.9885     O
O      0.18678   0.4885    0.065     O
O      0.18678   0.4885    0.935     O
O      0.18678   0.5115    0.065     O
O      0.18678   0.5115    0.935     O
O      0.18678    0.565   0.0115     O
O      0.18678    0.565   0.9885     O
O      0.18678    0.935   0.4885     O
O      0.18678    0.935   0.5115     O
O      0.18678   0.9885    0.435     O
O      0.18678   0.9885    0.565     O
C      0.18757   0.0594  0.31243     C
C      0.18757   0.0594  0.68757     C
C      0.18757  0.18757   0.4406     C
C      0.18757  0.18757   0.5594     C
C      0.18757  0.31243   0.0594     C
C      0.18757  0.31243   0.9406     C
C      0.18757   0.4406  0.18757     C
C      0.18757   0.4406  0.81243     C
C      0.18757   0.5594  0.18757     C
C      0.18757   0.5594  0.81243     C
C      0.18757  0.68757   0.0594     C
C      0.18757  0.68757   0.9406     C
C      0.18757  0.81243   0.4406     C
C      0.18757  0.81243   0.5594     C
C      0.18757   0.9406  0.31243     C
C      0.18757   0.9406  0.68757     C
O       0.1889      0.0      0.5     O
O       0.1889      0.5      0.0     O
C      0.18914      0.0  0.31086     C
C      0.18914      0.0  0.68914     C
C      0.18914  0.18914      0.5     C
C      0.18914  0.31086      0.0     C
C      0.18914      0.5  0.18914     C
C      0.18914      0.5  0.81086     C
C      0.18914  0.68914      0.0     C
C      0.18914  0.81086      0.5     C
H       0.1937      0.0    0.376     H
H       0.1937      0.0    0.624     H
H       0.1937    0.124      0.5     H
H       0.1937    0.376      0.0     H
H       0.1937      0.5    0.124     H
H       0.1937      0.5    0.876     H
H       0.1937    0.624      0.0     H
H       0.1937    0.876      0.5     H
C      0.20112  0.02927  0.29888     C
C      0.20112  0.02927  0.70112     C
C      0.20112  0.20112  0.47073     C
C      0.20112  0.20112  0.52927     C
C      0.20112  0.29888  0.02927     C
C      0.20112  0.29888  0.97073     C
C      0.20112  0.47073  0.20112     C
C      0.20112  0.47073  0.79888     C
C      0.20112  0.52927  0.20112     C
C      0.20112  0.52927  0.79888     C
C      0.20112  0.70112  0.02927     C
C      0.20112  0.70112  0.97073     C
C      0.20112  0.79888  0.47073     C
C      0.20112  0.79888  0.52927     C
C      0.20112  0.97073  0.29888     C
C      0.20112  0.97073  0.70112     C
H        0.205   0.0717   0.3216     H
H        0.205   0.0717   0.6784     H
H        0.205   0.1784   0.4283     H
H        0.205   0.1784   0.5717     H
H        0.205   0.3216   0.0717     H
H        0.205   0.3216   0.9283     H
H        0.205   0.4283   0.1784     H
H        0.205   0.4283   0.8216     H
H        0.205   0.5717   0.1784     H
H        0.205   0.5717   0.8216     H
H        0.205   0.6784   0.0717     H
H        0.205   0.6784   0.9283     H
H        0.205   0.8216   0.4283     H
H        0.205   0.8216   0.5717     H
H        0.205   0.9283   0.3216     H
H        0.205   0.9283   0.6784     H
Mg      0.2163   0.0282   0.4718    Mg
Mg      0.2163   0.0282   0.5282    Mg
Mg      0.2163   0.4718   0.0282    Mg
Mg      0.2163   0.4718   0.9718    Mg
Mg      0.2163   0.5282   0.0282    Mg
Mg      0.2163   0.5282   0.9718    Mg
Mg      0.2163   0.9718   0.4718    Mg
Mg      0.2163   0.9718   0.5282    Mg
C      0.22504  0.02928  0.27496     C
C      0.22504  0.02928  0.72504     C
C      0.22504  0.22504  0.47072     C
C      0.22504  0.22504  0.52928     C
C      0.22504  0.27496  0.02928     C
C      0.22504  0.27496  0.97072     C
C      0.22504  0.47072  0.22504     C
C      0.22504  0.47072  0.77496     C
C      0.22504  0.52928  0.22504     C
C      0.22504  0.52928  0.77496     C
C      0.22504  0.72504  0.02928     C
C      0.22504  0.72504  0.97072     C
C      0.22504  0.77496  0.47072     C
C      0.22504  0.77496  0.52928     C
C      0.22504  0.97072  0.27496     C
C      0.22504  0.97072  0.72504     C
H       0.2332   0.0493   0.2668     H
H       0.2332   0.0493   0.7332     H
H       0.2332   0.2332   0.4507     H
H       0.2332   0.2332   0.5493     H
H       0.2332   0.2668   0.0493     H
H       0.2332   0.2668   0.9507     H
H       0.2332   0.4507   0.2332     H
H       0.2332   0.4507   0.7668     H
H       0.2332   0.5493   0.2332     H
H       0.2332   0.5493   0.7668     H
H       0.2332   0.7332   0.0493     H
H       0.2332   0.7332   0.9507     H
H       0.2332   0.7668   0.4507     H
H       0.2332   0.7668   0.5493     H
H       0.2332   0.9507   0.2668     H
H       0.2332   0.9507   0.7332     H
C      0.23702      0.0  0.26298     C
C      0.23702      0.0  0.73702     C
C      0.23702  0.23702      0.5     C
C      0.23702  0.26298      0.0     C
C      0.23702      0.5  0.23702     C
C      0.23702      0.5  0.76298     C
C      0.23702  0.73702      0.0     C
C      0.23702  0.76298      0.5     C
C      0.26298      0.0  0.23702     C
C      0.26298      0.0  0.76298     C
C      0.26298  0.23702      0.0     C
C      0.26298  0.26298      0.5     C
C      0.26298      0.5  0.26298     C
C      0.26298      0.5  0.73702     C
C      0.26298  0.73702      0.5     C
C      0.26298  0.76298      0.0     C
H       0.2668   0.0493   0.2332     H
H       0.2668   0.0493   0.7668     H
H       0.2668   0.2332   0.0493     H
H       0.2668   0.2332   0.9507     H
H       0.2668   0.2668   0.4507     H
H       0.2668   0.2668   0.5493     H
H       0.2668   0.4507   0.2668     H
H       0.2668   0.4507   0.7332     H
H       0.2668   0.5493   0.2668     H
H       0.2668   0.5493   0.7332     H
H       0.2668   0.7332   0.4507     H
H       0.2668   0.7332   0.5493     H
H       0.2668   0.7668   0.0493     H
H       0.2668   0.7668   0.9507     H
H       0.2668   0.9507   0.2332     H
H       0.2668   0.9507   0.7668     H
C      0.27496  0.02928  0.22504     C
C      0.27496  0.02928  0.77496     C
C      0.27496  0.22504  0.02928     C
C      0.27496  0.22504  0.97072     C
C      0.27496  0.27496  0.47072     C
C      0.27496  0.27496  0.52928     C
C      0.27496  0.47072  0.27496     C
C      0.27496  0.47072  0.72504     C
C      0.27496  0.52928  0.27496     C
C      0.27496  0.52928  0.72504     C
C      0.27496  0.72504  0.47072     C
C      0.27496  0.72504  0.52928     C
C      0.27496  0.77496  0.02928     C
C      0.27496  0.77496  0.97072     C
C      0.27496  0.97072  0.22504     C
C      0.27496  0.97072  0.77496     C
Mg      0.2837   0.0282   0.0282    Mg
Mg      0.2837   0.0282   0.9718    Mg
Mg      0.2837   0.4718   0.4718    Mg
Mg      0.2837   0.4718   0.5282    Mg
Mg      0.2837   0.5282   0.4718    Mg
Mg      0.2837   0.5282   0.5282    Mg
Mg      0.2837   0.9718   0.0282    Mg
Mg      0.2837   0.9718   0.9718    Mg
H       0.2947   0.0717    0.178     H
H       0.2947   0.0717    0.822     H
H       0.2947    0.178   0.0717     H
H       0.2947    0.178   0.9283     H
H       0.2947    0.322   0.4283     H
H       0.2947    0.322   0.5717     H
H       0.2947   0.4283    0.322     H
H       0.2947   0.4283    0.678     H
H       0.2947   0.5717    0.322     H
H       0.2947   0.5717    0.678     H
H       0.2947    0.678   0.4283     H
H       0.2947    0.678   0.5717     H
H       0.2947    0.822   0.0717     H
H       0.2947    0.822   0.9283     H
H       0.2947   0.9283    0.178     H
H       0.2947   0.9283    0.822     H
C      0.29888  0.02927  0.20112     C
C      0.29888  0.02927  0.79888     C
C      0.29888  0.20112  0.02927     C
C      0.29888  0.20112  0.97073     C
C      0.29888  0.29888  0.47073     C
C      0.29888  0.29888  0.52927     C
C      0.29888  0.47073  0.29888     C
C      0.29888  0.47073  0.70112     C
C      0.29888  0.52927  0.29888     C
C      0.29888  0.52927  0.70112     C
C      0.29888  0.70112  0.47073     C
C      0.29888  0.70112  0.52927     C
C      0.29888  0.79888  0.02927     C
C      0.29888  0.79888  0.97073     C
C      0.29888  0.97073  0.20112     C
C      0.29888  0.97073  0.79888     C
H       0.3063      0.0    0.124     H
H       0.3063      0.0    0.876     H
H       0.3063    0.124      0.0     H
H       0.3063    0.376      0.5     H
H       0.3063      0.5    0.376     H
H       0.3063      0.5    0.624     H
H       0.3063    0.624      0.5     H
H       0.3063    0.876      0.0     H
C      0.31086      0.0  0.18914     C
C      0.31086      0.0  0.81086     C
C      0.31086  0.18914      0.0     C
C      0.31086  0.31086      0.5     C
C      0.31086      0.5  0.31086     C
C      0.31086      0.5  0.68914     C
C      0.31086  0.68914      0.5     C
C      0.31086  0.81086      0.0     C
O       0.3111      0.0      0.0     O
O       0.3111      0.5      0.5     O
C      0.31243   0.0594  0.18757     C
C      0.31243   0.0594  0.81243     C
C      0.31243  0.18757   0.0594     C
C      0.31243  0.18757   0.9406     C
C      0.31243  0.31243   0.4406     C
C      0.31243  0.31243   0.5594     C
C      0.31243   0.4406  0.31243     C
C      0.31243   0.4406  0.68757     C
C      0.31243   0.5594  0.31243     C
C      0.31243   0.5594  0.68757     C
C      0.31243  0.68757   0.4406     C
C      0.31243  0.68757   0.5594     C
C      0.31243  0.81243   0.0594     C
C      0.31243  0.81243   0.9406     C
C      0.31243   0.9406  0.18757     C
C      0.31243   0.9406  0.81243     C
O      0.31322   0.0115    0.065     O
O      0.31322   0.0115    0.935     O
O      0.31322    0.065   0.0115     O
O      0.31322    0.065   0.9885     O
O      0.31322    0.435   0.4885     O
O      0.31322    0.435   0.5115     O
O      0.31322   0.4885    0.435     O
O      0.31322   0.4885    0.565     O
O      0.31322   0.5115    0.435     O
O      0.31322   0.5115    0.565     O
O      0.31322    0.565   0.4885     O
O      0.31322    0.565   0.5115     O
O      0.31322    0.935   0.0115     O
O      0.31322    0.935   0.9885     O
O      0.31322   0.9885    0.065     O
O      0.31322   0.9885    0.935     O
H       0.3216   0.0717    0.205     H
H       0.3216   0.0717    0.795     H
H       0.3216    0.205   0.0717     H
H       0.3216    0.205   0.9283     H
H       0.3216    0.295   0.4283     H
H       0.3216    0.295   0.5717     H
H       0.3216   0.4283    0.295     H
H       0.3216   0.4283    0.705     H
H       0.3216   0.5717    0.295     H
H       0.3216   0.5717    0.705     H
H       0.3216    0.705   0.4283     H
H       0.3216    0.705   0.5717     H
H       0.3216    0.795   0.0717     H
H       0.3216    0.795   0.9283     H
H       0.3216   0.9283    0.205     H
H       0.3216   0.9283    0.795     H
H       0.3286   0.0551   0.1713     H
H       0.3286   0.1713   0.9449     H
H       0.3286   0.3287   0.5551     H
H       0.3286   0.4449   0.3287     H
H       0.3286   0.5551   0.6713     H
H       0.3286   0.6713   0.4449     H
H       0.3286   0.8287   0.0551     H
H       0.3286   0.9449   0.8287     H
C      0.32862      0.0  0.12997     C
C      0.32862      0.0  0.87003     C
C      0.32862  0.12997      0.0     C
C      0.32862  0.37003      0.5     C
C      0.32862      0.5  0.37003     C
C      0.32862      0.5  0.62997     C
C      0.32862  0.62997      0.5     C
C      0.32862  0.87003      0.0     C
H       0.3287   0.0551   0.8286     H
H       0.3287   0.1714   0.0551     H
H       0.3287   0.3286   0.4449     H
H       0.3287   0.4449   0.6714     H
H       0.3287   0.5551   0.3286     H
H       0.3287   0.6714   0.5551     H
H       0.3287   0.8286   0.9449     H
H       0.3287   0.9449   0.1714     H
C      0.33734      0.0  0.16266     C
C      0.33734      0.0  0.83734     C
C      0.33734  0.16266      0.0     C
C      0.33734  0.33734      0.5     C
C      0.33734      0.5  0.33734     C
C      0.33734      0.5  0.66266     C
C      0.33734  0.66266      0.5     C
C      0.33734  0.83734      0.0     C
C       0.3435      0.0   0.0705     C
C       0.3435      0.0   0.9295     C
C       0.3435   0.0705      0.0     C
C       0.3435   0.4295      0.5     C
C       0.3435      0.5   0.4295     C
C       0.3435      0.5   0.5705     C
C       0.3435   0.5705      0.5     C
C       0.3435   0.9295      0.0     C
C      0.35254      0.0  0.10606     C
C      0.35254      0.0  0.89394     C
C      0.35254  0.10606      0.0     C
C      0.35254  0.39394      0.5     C
C      0.35254      0.5  0.39394     C
C      0.35254      0.5  0.60606     C
C      0.35254  0.60606      0.5     C
C      0.35254  0.89394      0.0     C
Mg     0.36351      0.0      0.0    Mg
Mg     0.36351      0.5      0.5    Mg
O      0.36434      0.0  0.05024     O
O      0.36434      0.0  0.94976     O
O      0.36434  0.05024      0.0     O
O      0.36434  0.44976      0.5     O
O      0.36434      0.5  0.44976     O
O      0.36434      0.5  0.55024     O
O      0.36434  0.55024      0.5     O
O      0.36434  0.94976      0.0     O
C      0.37003      0.0  0.17138     C
C      0.37003      0.0  0.82862     C
C      0.37003  0.17138      0.0     C
C      0.37003  0.32862      0.5     C
C      0.37003      0.5  0.32862     C
C      0.37003      0.5  0.67138     C
C      0.37003  0.67138      0.5     C
C      0.37003  0.82862      0.0     C
H        0.376      0.0   0.1937     H
H        0.376      0.0   0.8063     H
H        0.376   0.1937      0.0     H
H        0.376   0.3063      0.5     H
H        0.376      0.5   0.3063     H
H        0.376      0.5   0.6937     H
H        0.376   0.6937      0.5     H
H        0.376   0.8063      0.0     H
C      0.38522      0.0  0.11478     C
C      0.38522      0.0  0.88522     C
C      0.38522  0.11478      0.0     C
C      0.38522  0.38522      0.5     C
C      0.38522      0.5  0.38522     C
C      0.38522      0.5  0.61478     C
C      0.38522  0.61478      0.5     C
C      0.38522  0.88522      0.0     C
C      0.39394      0.0  0.14746     C
C      0.39394      0.0  0.85254     C
C      0.39394  0.14746      0.0     C
C      0.39394  0.35254      0.5     C
C      0.39394      0.5  0.35254     C
C      0.39394      0.5  0.64746     C
C      0.39394  0.64746      0.5     C
C      0.39394  0.85254      0.0     C
H       0.4016      0.0   0.0984     H
H       0.4016      0.0   0.9016     H
H       0.4016   0.0984      0.0     H
H       0.4016   0.4016      0.5     H
H       0.4016      0.5   0.4016     H
H       0.4016      0.5   0.5984     H
H       0.4016   0.5984      0.5     H
H       0.4016   0.9016      0.0     H
O       0.4144      0.0      0.0     O
O       0.4144      0.5      0.5     O
H       0.4283    0.178   0.2053     H
H       0.4283    0.178   0.7947     H
H       0.4283    0.205   0.1784     H
H       0.4283    0.205   0.8216     H
H       0.4283   0.2947    0.322     H
H       0.4283   0.2947    0.678     H
H       0.4283   0.3216    0.295     H
H       0.4283   0.3216    0.705     H
H       0.4283    0.678   0.2947     H
H       0.4283    0.678   0.7053     H
H       0.4283    0.705   0.3216     H
H       0.4283    0.705   0.6784     H
H       0.4283   0.7947    0.178     H
H       0.4283   0.7947    0.822     H
H       0.4283   0.8216    0.205     H
H       0.4283   0.8216    0.795     H
C       0.4295      0.0   0.1565     C
C       0.4295      0.0   0.8435     C
C       0.4295   0.1565      0.0     C
C       0.4295   0.3435      0.5     C
C       0.4295      0.5   0.3435     C
C       0.4295      0.5   0.6565     C
C       0.4295   0.6565      0.5     C
C       0.4295   0.8435      0.0     C
O        0.435   0.0115  0.18678     O
O        0.435   0.0115  0.81322     O
O        0.435  0.18678   0.0115     O
O        0.435  0.18678   0.9885     O
O        0.435  0.31322   0.4885     O
O        0.435  0.31322   0.5115     O
O        0.435   0.4885  0.31322     O
O        0.435   0.4885  0.68678     O
O        0.435   0.5115  0.31322     O
O        0.435   0.5115  0.68678     O
O        0.435  0.68678   0.4885     O
O        0.435  0.68678   0.5115     O
O        0.435  0.81322   0.0115     O
O        0.435  0.81322   0.9885     O
O        0.435   0.9885  0.18678     O
O        0.435   0.9885  0.81322     O
C       0.4406  0.18757  0.18757     C
C       0.4406  0.18757  0.81243     C
C       0.4406  0.31243  0.31243     C
C       0.4406  0.31243  0.68757     C
C       0.4406  0.68757  0.31243     C
C       0.4406  0.68757  0.68757     C
C       0.4406  0.81243  0.18757     C
C       0.4406  0.81243  0.81243     C
H       0.4449   0.1713   0.1714     H
H       0.4449   0.1714   0.8287     H
H       0.4449   0.3286   0.6713     H
H       0.4449   0.3287   0.3286     H
H       0.4449   0.6713   0.6714     H
H       0.4449   0.6714   0.3287     H
H       0.4449   0.8286   0.1713     H
H       0.4449   0.8287   0.8286     H
O      0.44976      0.0  0.13566     O
O      0.44976      0.0  0.86434     O
O      0.44976  0.13566      0.0     O
O      0.44976  0.36434      0.5     O
O      0.44976      0.5  0.36434     O
O      0.44976      0.5  0.63566     O
O      0.44976  0.63566      0.5     O
O      0.44976  0.86434      0.0     O
H       0.4507   0.2332   0.2332     H
H       0.4507   0.2332   0.7668     H
H       0.4507   0.2668   0.2668     H
H       0.4507   0.2668   0.7332     H
H       0.4507   0.7332   0.2668     H
H       0.4507   0.7332   0.7332     H
H       0.4507   0.7668   0.2332     H
H       0.4507   0.7668   0.7668     H
C      0.47072  0.22504  0.22504     C
C      0.47072  0.22504  0.77496     C
C      0.47072  0.27496  0.27496     C
C      0.47072  0.27496  0.72504     C
C      0.47072  0.72504  0.27496     C
C      0.47072  0.72504  0.72504     C
C      0.47072  0.77496  0.22504     C
C      0.47072  0.77496  0.77496     C
C      0.47073  0.20112  0.20112     C
C      0.47073  0.20112  0.79888     C
C      0.47073  0.29888  0.29888     C
C      0.47073  0.29888  0.70112     C
C      0.47073  0.70112  0.29888     C
C      0.47073  0.70112  0.70112     C
C      0.47073  0.79888  0.20112     C
C      0.47073  0.79888  0.79888     C
Mg      0.4718   0.0282   0.2163    Mg
Mg      0.4718   0.0282   0.7837    Mg
Mg      0.4718   0.2163   0.0282    Mg
Mg      0.4718   0.2163   0.9718    Mg
Mg      0.4718   0.2837   0.4718    Mg
Mg      0.4718   0.2837   0.5282    Mg
Mg      0.4718   0.4718   0.2837    Mg
Mg      0.4718   0.4718   0.7163    Mg
Mg      0.4718   0.5282   0.2837    Mg
Mg      0.4718   0.5282   0.7163    Mg
Mg      0.4718   0.7163   0.4718    Mg
Mg      0.4718   0.7163   0.5282    Mg
Mg      0.4718   0.7837   0.0282    Mg
Mg      0.4718   0.7837   0.9718    Mg
Mg      0.4718   0.9718   0.2163    Mg
Mg      0.4718   0.9718   0.7837    Mg
O       0.4885    0.065  0.18678     O
O       0.4885    0.065  0.81322     O
O       0.4885  0.18678    0.065     O
O       0.4885  0.18678    0.935     O
O       0.4885  0.31322    0.435     O
O       0.4885  0.31322    0.565     O
O       0.4885    0.435  0.31322     O
O       0.4885    0.435  0.68678     O
O       0.4885    0.565  0.31322     O
O       0.4885    0.565  0.68678     O
O       0.4885  0.68678    0.435     O
O       0.4885  0.68678    0.565     O
O       0.4885  0.81322    0.065     O
O       0.4885  0.81322    0.935     O
O       0.4885    0.935  0.18678     O
O       0.4885    0.935  0.81322     O
O          0.5      0.0   0.0856     O
Mg         0.5      0.0  0.13649    Mg
O          0.5      0.0   0.1889     O
O          0.5      0.0   0.8111     O
Mg         0.5      0.0  0.86351    Mg
O          0.5      0.0   0.9144     O
O          0.5  0.05024  0.13566     O
O          0.5  0.05024  0.86434     O
C          0.5   0.0705   0.1565     C
C          0.5   0.0705   0.8435     C
O          0.5   0.0856      0.0     O
H          0.5   0.0984   0.0984     H
H          0.5   0.0984   0.9016     H
C          0.5  0.10606  0.14746     C
C          0.5  0.10606  0.85254     C
C          0.5  0.11478  0.11478     C
C          0.5  0.11478  0.88522     C
H          0.5    0.124   0.1937     H
H          0.5    0.124   0.8063     H
C          0.5  0.12997  0.17138     C
C          0.5  0.12997  0.82862     C
O          0.5  0.13566  0.05024     O
O          0.5  0.13566  0.94976     O
Mg         0.5  0.13649      0.0    Mg
C          0.5  0.14746  0.10606     C
C          0.5  0.14746  0.89394     C
C          0.5   0.1565   0.0705     C
C          0.5   0.1565   0.9295     C
C          0.5  0.16266  0.16266     C
C          0.5  0.16266  0.83734     C
C          0.5  0.17138  0.12997     C
C          0.5  0.17138  0.87003     C
O          0.5   0.1889      0.0     O
C          0.5  0.18914  0.18914     C
C          0.5  0.18914  0.81086     C
H          0.5   0.1937    0.124     H
H          0.5   0.1937    0.876     H
C          0.5  0.23702  0.23702     C
C          0.5  0.23702  0.76298     C
C          0.5  0.26298  0.26298     C
C          0.5  0.26298  0.73702     C
H          0.5   0.3063    0.376     H
H          0.5   0.3063    0.624     H
C          0.5  0.31086  0.31086     C
C          0.5  0.31086  0.68914     C
O          0.5   0.3111      0.5     O
C          0.5  0.32862  0.37003     C
C          0.5  0.32862  0.62997     C
C          0.5  0.33734  0.33734     C
C          0.5  0.33734  0.66266     C
C          0.5   0.3435   0.4295     C
C          0.5   0.3435   0.5705     C
C          0.5  0.35254  0.39394     C
C          0.5  0.35254  0.60606     C
Mg         0.5  0.36351      0.5    Mg
O          0.5  0.36434  0.44976     O
O          0.5  0.36434  0.55024     O
C          0.5  0.37003  0.32862     C
C          0.5  0.37003  0.67138     C
H          0.5    0.376   0.3063     H
H          0.5    0.376   0.6937     H
C          0.5  0.38522  0.38522     C
C          0.5  0.38522  0.61478     C
C          0.5  0.39394  0.35254     C
C          0.5  0.39394  0.64746     C
H          0.5   0.4016   0.4016     H
H          0.5   0.4016   0.5984     H
O          0.5   0.4144      0.5     O
C          0.5   0.4295   0.3435     C
C          0.5   0.4295   0.6565     C
O          0.5  0.44976  0.36434     O
O          0.5  0.44976  0.63566     O
O          0.5      0.5   0.3111     O
Mg         0.5      0.5  0.36351    Mg
O          0.5      0.5   0.4144     O
O          0.5      0.5   0.5856     O
Mg         0.5      0.5  0.63649    Mg
O          0.5      0.5   0.6889     O
O          0.5  0.55024  0.36434     O
O          0.5  0.55024  0.63566     O
C          0.5   0.5705   0.3435     C
C          0.5   0.5705   0.6565     C
O          0.5   0.5856      0.5     O
H          0.5   0.5984   0.4016     H
H          0.5   0.5984   0.5984     H
C          0.5  0.60606  0.35254     C
C          0.5  0.60606  0.64746     C
C          0.5  0.61478  0.38522     C
C          0.5  0.61478  0.61478     C
H          0.5    0.624   0.3063     H
H          0.5    0.624   0.6937     H
C          0.5  0.62997  0.32862     C
C          0.5  0.62997  0.67138     C
O          0.5  0.63566  0.44976     O
O          0.5  0.63566  0.55024     O
Mg         0.5  0.63649      0.5    Mg
C          0.5  0.64746  0.39394     C
C          0.5  0.64746  0.60606     C
C          0.5   0.6565   0.4295     C
C          0.5   0.6565   0.5705     C
C          0.5  0.66266  0.33734     C
C          0.5  0.66266  0.66266     C
C          0.5  0.67138  0.37003     C
C          0.5  0.67138  0.62997     C
O          0.5   0.6889      0.5     O
C          0.5  0.68914  0.31086     C
C          0.5  0.68914  0.68914     C
H          0.5   0.6937    0.376     H
H          0.5   0.6937    0.624     H
C          0.5  0.73702  0.26298     C
C          0.5  0.73702  0.73702     C
C          0.5  0.76298  0.23702     C
C          0.5  0.76298  0.76298     C
H          0.5   0.8063    0.124     H
H          0.5   0.8063    0.876     H
C          0.5  0.81086  0.18914     C
C          0.5  0.81086  0.81086     C
O          0.5   0.8111      0.0     O
C          0.5  0.82862  0.12997     C
C          0.5  0.82862  0.87003     C
C          0.5  0.83734  0.16266     C
C          0.5  0.83734  0.83734     C
C          0.5   0.8435   0.0705     C
C          0.5   0.8435   0.9295     C
C          0.5  0.85254  0.10606     C
C          0.5  0.85254  0.89394     C
Mg         0.5  0.86351      0.0    Mg
O          0.5  0.86434  0.05024     O
O          0.5  0.86434  0.94976     O
C          0.5  0.87003  0.17138     C
C          0.5  0.87003  0.82862     C
H          0.5    0.876   0.1937     H
H          0.5    0.876   0.8063     H
C          0.5  0.88522  0.11478     C
C          0.5  0.88522  0.88522     C
C          0.5  0.89394  0.14746     C
C          0.5  0.89394  0.85254     C
H          0.5   0.9016   0.0984     H
H          0.5   0.9016   0.9016     H
O          0.5   0.9144      0.0     O
C          0.5   0.9295   0.1565     C
C          0.5   0.9295   0.8435     C
O          0.5  0.94976  0.13566     O
O          0.5  0.94976  0.86434     O
O       0.5115    0.065  0.18678     O
O       0.5115    0.065  0.81322     O
O       0.5115  0.18678    0.065     O
O       0.5115  0.18678    0.935     O
O       0.5115  0.31322    0.435     O
O       0.5115  0.31322    0.565     O
O       0.5115    0.435  0.31322     O
O       0.5115    0.435  0.68678     O
O       0.5115    0.565  0.31322     O
O       0.5115    0.565  0.68678     O
O       0.5115  0.68678    0.435     O
O       0.5115  0.68678    0.565     O
O       0.5115  0.81322    0.065     O
O       0.5115  0.81322    0.935     O
O       0.5115    0.935  0.18678     O
O       0.5115    0.935  0.81322     O
Mg      0.5282   0.0282   0.2163    Mg
Mg      0.5282   0.0282   0.7837    Mg
Mg      0.5282   0.2163   0.0282    Mg
Mg      0.5282   0.2163   0.9718    Mg
Mg      0.5282   0.2837   0.4718    Mg
Mg      0.5282   0.2837   0.5282    Mg
Mg      0.5282   0.4718   0.2837    Mg
Mg      0.5282   0.4718   0.7163    Mg
Mg      0.5282   0.5282   0.2837    Mg
Mg      0.5282   0.5282   0.7163    Mg
Mg      0.5282   0.7163   0.4718    Mg
Mg      0.5282   0.7163   0.5282    Mg
Mg      0.5282   0.7837   0.0282    Mg
Mg      0.5282   0.7837   0.9718    Mg
Mg      0.5282   0.9718   0.2163    Mg
Mg      0.5282   0.9718   0.7837    Mg
C      0.52927  0.20112  0.20112     C
C      0.52927  0.20112  0.79888     C
C      0.52927  0.29888  0.29888     C
C      0.52927  0.29888  0.70112     C
C      0.52927  0.70112  0.29888     C
C      0.52927  0.70112  0.70112     C
C      0.52927  0.79888  0.20112     C
C      0.52927  0.79888  0.79888     C
C      0.52928  0.22504  0.22504     C
C      0.52928  0.22504  0.77496     C
C      0.52928  0.27496  0.27496     C
C      0.52928  0.27496  0.72504     C
C      0.52928  0.72504  0.27496     C
C      0.52928  0.72504  0.72504     C
C      0.52928  0.77496  0.22504     C
C      0.52928  0.77496  0.77496     C
H       0.5493   0.2332   0.2332     H
H       0.5493   0.2332   0.7668     H
H       0.5493   0.2668   0.2668     H
H       0.5493   0.2668   0.7332     H
H       0.5493   0.7332   0.2668     H
H       0.5493   0.7332   0.7332     H
H       0.5493   0.7668   0.2332     H
H       0.5493   0.7668   0.7668     H
O      0.55024      0.0  0.13566     O
O      0.55024      0.0  0.86434     O
O      0.55024  0.13566      0.0     O
O      0.55024  0.36434      0.5     O
O      0.55024      0.5  0.36434     O
O      0.55024      0.5  0.63566     O
O      0.55024  0.63566      0.5     O
O      0.55024  0.86434      0.0     O
H       0.5551   0.1713   0.8286     H
H       0.5551   0.1714   0.1713     H
H       0.5551   0.3286   0.3287     H
H       0.5551   0.3287   0.6714     H
H       0.5551   0.6713   0.3286     H
H       0.5551   0.6714   0.6713     H
H       0.5551   0.8286   0.8287     H
H       0.5551   0.8287   0.1714     H
C       0.5594  0.18757  0.18757     C
C       0.5594  0.18757  0.81243     C
C       0.5594  0.31243  0.31243     C
C       0.5594  0.31243  0.68757     C
C       0.5594  0.68757  0.31243     C
C       0.5594  0.68757  0.68757     C
C       0.5594  0.81243  0.18757     C
C       0.5594  0.81243  0.81243     C
O        0.565   0.0115  0.18678     O
O        0.565   0.0115  0.81322     O
O        0.565  0.18678   0.0115     O
O        0.565  0.18678   0.9885     O
O        0.565  0.31322   0.4885     O
O        0.565  0.31322   0.5115     O
O        0.565   0.4885  0.31322     O
O        0.565   0.4885  0.68678     O
O        0.565   0.5115  0.31322     O
O        0.565   0.5115  0.68678     O
O        0.565  0.68678   0.4885     O
O        0.565  0.68678   0.5115     O
O        0.565  0.81322   0.0115     O
O        0.565  0.81322   0.9885     O
O        0.565   0.9885  0.18678     O
O        0.565   0.9885  0.81322     O
C       0.5705      0.0   0.1565     C
C       0.5705      0.0   0.8435     C
C       0.5705   0.1565      0.0     C
C       0.5705   0.3435      0.5     C
C       0.5705      0.5   0.3435     C
C       0.5705      0.5   0.6565     C
C       0.5705   0.6565      0.5     C
C       0.5705   0.8435      0.0     C
H       0.5717    0.178   0.2053     H
H       0.5717    0.178   0.7947     H
H       0.5717    0.205   0.1784     H
H       0.5717    0.205   0.8216     H
H       0.5717   0.2947    0.322     H
H       0.5717   0.2947    0.678     H
H       0.5717   0.3216    0.295     H
H       0.5717   0.3216    0.705     H
H       0.5717    0.678   0.2947     H
H       0.5717    0.678   0.7053     H
H       0.5717    0.705   0.3216     H
H       0.5717    0.705   0.6784     H
H       0.5717   0.7947    0.178     H
H       0.5717   0.7947    0.822     H
H       0.5717   0.8216    0.205     H
H       0.5717   0.8216    0.795     H
O       0.5856      0.0      0.0     O
O       0.5856      0.5      0.5     O
H       0.5984      0.0   0.0984     H
H       0.5984      0.0   0.9016     H
H       0.5984   0.0984      0.0     H
H       0.5984   0.4016      0.5     H
H       0.5984      0.5   0.4016     H
H       0.5984      0.5   0.5984     H
H       0.5984   0.5984      0.5     H
H       0.5984   0.9016      0.0     H
C      0.60606      0.0  0.14746     C
C      0.60606      0.0  0.85254     C
C      0.60606  0.14746      0.0     C
C      0.60606  0.35254      0.5     C
C      0.60606      0.5  0.35254     C
C      0.60606      0.5  0.64746     C
C      0.60606  0.64746      0.5     C
C      0.60606  0.85254      0.0     C
C      0.61478      0.0  0.11478     C
C      0.61478      0.0  0.88522     C
C      0.61478  0.11478      0.0     C
C      0.61478  0.38522      0.5     C
C      0.61478      0.5  0.38522     C
C      0.61478      0.5  0.61478     C
C      0.61478  0.61478      0.5     C
C      0.61478  0.88522      0.0     C
H        0.624      0.0   0.1937     H
H        0.624      0.0   0.8063     H
H        0.624   0.1937      0.0     H
H        0.624   0.3063      0.5     H
H        0.624      0.5   0.3063     H
H        0.624      0.5   0.6937     H
H        0.624   0.6937      0.5     H
H        0.624   0.8063      0.0     H
C      0.62997      0.0  0.17138     C
C      0.62997      0.0  0.82862     C
C      0.62997  0.17138      0.0     C
C      0.62997  0.32862      0.5     C
C      0.62997      0.5  0.32862     C
C      0.62997      0.5  0.67138     C
C      0.62997  0.67138      0.5     C
C      0.62997  0.82862      0.0     C
O      0.63566      0.0  0.05024     O
O      0.63566      0.0  0.94976     O
O      0.63566  0.05024      0.0     O
O      0.63566  0.44976      0.5     O
O      0.63566      0.5  0.44976     O
O      0.63566      0.5  0.55024     O
O      0.63566  0.55024      0.5     O
O      0.63566  0.94976      0.0     O
Mg     0.63649      0.0      0.0    Mg
Mg     0.63649      0.5      0.5    Mg
C      0.64746      0.0  0.10606     C
C      0.64746      0.0  0.89394     C
C      0.64746  0.10606      0.0     C
C      0.64746  0.39394      0.5     C
C      0.64746      0.5  0.39394     C
C      0.64746      0.5  0.60606     C
C      0.64746  0.60606      0.5     C
C      0.64746  0.89394      0.0     C
C       0.6565      0.0   0.0705     C
C       0.6565      0.0   0.9295     C
C       0.6565   0.0705      0.0     C
C       0.6565   0.4295      0.5     C
C       0.6565      0.5   0.4295     C
C       0.6565      0.5   0.5705     C
C       0.6565   0.5705      0.5     C
C       0.6565   0.9295      0.0     C
C      0.66266      0.0  0.16266     C
C      0.66266      0.0  0.83734     C
C      0.66266  0.16266      0.0     C
C      0.66266  0.33734      0.5     C
C      0.66266      0.5  0.33734     C
C      0.66266      0.5  0.66266     C
C      0.66266  0.66266      0.5     C
C      0.66266  0.83734      0.0     C
H       0.6713   0.0551   0.1714     H
H       0.6713   0.1714   0.9449     H
H       0.6713   0.3286   0.5551     H
H       0.6713   0.4449   0.3286     H
H       0.6713   0.5551   0.6714     H
H       0.6713   0.6714   0.4449     H
H       0.6713   0.8286   0.0551     H
H       0.6713   0.9449   0.8286     H
C      0.67138      0.0  0.12997     C
C      0.67138      0.0  0.87003     C
C      0.67138  0.12997      0.0     C
C      0.67138  0.37003      0.5     C
C      0.67138      0.5  0.37003     C
C      0.67138      0.5  0.62997     C
C      0.67138  0.62997      0.5     C
C      0.67138  0.87003      0.0     C
H       0.6714   0.0551   0.8287     H
H       0.6714   0.1713   0.0551     H
H       0.6714   0.3287   0.4449     H
H       0.6714   0.4449   0.6713     H
H       0.6714   0.5551   0.3287     H
H       0.6714   0.6713   0.5551     H
H       0.6714   0.8287   0.9449     H
H       0.6714   0.9449   0.1713     H
H        0.678   0.0717   0.2053     H
H        0.678   0.0717   0.7947     H
H        0.678   0.2053   0.0717     H
H        0.678   0.2053   0.9283     H
H        0.678   0.2947   0.4283     H
H        0.678   0.2947   0.5717     H
H        0.678   0.4283   0.2947     H
H        0.678   0.4283   0.7053     H
H        0.678   0.5717   0.2947     H
H        0.678   0.5717   0.7053     H
H        0.678   0.7053   0.4283     H
H        0.678   0.7053   0.5717     H
H        0.678   0.7947   0.0717     H
H        0.678   0.7947   0.9283     H
H        0.678   0.9283   0.2053     H
H        0.678   0.9283   0.7947     H
O      0.68678   0.0115    0.065     O
O      0.68678   0.0115    0.935     O
O      0.68678    0.065   0.0115     O
O      0.68678    0.065   0.9885     O
O      0.68678    0.435   0.4885     O
O      0.68678    0.435   0.5115     O
O      0.68678   0.4885    0.435     O
O      0.68678   0.4885    0.565     O
O      0.68678   0.5115    0.435     O
O      0.68678   0.5115    0.565     O
O      0.68678    0.565   0.4885     O
O      0.68678    0.565   0.5115     O
O      0.68678    0.935   0.0115     O
O      0.68678    0.935   0.9885     O
O      0.68678   0.9885    0.065     O
O      0.68678   0.9885    0.935     O
C      0.68757   0.0594  0.18757     C
C      0.68757   0.0594  0.81243     C
C      0.68757  0.18757   0.0594     C
C      0.68757  0.18757   0.9406     C
C      0.68757  0.31243   0.4406     C
C      0.68757  0.31243   0.5594     C
C      0.68757   0.4406  0.31243     C
C      0.68757   0.4406  0.68757     C
C      0.68757   0.5594  0.31243     C
C      0.68757   0.5594  0.68757     C
C      0.68757  0.68757   0.4406     C
C      0.68757  0.68757   0.5594     C
C      0.68757  0.81243   0.0594     C
C      0.68757  0.81243   0.9406     C
C      0.68757   0.9406  0.18757     C
C      0.68757   0.9406  0.81243     C
O       0.6889      0.0      0.0     O
O       0.6889      0.5      0.5     O
C      0.68914      0.0  0.18914     C
C      0.68914      0.0  0.81086     C
C      0.68914  0.18914      0.0     C
C      0.68914  0.31086      0.5     C
C      0.68914      0.5  0.31086     C
C      0.68914      0.5  0.68914     C
C      0.68914  0.68914      0.5     C
C      0.68914  0.81086      0.0     C
H       0.6937      0.0    0.124     H
H       0.6937      0.0    0.876     H
H       0.6937    0.124      0.0     H
H       0.6937    0.376      0.5     H
H       0.6937      0.5    0.376     H
H       0.6937      0.5    0.624     H
H       0.6937    0.624      0.5     H
H       0.6937    0.876      0.0     H
C      0.70112  0.02927  0.20112     C
C      0.70112  0.02927  0.79888     C
C      0.70112  0.20112  0.02927     C
C      0.70112  0.20112  0.97073     C
C      0.70112  0.29888  0.47073     C
C      0.70112  0.29888  0.52927     C
C      0.70112  0.47073  0.29888     C
C      0.70112  0.47073  0.70112     C
C      0.70112  0.52927  0.29888     C
C      0.70112  0.52927  0.70112     C
C      0.70112  0.70112  0.47073     C
C      0.70112  0.70112  0.52927     C
C      0.70112  0.79888  0.02927     C
C      0.70112  0.79888  0.97073     C
C      0.70112  0.97073  0.20112     C
C      0.70112  0.97073  0.79888     C
H        0.705   0.0717   0.1784     H
H        0.705   0.0717   0.8216     H
H        0.705   0.1784   0.0717     H
H        0.705   0.1784   0.9283     H
H        0.705   0.3216   0.4283     H
H        0.705   0.3216   0.5717     H
H        0.705   0.4283   0.3216     H
H        0.705   0.4283   0.6784     H
H        0.705   0.5717   0.3216     H
H        0.705   0.5717   0.6784     H
H        0.705   0.6784   0.4283     H
H        0.705   0.6784   0.5717     H
H        0.705   0.8216   0.0717     H
H        0.705   0.8216   0.9283     H
H        0.705   0.9283   0.1784     H
H        0.705   0.9283   0.8216     H
Mg      0.7163   0.0282   0.0282    Mg
Mg      0.7163   0.0282   0.9718    Mg
Mg      0.7163   0.4718   0.4718    Mg
Mg      0.7163   0.4718   0.5282    Mg
Mg      0.7163   0.5282   0.4718    Mg
Mg      0.7163   0.5282   0.5282    Mg
Mg      0.7163   0.9718   0.0282    Mg
Mg      0.7163   0.9718   0.9718    Mg
C      0.72504  0.02928  0.22504     C
C      0.72504  0.02928  0.77496     C
C      0.72504  0.22504  0.02928     C
C      0.72504  0.22504  0.97072     C
C      0.72504  0.27496  0.47072     C
C      0.72504  0.27496  0.52928     C
C      0.72504  0.47072  0.27496     C
C      0.72504  0.47072  0.72504     C
C      0.72504  0.52928  0.27496     C
C      0.72504  0.52928  0.72504     C
C      0.72504  0.72504  0.47072     C
C      0.72504  0.72504  0.52928     C
C      0.72504  0.77496  0.02928     C
C      0.72504  0.77496  0.97072     C
C      0.72504  0.97072  0.22504     C
C      0.72504  0.97072  0.77496     C
H       0.7332   0.0493   0.2332     H
H       0.7332   0.0493   0.7668     H
H       0.7332   0.2332   0.0493     H
H       0.7332   0.2332   0.9507     H
H       0.7332   0.2668   0.4507     H
H       0.7332   0.2668   0.5493     H
H       0.7332   0.4507   0.2668     H
H       0.7332   0.4507   0.7332     H
H       0.7332   0.5493   0.2668     H
H       0.7332   0.5493   0.7332     H
H       0.7332   0.7332   0.4507     H
H       0.7332   0.7332   0.5493     H
H       0.7332   0.7668   0.0493     H
H       0.7332   0.7668   0.9507     H
H       0.7332   0.9507   0.2332     H
H       0.7332   0.9507   0.7668     H
C      0.73702      0.0  0.23702     C
C      0.73702      0.0  0.76298     C
C      0.73702  0.23702      0.0     C
C      0.73702  0.26298      0.5     C
C      0.73702      0.5  0.26298     C
C      0.73702      0.5  0.73702     C
C      0.73702  0.73702      0.5     C
C      0.73702  0.76298      0.0     C
C      0.76298      0.0  0.26298     C
C      0.76298      0.0  0.73702     C
C      0.76298  0.23702      0.5     C
C      0.76298  0.26298      0.0     C
C      0.76298      0.5  0.23702     C
C      0.76298      0.5  0.76298     C
C      0.76298  0.73702      0.0     C
C      0.76298  0.76298      0.5     C
H       0.7668   0.0493   0.2668     H
H       0.7668   0.0493   0.7332     H
H       0.7668   0.2332   0.4507     H
H       0.7668   0.2332   0.5493     H
H       0.7668   0.2668   0.0493     H
H       0.7668   0.2668   0.9507     H
H       0.7668   0.4507   0.2332     H
H       0.7668   0.4507   0.7668     H
H       0.7668   0.5493   0.2332     H
H       0.7668   0.5493   0.7668     H
H       0.7668   0.7332   0.0493     H
H       0.7668   0.7332   0.9507     H
H       0.7668   0.7668   0.4507     H
H       0.7668   0.7668   0.5493     H
H       0.7668   0.9507   0.2668     H
H       0.7668   0.9507   0.7332     H
C      0.77496  0.02928  0.27496     C
C      0.77496  0.02928  0.72504     C
C      0.77496  0.22504  0.47072     C
C      0.77496  0.22504  0.52928     C
C      0.77496  0.27496  0.02928     C
C      0.77496  0.27496  0.97072     C
C      0.77496  0.47072  0.22504     C
C      0.77496  0.47072  0.77496     C
C      0.77496  0.52928  0.22504     C
C      0.77496  0.52928  0.77496     C
C      0.77496  0.72504  0.02928     C
C      0.77496  0.72504  0.97072     C
C      0.77496  0.77496  0.47072     C
C      0.77496  0.77496  0.52928     C
C      0.77496  0.97072  0.27496     C
C      0.77496  0.97072  0.72504     C
Mg      0.7837   0.0282   0.4718    Mg
Mg      0.7837   0.0282   0.5282    Mg
Mg      0.7837   0.4718   0.0282    Mg
Mg      0.7837   0.4718   0.9718    Mg
Mg      0.7837   0.5282   0.0282    Mg
Mg      0.7837   0.5282   0.9718    Mg
Mg      0.7837   0.9718   0.4718    Mg
Mg      0.7837   0.9718   0.5282    Mg
H       0.7947   0.0717    0.322     H
H       0.7947   0.0717    0.678     H
H       0.7947    0.178   0.4283     H
H       0.7947    0.178   0.5717     H
H       0.7947    0.322   0.0717     H
H       0.7947    0.322   0.9283     H
H       0.7947   0.4283    0.178     H
H       0.7947   0.4283    0.822     H
H       0.7947   0.5717    0.178     H
H       0.7947   0.5717    0.822     H
H       0.7947    0.678   0.0717     H
H       0.7947    0.678   0.9283     H
H       0.7947    0.822   0.4283     H
H       0.7947    0.822   0.5717     H
H       0.7947   0.9283    0.322     H
H       0.7947   0.9283    0.678     H
C      0.79888  0.02927  0.29888     C
C      0.79888  0.02927  0.70112     C
C      0.79888  0.20112  0.47073     C
C      0.79888  0.20112  0.52927     C
C      0.79888  0.29888  0.02927     C
C      0.79888  0.29888  0.97073     C
C      0.79888  0.47073  0.20112     C
C      0.79888  0.47073  0.79888     C
C      0.79888  0.52927  0.20112     C
C      0.79888  0.52927  0.79888     C
C      0.79888  0.70112  0.02927     C
C      0.79888  0.70112  0.97073     C
C      0.79888  0.79888  0.47073     C
C      0.79888  0.79888  0.52927     C
C      0.79888  0.97073  0.29888     C
C      0.79888  0.97073  0.70112     C
H       0.8063      0.0    0.376     H
H       0.8063      0.0    0.624     H
H       0.8063    0.124      0.5     H
H       0.8063    0.376      0.0     H
H       0.8063      0.5    0.124     H
H       0.8063      0.5    0.876     H
H       0.8063    0.624      0.0     H
H       0.8063    0.876      0.5     H
C      0.81086      0.0  0.31086     C
C      0.81086      0.0  0.68914     C
C      0.81086  0.18914      0.5     C
C      0.81086  0.31086      0.0     C
C      0.81086      0.5  0.18914     C
C      0.81086      0.5  0.81086     C
C      0.81086  0.68914      0.0     C
C      0.81086  0.81086      0.5     C
O       0.8111      0.0      0.5     O
O       0.8111      0.5      0.0     O
C      0.81243   0.0594  0.31243     C
C      0.81243   0.0594  0.68757     C
C      0.81243  0.18757   0.4406     C
C      0.81243  0.18757   0.5594     C
C      0.81243  0.31243   0.0594     C
C      0.81243  0.31243   0.9406     C
C      0.81243   0.4406  0.18757     C
C      0.81243   0.4406  0.81243     C
C      0.81243   0.5594  0.18757     C
C      0.81243   0.5594  0.81243     C
C      0.81243  0.68757   0.0594     C
C      0.81243  0.68757   0.9406     C
C      0.81243  0.81243   0.4406     C
C      0.81243  0.81243   0.5594     C
C      0.81243   0.9406  0.31243     C
C      0.81243   0.9406  0.68757     C
O      0.81322   0.0115    0.435     O
O      0.81322   0.0115    0.565     O
O      0.81322    0.065   0.4885     O
O      0.81322    0.065   0.5115     O
O      0.81322    0.435   0.0115     O
O      0.81322    0.435   0.9885     O
O      0.81322   0.4885    0.065     O
O      0.81322   0.4885    0.935     O
O      0.81322   0.5115    0.065     O
O      0.81322   0.5115    0.935     O
O      0.81322    0.565   0.0115     O
O      0.81322    0.565   0.9885     O
O      0.81322    0.935   0.4885     O
O      0.81322    0.935   0.5115     O
O      0.81322   0.9885    0.435     O
O      0.81322   0.9885    0.565     O
H       0.8216   0.0717    0.295     H
H       0.8216   0.0717    0.705     H
H       0.8216    0.205   0.4283     H
H       0.8216    0.205   0.5717     H
H       0.8216    0.295   0.0717     H
H       0.8216    0.295   0.9283     H
H       0.8216   0.4283    0.205     H
H       0.8216   0.4283    0.795     H
H       0.8216   0.5717    0.205     H
H       0.8216   0.5717    0.795     H
H       0.8216    0.705   0.0717     H
H       0.8216    0.705   0.9283     H
H       0.8216    0.795   0.4283     H
H       0.8216    0.795   0.5717     H
H       0.8216   0.9283    0.295     H
H       0.8216   0.9283    0.705     H
H       0.8286   0.0551   0.6713     H
H       0.8286   0.1713   0.4449     H
H       0.8286   0.3287   0.0551     H
H       0.8286   0.4449   0.8287     H
H       0.8286   0.5551   0.1713     H
H       0.8286   0.6713   0.9449     H
H       0.8286   0.8287   0.5551     H
H       0.8286   0.9449   0.3287     H
C      0.82862      0.0  0.37003     C
C      0.82862      0.0  0.62997     C
C      0.82862  0.12997      0.5     C
C      0.82862  0.37003      0.0     C
C      0.82862      0.5  0.12997     C
C      0.82862      0.5  0.87003     C
C      0.82862  0.62997      0.0     C
C      0.82862  0.87003      0.5     C
H       0.8287   0.0551   0.3286     H
H       0.8287   0.1714   0.5551     H
H       0.8287   0.3286   0.9449     H
H       0.8287   0.4449   0.1714     H
H       0.8287   0.5551   0.8286     H
H       0.8287   0.6714   0.0551     H
H       0.8287   0.8286   0.4449     H
H       0.8287   0.9449   0.6714     H
C      0.83734      0.0  0.33734     C
C      0.83734      0.0  0.66266     C
C      0.83734  0.16266      0.5     C
C      0.83734  0.33734      0.0     C
C      0.83734      0.5  0.16266     C
C      0.83734      0.5  0.83734     C
C      0.83734  0.66266      0.0     C
C      0.83734  0.83734      0.5     C
C       0.8435      0.0   0.4295     C
C       0.8435      0.0   0.5705     C
C       0.8435   0.0705      0.5     C
C       0.8435   0.4295      0.0     C
C       0.8435      0.5   0.0705     C
C       0.8435      0.5   0.9295     C
C       0.8435   0.5705      0.0     C
C       0.8435   0.9295      0.5     C
C      0.85254      0.0  0.39394     C
C      0.85254      0.0  0.60606     C
C      0.85254  0.10606      0.5     C
C      0.85254  0.39394      0.0     C
C      0.85254      0.5  0.10606     C
C      0.85254      0.5  0.89394     C
C      0.85254  0.60606      0.0     C
C      0.85254  0.89394      0.5     C
Mg     0.86351      0.0      0.5    Mg
Mg     0.86351      0.5      0.0    Mg
O      0.86434      0.0  0.44976     O
O      0.86434      0.0  0.55024     O
O      0.86434  0.05024      0.5     O
O      0.86434  0.44976      0.0     O
O      0.86434      0.5  0.05024     O
O      0.86434      0.5  0.94976     O
O      0.86434  0.55024      0.0     O
O      0.86434  0.94976      0.5     O
C      0.87003      0.0  0.32862     C
C      0.87003      0.0  0.67138     C
C      0.87003  0.17138      0.5     C
C      0.87003  0.32862      0.0     C
C      0.87003      0.5  0.17138     C
C      0.87003      0.5  0.82862     C
C      0.87003  0.67138      0.0     C
C      0.87003  0.82862      0.5     C
H        0.876      0.0   0.3063     H
H        0.876      0.0   0.6937     H
H        0.876   0.1937      0.5     H
H        0.876   0.3063      0.0     H
H        0.876      0.5   0.1937     H
H        0.876      0.5   0.8063     H
H        0.876   0.6937      0.0     H
H        0.876   0.8063      0.5     H
C      0.88522      0.0  0.38522     C
C      0.88522      0.0  0.61478     C
C      0.88522  0.11478      0.5     C
C      0.88522  0.38522      0.0     C
C      0.88522      0.5  0.11478     C
C      0.88522      0.5  0.88522     C
C      0.88522  0.61478      0.0     C
C      0.88522  0.88522      0.5     C
C      0.89394      0.0  0.35254     C
C      0.89394      0.0  0.64746     C
C      0.89394  0.14746      0.5     C
C      0.89394  0.35254      0.0     C
C      0.89394      0.5  0.14746     C
C      0.89394      0.5  0.85254     C
C      0.89394  0.64746      0.0     C
C      0.89394  0.85254      0.5     C
H       0.9016      0.0   0.4016     H
H       0.9016      0.0   0.5984     H
H       0.9016   0.0984      0.5     H
H       0.9016   0.4016      0.0     H
H       0.9016      0.5   0.0984     H
H       0.9016      0.5   0.9016     H
H       0.9016   0.5984      0.0     H
H       0.9016   0.9016      0.5     H
O       0.9144      0.0      0.5     O
O       0.9144      0.5      0.0     O
H       0.9283    0.178   0.2947     H
H       0.9283    0.178   0.7053     H
H       0.9283    0.205   0.3216     H
H       0.9283    0.205   0.6784     H
H       0.9283   0.2947    0.178     H
H       0.9283   0.2947    0.822     H
H       0.9283   0.3216    0.205     H
H       0.9283   0.3216    0.795     H
H       0.9283    0.678   0.2053     H
H       0.9283    0.678   0.7947     H
H       0.9283    0.705   0.1784     H
H       0.9283    0.705   0.8216     H
H       0.9283   0.7947    0.322     H
H       0.9283   0.7947    0.678     H
H       0.9283   0.8216    0.295     H
H       0.9283   0.8216    0.705     H
C       0.9295      0.0   0.3435     C
C       0.9295      0.0   0.6565     C
C       0.9295   0.1565      0.5     C
C       0.9295   0.3435      0.0     C
C       0.9295      0.5   0.1565     C
C       0.9295      0.5   0.8435     C
C       0.9295   0.6565      0.0     C
C       0.9295   0.8435      0.5     C
O        0.935   0.0115  0.31322     O
O        0.935   0.0115  0.68678     O
O        0.935  0.18678   0.4885     O
O        0.935  0.18678   0.5115     O
O        0.935  0.31322   0.0115     O
O        0.935  0.31322   0.9885     O
O        0.935   0.4885  0.18678     O
O        0.935   0.4885  0.81322     O
O        0.935   0.5115  0.18678     O
O        0.935   0.5115  0.81322     O
O        0.935  0.68678   0.0115     O
O        0.935  0.68678   0.9885     O
O        0.935  0.81322   0.4885     O
O        0.935  0.81322   0.5115     O
O        0.935   0.9885  0.31322     O
O        0.935   0.9885  0.68678     O
C       0.9406  0.18757  0.31243     C
C       0.9406  0.18757  0.68757     C
C       0.9406  0.31243  0.18757     C
C       0.9406  0.31243  0.81243     C
C       0.9406  0.68757  0.18757     C
C       0.9406  0.68757  0.81243     C
C       0.9406  0.81243  0.31243     C
C       0.9406  0.81243  0.68757     C
H       0.9449   0.1713   0.6714     H
H       0.9449   0.1714   0.3287     H
H       0.9449   0.3286   0.1713     H
H       0.9449   0.3287   0.8286     H
H       0.9449   0.6713   0.1714     H
H       0.9449   0.6714   0.8287     H
H       0.9449   0.8286   0.6713     H
H       0.9449   0.8287   0.3286     H
O      0.94976      0.0  0.36434     O
O      0.94976      0.0  0.63566     O
O      0.94976  0.13566      0.5     O
O      0.94976  0.36434      0.0     O
O      0.94976      0.5  0.13566     O
O      0.94976      0.5  0.86434     O
O      0.94976  0.63566      0.0     O
O      0.94976  0.86434      0.5     O
H       0.9507   0.2332   0.2668     H
H       0.9507   0.2332   0.7332     H
H       0.9507   0.2668   0.2332     H
H       0.9507   0.2668   0.7668     H
H       0.9507   0.7332   0.2332     H
H       0.9507   0.7332   0.7668     H
H       0.9507   0.7668   0.2668     H
H       0.9507   0.7668   0.7332     H
C      0.97072  0.22504  0.27496     C
C      0.97072  0.22504  0.72504     C
C      0.97072  0.27496  0.22504     C
C      0.97072  0.27496  0.77496     C
C      0.97072  0.72504  0.22504     C
C      0.97072  0.72504  0.77496     C
C      0.97072  0.77496  0.27496     C
C      0.97072  0.77496  0.72504     C
C      0.97073  0.20112  0.29888     C
C      0.97073  0.20112  0.70112     C
C      0.97073  0.29888  0.20112     C
C      0.97073  0.29888  0.79888     C
C      0.97073  0.70112  0.20112     C
C      0.97073  0.70112  0.79888     C
C      0.97073  0.79888  0.29888     C
C      0.97073  0.79888  0.70112     C
Mg      0.9718   0.0282   0.2837    Mg
Mg      0.9718   0.0282   0.7163    Mg
Mg      0.9718   0.2163   0.4718    Mg
Mg      0.9718   0.2163   0.5282    Mg
Mg      0.9718   0.2837   0.0282    Mg
Mg      0.9718   0.2837   0.9718    Mg
Mg      0.9718   0.4718   0.2163    Mg
Mg      0.9718   0.4718   0.7837    Mg
Mg      0.9718   0.5282   0.2163    Mg
Mg      0.9718   0.5282   0.7837    Mg
Mg      0.9718   0.7163   0.0282    Mg
Mg      0.9718   0.7163   0.9718    Mg
Mg      0.9718   0.7837   0.4718    Mg
Mg      0.9718   0.7837   0.5282    Mg
Mg      0.9718   0.9718   0.2837    Mg
Mg      0.9718   0.9718   0.7163    Mg
O       0.9885    0.065  0.31322     O
O       0.9885    0.065  0.68678     O
O       0.9885  0.18678    0.435     O
O       0.9885  0.18678    0.565     O
O       0.9885  0.31322    0.065     O
O       0.9885  0.31322    0.935     O
O       0.9885    0.435  0.18678     O
O       0.9885    0.435  0.81322     O
O       0.9885    0.565  0.18678     O
O       0.9885    0.565  0.81322     O
O       0.9885  0.68678    0.065     O
O       0.9885  0.68678    0.935     O
O       0.9885  0.81322    0.435     O
O       0.9885  0.81322    0.565     O
O       0.9885    0.935  0.31322     O
O       0.9885    0.935  0.68678     O
