data_I
_chemical_name_common  '/Users/gianmarcoterrones/Research/MOFs/MOF_structures/water_stability_work_extra_structs/cleaned_from_CoRE/ZODXAT_clean'
_cell_length_a 40.77000
_cell_length_b 40.77000
_cell_length_c 40.77000
_cell_angle_alpha 90.00000
_cell_angle_beta  90.00000
_cell_angle_gamma 90.00000
_space_group_name_H-M_alt      'P 1'


loop_
_space_group_symop_operation_xyz
  'x, y, z' 

loop_
_atom_site_label
_atom_site_fract_x
_atom_site_fract_y
_atom_site_fract_z
_atom_site_type_symbol
O          0.0      0.0   0.3122     O
Fe         0.0      0.0   0.3599    Fe
Fe         0.0      0.0   0.6401    Fe
O          0.0      0.0   0.6878     O
O          0.0  0.05044  0.36249     O
O          0.0  0.05044  0.63751     O
C          0.0   0.0716  0.33935     C
C          0.0   0.0716  0.66065     C
H          0.0   0.0988   0.4012     H
H          0.0   0.0988   0.5988     H
C          0.0  0.10642  0.35181     C
C          0.0  0.10642  0.64819     C
C          0.0  0.11525  0.38475     C
C          0.0  0.11525  0.61525     C
H          0.0   0.1245   0.3052     H
H          0.0   0.1245   0.6948     H
C          0.0  0.13054   0.3277     C
C          0.0  0.13054   0.6723     C
O          0.0  0.13751  0.44956     O
O          0.0  0.13751  0.55044     O
Fe         0.0   0.1401      0.5    Fe
C          0.0  0.14819  0.39358     C
C          0.0  0.14819  0.60642     C
C          0.0  0.16065   0.4284     C
C          0.0  0.16065   0.5716     C
C          0.0  0.16347  0.33653     C
C          0.0  0.16347  0.66347     C
C          0.0   0.1723  0.36946     C
C          0.0   0.1723  0.63054     C
O          0.0   0.1878      0.5     O
C          0.0  0.18912  0.31088     C
C          0.0  0.18912  0.68912     C
H          0.0   0.1948   0.3755     H
H          0.0   0.1948   0.6245     H
C          0.0  0.23735  0.26265     C
C          0.0  0.23735  0.73735     C
C          0.0  0.26265  0.23735     C
C          0.0  0.26265  0.76265     C
H          0.0   0.3052   0.1245     H
H          0.0   0.3052   0.8755     H
C          0.0  0.31088  0.18912     C
C          0.0  0.31088  0.81088     C
O          0.0   0.3122      0.0     O
C          0.0   0.3277  0.13054     C
C          0.0   0.3277  0.86946     C
C          0.0  0.33653  0.16347     C
C          0.0  0.33653  0.83653     C
C          0.0  0.33935   0.0716     C
C          0.0  0.33935   0.9284     C
C          0.0  0.35181  0.10642     C
C          0.0  0.35181  0.89358     C
Fe         0.0   0.3599      0.0    Fe
O          0.0  0.36249  0.05044     O
O          0.0  0.36249  0.94956     O
C          0.0  0.36946   0.1723     C
C          0.0  0.36946   0.8277     C
H          0.0   0.3755   0.1948     H
H          0.0   0.3755   0.8052     H
C          0.0  0.38475  0.11525     C
C          0.0  0.38475  0.88475     C
C          0.0  0.39358  0.14819     C
C          0.0  0.39358  0.85181     C
H          0.0   0.4012   0.0988     H
H          0.0   0.4012   0.9012     H
C          0.0   0.4284  0.16065     C
C          0.0   0.4284  0.83935     C
O          0.0  0.44956  0.13751     O
O          0.0  0.44956  0.86249     O
Fe         0.0      0.5   0.1401    Fe
O          0.0      0.5   0.1878     O
O          0.0      0.5   0.8122     O
Fe         0.0      0.5   0.8599    Fe
O          0.0  0.55044  0.13751     O
O          0.0  0.55044  0.86249     O
C          0.0   0.5716  0.16065     C
C          0.0   0.5716  0.83935     C
H          0.0   0.5988   0.0988     H
H          0.0   0.5988   0.9012     H
C          0.0  0.60642  0.14819     C
C          0.0  0.60642  0.85181     C
C          0.0  0.61525  0.11525     C
C          0.0  0.61525  0.88475     C
H          0.0   0.6245   0.1948     H
H          0.0   0.6245   0.8052     H
C          0.0  0.63054   0.1723     C
C          0.0  0.63054   0.8277     C
O          0.0  0.63751  0.05044     O
O          0.0  0.63751  0.94956     O
Fe         0.0   0.6401      0.0    Fe
C          0.0  0.64819  0.10642     C
C          0.0  0.64819  0.89358     C
C          0.0  0.66065   0.0716     C
C          0.0  0.66065   0.9284     C
C          0.0  0.66347  0.16347     C
C          0.0  0.66347  0.83653     C
C          0.0   0.6723  0.13054     C
C          0.0   0.6723  0.86946     C
O          0.0   0.6878      0.0     O
C          0.0  0.68912  0.18912     C
C          0.0  0.68912  0.81088     C
H          0.0   0.6948   0.1245     H
H          0.0   0.6948   0.8755     H
C          0.0  0.73735  0.23735     C
C          0.0  0.73735  0.76265     C
C          0.0  0.76265  0.26265     C
C          0.0  0.76265  0.73735     C
H          0.0   0.8052   0.3755     H
H          0.0   0.8052   0.6245     H
C          0.0  0.81088  0.31088     C
C          0.0  0.81088  0.68912     C
O          0.0   0.8122      0.5     O
C          0.0   0.8277  0.36946     C
C          0.0   0.8277  0.63054     C
C          0.0  0.83653  0.33653     C
C          0.0  0.83653  0.66347     C
C          0.0  0.83935   0.4284     C
C          0.0  0.83935   0.5716     C
C          0.0  0.85181  0.39358     C
C          0.0  0.85181  0.60642     C
Fe         0.0   0.8599      0.5    Fe
O          0.0  0.86249  0.44956     O
O          0.0  0.86249  0.55044     O
C          0.0  0.86946   0.3277     C
C          0.0  0.86946   0.6723     C
H          0.0   0.8755   0.3052     H
H          0.0   0.8755   0.6948     H
C          0.0  0.88475  0.38475     C
C          0.0  0.88475  0.61525     C
C          0.0  0.89358  0.35181     C
C          0.0  0.89358  0.64819     C
H          0.0   0.9012   0.4012     H
H          0.0   0.9012   0.5988     H
C          0.0   0.9284  0.33935     C
C          0.0   0.9284  0.66065     C
O          0.0  0.94956  0.36249     O
O          0.0  0.94956  0.63751     O
O       0.0147    0.065  0.31244     O
O       0.0147    0.065  0.68756     O
O       0.0147  0.18756    0.435     O
O       0.0147  0.18756    0.565     O
O       0.0147  0.31244    0.065     O
O       0.0147  0.31244    0.935     O
O       0.0147    0.435  0.18756     O
O       0.0147    0.435  0.81244     O
O       0.0147    0.565  0.18756     O
O       0.0147    0.565  0.81244     O
O       0.0147  0.68756    0.065     O
O       0.0147  0.68756    0.935     O
O       0.0147  0.81244    0.435     O
O       0.0147  0.81244    0.565     O
O       0.0147    0.935  0.31244     O
O       0.0147    0.935  0.68756     O
Fe     0.02727  0.02727  0.28953    Fe
Fe     0.02727  0.02727  0.71047    Fe
Fe     0.02727  0.21047  0.47273    Fe
Fe     0.02727  0.21047  0.52727    Fe
Fe     0.02727  0.28953  0.02727    Fe
Fe     0.02727  0.28953  0.97273    Fe
Fe     0.02727  0.47273  0.21047    Fe
Fe     0.02727  0.47273  0.78953    Fe
Fe     0.02727  0.52727  0.21047    Fe
Fe     0.02727  0.52727  0.78953    Fe
Fe     0.02727  0.71047  0.02727    Fe
Fe     0.02727  0.71047  0.97273    Fe
Fe     0.02727  0.78953  0.47273    Fe
Fe     0.02727  0.78953  0.52727    Fe
Fe     0.02727  0.97273  0.28953    Fe
Fe     0.02727  0.97273  0.71047    Fe
C      0.02953  0.20118  0.29882     C
C      0.02953  0.20118  0.70118     C
C      0.02953  0.22529  0.27471     C
C      0.02953  0.22529  0.72529     C
C      0.02953  0.27471  0.22529     C
C      0.02953  0.27471  0.77471     C
C      0.02953  0.29882  0.20118     C
C      0.02953  0.29882  0.79882     C
C      0.02953  0.70118  0.20118     C
C      0.02953  0.70118  0.79882     C
C      0.02953  0.72529  0.22529     C
C      0.02953  0.72529  0.77471     C
C      0.02953  0.77471  0.27471     C
C      0.02953  0.77471  0.72529     C
C      0.02953  0.79882  0.29882     C
C      0.02953  0.79882  0.70118     C
H       0.0497   0.2335   0.2665     H
H       0.0497   0.2335   0.7335     H
H       0.0497   0.2665   0.2335     H
H       0.0497   0.2665   0.7665     H
H       0.0497   0.7335   0.2335     H
H       0.0497   0.7335   0.7665     H
H       0.0497   0.7665   0.2665     H
H       0.0497   0.7665   0.7335     H
O      0.05044      0.0  0.36249     O
O      0.05044      0.0  0.63751     O
O      0.05044  0.13751      0.5     O
O      0.05044  0.36249      0.0     O
O      0.05044      0.5  0.13751     O
O      0.05044      0.5  0.86249     O
O      0.05044  0.63751      0.0     O
O      0.05044  0.86249      0.5     O
H       0.0552   0.1672   0.3259     H
H       0.0552   0.1672   0.6741     H
H       0.0552   0.1741   0.3328     H
H       0.0552   0.1741   0.6672     H
H       0.0552   0.3259   0.1672     H
H       0.0552   0.3259   0.8328     H
H       0.0552   0.3328   0.1741     H
H       0.0552   0.3328   0.8259     H
H       0.0552   0.6672   0.1741     H
H       0.0552   0.6672   0.8259     H
H       0.0552   0.6741   0.1672     H
H       0.0552   0.6741   0.8328     H
H       0.0552   0.8259   0.3328     H
H       0.0552   0.8259   0.6672     H
H       0.0552   0.8328   0.3259     H
H       0.0552   0.8328   0.6741     H
C      0.06047  0.18685  0.31315     C
C      0.06047  0.18685  0.68685     C
C      0.06047  0.31315  0.18685     C
C      0.06047  0.31315  0.81315     C
C      0.06047  0.68685  0.18685     C
C      0.06047  0.68685  0.81315     C
C      0.06047  0.81315  0.31315     C
C      0.06047  0.81315  0.68685     C
O        0.065   0.0147  0.31244     O
O        0.065   0.0147  0.68756     O
O        0.065  0.18756   0.4853     O
O        0.065  0.18756   0.5147     O
O        0.065  0.31244   0.0147     O
O        0.065  0.31244   0.9853     O
O        0.065   0.4853  0.18756     O
O        0.065   0.4853  0.81244     O
O        0.065   0.5147  0.18756     O
O        0.065   0.5147  0.81244     O
O        0.065  0.68756   0.0147     O
O        0.065  0.68756   0.9853     O
O        0.065  0.81244   0.4853     O
O        0.065  0.81244   0.5147     O
O        0.065   0.9853  0.31244     O
O        0.065   0.9853  0.68756     O
C       0.0716      0.0  0.33935     C
C       0.0716      0.0  0.66065     C
C       0.0716  0.16065      0.5     C
C       0.0716  0.33935      0.0     C
C       0.0716      0.5  0.16065     C
C       0.0716      0.5  0.83935     C
C       0.0716  0.66065      0.0     C
C       0.0716  0.83935      0.5     C
H       0.0731   0.1794   0.2944     H
H       0.0731   0.1794   0.7056     H
H       0.0731   0.2056   0.3206     H
H       0.0731   0.2056   0.6794     H
H       0.0731   0.2944   0.1794     H
H       0.0731   0.2944   0.8206     H
H       0.0731   0.3206   0.2056     H
H       0.0731   0.3206   0.7944     H
H       0.0731   0.6794   0.2056     H
H       0.0731   0.6794   0.7944     H
H       0.0731   0.7056   0.1794     H
H       0.0731   0.7056   0.8206     H
H       0.0731   0.7944   0.3206     H
H       0.0731   0.7944   0.6794     H
H       0.0731   0.8206   0.2944     H
H       0.0731   0.8206   0.7056     H
H       0.0988      0.0   0.4012     H
H       0.0988      0.0   0.5988     H
H       0.0988   0.0988      0.5     H
H       0.0988   0.4012      0.0     H
H       0.0988      0.5   0.0988     H
H       0.0988      0.5   0.9012     H
H       0.0988   0.5988      0.0     H
H       0.0988   0.9012      0.5     H
C      0.10642      0.0  0.35181     C
C      0.10642      0.0  0.64819     C
C      0.10642  0.14819      0.5     C
C      0.10642  0.35181      0.0     C
C      0.10642      0.5  0.14819     C
C      0.10642      0.5  0.85181     C
C      0.10642  0.64819      0.0     C
C      0.10642  0.85181      0.5     C
C      0.11525      0.0  0.38475     C
C      0.11525      0.0  0.61525     C
C      0.11525  0.11525      0.5     C
C      0.11525  0.38475      0.0     C
C      0.11525      0.5  0.11525     C
C      0.11525      0.5  0.88475     C
C      0.11525  0.61525      0.0     C
C      0.11525  0.88475      0.5     C
H       0.1245      0.0   0.3052     H
H       0.1245      0.0   0.6948     H
H       0.1245   0.1948      0.5     H
H       0.1245   0.3052      0.0     H
H       0.1245      0.5   0.1948     H
H       0.1245      0.5   0.8052     H
H       0.1245   0.6948      0.0     H
H       0.1245   0.8052      0.5     H
C      0.13054      0.0   0.3277     C
C      0.13054      0.0   0.6723     C
C      0.13054   0.1723      0.5     C
C      0.13054   0.3277      0.0     C
C      0.13054      0.5   0.1723     C
C      0.13054      0.5   0.8277     C
C      0.13054   0.6723      0.0     C
C      0.13054   0.8277      0.5     C
O      0.13751      0.0  0.44956     O
O      0.13751      0.0  0.55044     O
O      0.13751  0.05044      0.5     O
O      0.13751  0.44956      0.0     O
O      0.13751      0.5  0.05044     O
O      0.13751      0.5  0.94956     O
O      0.13751  0.55044      0.0     O
O      0.13751  0.94956      0.5     O
Fe      0.1401      0.0      0.5    Fe
Fe      0.1401      0.5      0.0    Fe
C      0.14819      0.0  0.39358     C
C      0.14819      0.0  0.60642     C
C      0.14819  0.10642      0.5     C
C      0.14819  0.39358      0.0     C
C      0.14819      0.5  0.10642     C
C      0.14819      0.5  0.89358     C
C      0.14819  0.60642      0.0     C
C      0.14819  0.89358      0.5     C
C      0.16065      0.0   0.4284     C
C      0.16065      0.0   0.5716     C
C      0.16065   0.0716      0.5     C
C      0.16065   0.4284      0.0     C
C      0.16065      0.5   0.0716     C
C      0.16065      0.5   0.9284     C
C      0.16065   0.5716      0.0     C
C      0.16065   0.9284      0.5     C
C      0.16347      0.0  0.33653     C
C      0.16347      0.0  0.66347     C
C      0.16347  0.16347      0.5     C
C      0.16347  0.33653      0.0     C
C      0.16347      0.5  0.16347     C
C      0.16347      0.5  0.83653     C
C      0.16347  0.66347      0.0     C
C      0.16347  0.83653      0.5     C
H       0.1672   0.0552   0.3259     H
H       0.1672   0.0552   0.6741     H
H       0.1672   0.1741   0.4448     H
H       0.1672   0.1741   0.5552     H
H       0.1672   0.3259   0.0552     H
H       0.1672   0.3259   0.9448     H
H       0.1672   0.4448   0.1741     H
H       0.1672   0.4448   0.8259     H
H       0.1672   0.5552   0.1741     H
H       0.1672   0.5552   0.8259     H
H       0.1672   0.6741   0.0552     H
H       0.1672   0.6741   0.9448     H
H       0.1672   0.8259   0.4448     H
H       0.1672   0.8259   0.5552     H
H       0.1672   0.9448   0.3259     H
H       0.1672   0.9448   0.6741     H
C       0.1723      0.0  0.36946     C
C       0.1723      0.0  0.63054     C
C       0.1723  0.13054      0.5     C
C       0.1723  0.36946      0.0     C
C       0.1723      0.5  0.13054     C
C       0.1723      0.5  0.86946     C
C       0.1723  0.63054      0.0     C
C       0.1723  0.86946      0.5     C
H       0.1741   0.0552   0.3328     H
H       0.1741   0.0552   0.6672     H
H       0.1741   0.1672   0.4448     H
H       0.1741   0.1672   0.5552     H
H       0.1741   0.3328   0.0552     H
H       0.1741   0.3328   0.9448     H
H       0.1741   0.4448   0.1672     H
H       0.1741   0.4448   0.8328     H
H       0.1741   0.5552   0.1672     H
H       0.1741   0.5552   0.8328     H
H       0.1741   0.6672   0.0552     H
H       0.1741   0.6672   0.9448     H
H       0.1741   0.8328   0.4448     H
H       0.1741   0.8328   0.5552     H
H       0.1741   0.9448   0.3328     H
H       0.1741   0.9448   0.6672     H
H       0.1769   0.0732   0.2961     H
H       0.1769   0.0732   0.7039     H
H       0.1769   0.2039   0.4268     H
H       0.1769   0.2039   0.5732     H
H       0.1769   0.2961   0.0732     H
H       0.1769   0.2961   0.9268     H
H       0.1769   0.4268   0.2039     H
H       0.1769   0.4268   0.7961     H
H       0.1769   0.5732   0.2039     H
H       0.1769   0.5732   0.7961     H
H       0.1769   0.7039   0.0732     H
H       0.1769   0.7039   0.9268     H
H       0.1769   0.7961   0.4268     H
H       0.1769   0.7961   0.5732     H
H       0.1769   0.9268   0.2961     H
H       0.1769   0.9268   0.7039     H
C      0.18685  0.06047  0.31315     C
C      0.18685  0.06047  0.68685     C
C      0.18685  0.18685  0.43953     C
C      0.18685  0.18685  0.56047     C
C      0.18685  0.31315  0.06047     C
C      0.18685  0.31315  0.93953     C
C      0.18685  0.43953  0.18685     C
C      0.18685  0.43953  0.81315     C
C      0.18685  0.56047  0.18685     C
C      0.18685  0.56047  0.81315     C
C      0.18685  0.68685  0.06047     C
C      0.18685  0.68685  0.93953     C
C      0.18685  0.81315  0.43953     C
C      0.18685  0.81315  0.56047     C
C      0.18685  0.93953  0.31315     C
C      0.18685  0.93953  0.68685     C
O      0.18756   0.0147    0.435     O
O      0.18756   0.0147    0.565     O
O      0.18756    0.065   0.4853     O
O      0.18756    0.065   0.5147     O
O      0.18756    0.435   0.0147     O
O      0.18756    0.435   0.9853     O
O      0.18756   0.4853    0.065     O
O      0.18756   0.4853    0.935     O
O      0.18756   0.5147    0.065     O
O      0.18756   0.5147    0.935     O
O      0.18756    0.565   0.0147     O
O      0.18756    0.565   0.9853     O
O      0.18756    0.935   0.4853     O
O      0.18756    0.935   0.5147     O
O      0.18756   0.9853    0.435     O
O      0.18756   0.9853    0.565     O
O       0.1878      0.0      0.5     O
O       0.1878      0.5      0.0     O
C      0.18912      0.0  0.31088     C
C      0.18912      0.0  0.68912     C
C      0.18912  0.18912      0.5     C
C      0.18912  0.31088      0.0     C
C      0.18912      0.5  0.18912     C
C      0.18912      0.5  0.81088     C
C      0.18912  0.68912      0.0     C
C      0.18912  0.81088      0.5     C
H       0.1948      0.0   0.3755     H
H       0.1948      0.0   0.6245     H
H       0.1948   0.1245      0.5     H
H       0.1948   0.3755      0.0     H
H       0.1948      0.5   0.1245     H
H       0.1948      0.5   0.8755     H
H       0.1948   0.6245      0.0     H
H       0.1948   0.8755      0.5     H
C      0.20118  0.02953  0.29882     C
C      0.20118  0.02953  0.70118     C
C      0.20118  0.20118  0.47047     C
C      0.20118  0.20118  0.52953     C
C      0.20118  0.29882  0.02953     C
C      0.20118  0.29882  0.97047     C
C      0.20118  0.47047  0.20118     C
C      0.20118  0.47047  0.79882     C
C      0.20118  0.52953  0.20118     C
C      0.20118  0.52953  0.79882     C
C      0.20118  0.70118  0.02953     C
C      0.20118  0.70118  0.97047     C
C      0.20118  0.79882  0.47047     C
C      0.20118  0.79882  0.52953     C
C      0.20118  0.97047  0.29882     C
C      0.20118  0.97047  0.70118     C
H       0.2039   0.0732   0.3231     H
H       0.2039   0.0732   0.6769     H
H       0.2039   0.1769   0.4268     H
H       0.2039   0.1769   0.5732     H
H       0.2039   0.3231   0.0732     H
H       0.2039   0.3231   0.9268     H
H       0.2039   0.4268   0.1769     H
H       0.2039   0.4268   0.8231     H
H       0.2039   0.5732   0.1769     H
H       0.2039   0.5732   0.8231     H
H       0.2039   0.6769   0.0732     H
H       0.2039   0.6769   0.9268     H
H       0.2039   0.8231   0.4268     H
H       0.2039   0.8231   0.5732     H
H       0.2039   0.9268   0.3231     H
H       0.2039   0.9268   0.6769     H
Fe     0.21047  0.02727  0.47273    Fe
Fe     0.21047  0.02727  0.52727    Fe
Fe     0.21047  0.47273  0.02727    Fe
Fe     0.21047  0.47273  0.97273    Fe
Fe     0.21047  0.52727  0.02727    Fe
Fe     0.21047  0.52727  0.97273    Fe
Fe     0.21047  0.97273  0.47273    Fe
Fe     0.21047  0.97273  0.52727    Fe
C      0.22529  0.02953  0.27471     C
C      0.22529  0.02953  0.72529     C
C      0.22529  0.22529  0.47047     C
C      0.22529  0.22529  0.52953     C
C      0.22529  0.27471  0.02953     C
C      0.22529  0.27471  0.97047     C
C      0.22529  0.47047  0.22529     C
C      0.22529  0.47047  0.77471     C
C      0.22529  0.52953  0.22529     C
C      0.22529  0.52953  0.77471     C
C      0.22529  0.72529  0.02953     C
C      0.22529  0.72529  0.97047     C
C      0.22529  0.77471  0.47047     C
C      0.22529  0.77471  0.52953     C
C      0.22529  0.97047  0.27471     C
C      0.22529  0.97047  0.72529     C
H       0.2335   0.0497   0.2665     H
H       0.2335   0.0497   0.7335     H
H       0.2335   0.2335   0.4503     H
H       0.2335   0.2335   0.5497     H
H       0.2335   0.2665   0.0497     H
H       0.2335   0.2665   0.9503     H
H       0.2335   0.4503   0.2335     H
H       0.2335   0.4503   0.7665     H
H       0.2335   0.5497   0.2335     H
H       0.2335   0.5497   0.7665     H
H       0.2335   0.7335   0.0497     H
H       0.2335   0.7335   0.9503     H
H       0.2335   0.7665   0.4503     H
H       0.2335   0.7665   0.5497     H
H       0.2335   0.9503   0.2665     H
H       0.2335   0.9503   0.7335     H
C      0.23735      0.0  0.26265     C
C      0.23735      0.0  0.73735     C
C      0.23735  0.23735      0.5     C
C      0.23735  0.26265      0.0     C
C      0.23735      0.5  0.23735     C
C      0.23735      0.5  0.76265     C
C      0.23735  0.73735      0.0     C
C      0.23735  0.76265      0.5     C
C      0.26265      0.0  0.23735     C
C      0.26265      0.0  0.76265     C
C      0.26265  0.23735      0.0     C
C      0.26265  0.26265      0.5     C
C      0.26265      0.5  0.26265     C
C      0.26265      0.5  0.73735     C
C      0.26265  0.73735      0.5     C
C      0.26265  0.76265      0.0     C
H       0.2665   0.0497   0.2335     H
H       0.2665   0.0497   0.7665     H
H       0.2665   0.2335   0.0497     H
H       0.2665   0.2335   0.9503     H
H       0.2665   0.2665   0.4503     H
H       0.2665   0.2665   0.5497     H
H       0.2665   0.4503   0.2665     H
H       0.2665   0.4503   0.7335     H
H       0.2665   0.5497   0.2665     H
H       0.2665   0.5497   0.7335     H
H       0.2665   0.7335   0.4503     H
H       0.2665   0.7335   0.5497     H
H       0.2665   0.7665   0.0497     H
H       0.2665   0.7665   0.9503     H
H       0.2665   0.9503   0.2335     H
H       0.2665   0.9503   0.7665     H
C      0.27471  0.02953  0.22529     C
C      0.27471  0.02953  0.77471     C
C      0.27471  0.22529  0.02953     C
C      0.27471  0.22529  0.97047     C
C      0.27471  0.27471  0.47047     C
C      0.27471  0.27471  0.52953     C
C      0.27471  0.47047  0.27471     C
C      0.27471  0.47047  0.72529     C
C      0.27471  0.52953  0.27471     C
C      0.27471  0.52953  0.72529     C
C      0.27471  0.72529  0.47047     C
C      0.27471  0.72529  0.52953     C
C      0.27471  0.77471  0.02953     C
C      0.27471  0.77471  0.97047     C
C      0.27471  0.97047  0.22529     C
C      0.27471  0.97047  0.77471     C
Fe     0.28953  0.02727  0.02727    Fe
Fe     0.28953  0.02727  0.97273    Fe
Fe     0.28953  0.47273  0.47273    Fe
Fe     0.28953  0.47273  0.52727    Fe
Fe     0.28953  0.52727  0.47273    Fe
Fe     0.28953  0.52727  0.52727    Fe
Fe     0.28953  0.97273  0.02727    Fe
Fe     0.28953  0.97273  0.97273    Fe
H       0.2944   0.0731   0.1794     H
H       0.2944   0.0731   0.8206     H
H       0.2944   0.1794   0.0731     H
H       0.2944   0.1794   0.9269     H
H       0.2944   0.3206   0.4269     H
H       0.2944   0.3206   0.5731     H
H       0.2944   0.4269   0.3206     H
H       0.2944   0.4269   0.6794     H
H       0.2944   0.5731   0.3206     H
H       0.2944   0.5731   0.6794     H
H       0.2944   0.6794   0.4269     H
H       0.2944   0.6794   0.5731     H
H       0.2944   0.8206   0.0731     H
H       0.2944   0.8206   0.9269     H
H       0.2944   0.9269   0.1794     H
H       0.2944   0.9269   0.8206     H
C      0.29882  0.02953  0.20118     C
C      0.29882  0.02953  0.79882     C
C      0.29882  0.20118  0.02953     C
C      0.29882  0.20118  0.97047     C
C      0.29882  0.29882  0.47047     C
C      0.29882  0.29882  0.52953     C
C      0.29882  0.47047  0.29882     C
C      0.29882  0.47047  0.70118     C
C      0.29882  0.52953  0.29882     C
C      0.29882  0.52953  0.70118     C
C      0.29882  0.70118  0.47047     C
C      0.29882  0.70118  0.52953     C
C      0.29882  0.79882  0.02953     C
C      0.29882  0.79882  0.97047     C
C      0.29882  0.97047  0.20118     C
C      0.29882  0.97047  0.79882     C
H       0.3052      0.0   0.1245     H
H       0.3052      0.0   0.8755     H
H       0.3052   0.1245      0.0     H
H       0.3052   0.3755      0.5     H
H       0.3052      0.5   0.3755     H
H       0.3052      0.5   0.6245     H
H       0.3052   0.6245      0.5     H
H       0.3052   0.8755      0.0     H
C      0.31088      0.0  0.18912     C
C      0.31088      0.0  0.81088     C
C      0.31088  0.18912      0.0     C
C      0.31088  0.31088      0.5     C
C      0.31088      0.5  0.31088     C
C      0.31088      0.5  0.68912     C
C      0.31088  0.68912      0.5     C
C      0.31088  0.81088      0.0     C
O       0.3122      0.0      0.0     O
O       0.3122      0.5      0.5     O
O      0.31244   0.0147    0.065     O
O      0.31244   0.0147    0.935     O
O      0.31244    0.065   0.0147     O
O      0.31244    0.065   0.9853     O
O      0.31244    0.435   0.4853     O
O      0.31244    0.435   0.5147     O
O      0.31244   0.4853    0.435     O
O      0.31244   0.4853    0.565     O
O      0.31244   0.5147    0.435     O
O      0.31244   0.5147    0.565     O
O      0.31244    0.565   0.4853     O
O      0.31244    0.565   0.5147     O
O      0.31244    0.935   0.0147     O
O      0.31244    0.935   0.9853     O
O      0.31244   0.9853    0.065     O
O      0.31244   0.9853    0.935     O
C      0.31315  0.06047  0.18685     C
C      0.31315  0.06047  0.81315     C
C      0.31315  0.18685  0.06047     C
C      0.31315  0.18685  0.93953     C
C      0.31315  0.31315  0.43953     C
C      0.31315  0.31315  0.56047     C
C      0.31315  0.43953  0.31315     C
C      0.31315  0.43953  0.68685     C
C      0.31315  0.56047  0.31315     C
C      0.31315  0.56047  0.68685     C
C      0.31315  0.68685  0.43953     C
C      0.31315  0.68685  0.56047     C
C      0.31315  0.81315  0.06047     C
C      0.31315  0.81315  0.93953     C
C      0.31315  0.93953  0.18685     C
C      0.31315  0.93953  0.81315     C
H       0.3206   0.0731   0.2056     H
H       0.3206   0.0731   0.7944     H
H       0.3206   0.2056   0.0731     H
H       0.3206   0.2056   0.9269     H
H       0.3206   0.2944   0.4269     H
H       0.3206   0.2944   0.5731     H
H       0.3206   0.4269   0.2944     H
H       0.3206   0.4269   0.7056     H
H       0.3206   0.5731   0.2944     H
H       0.3206   0.5731   0.7056     H
H       0.3206   0.7056   0.4269     H
H       0.3206   0.7056   0.5731     H
H       0.3206   0.7944   0.0731     H
H       0.3206   0.7944   0.9269     H
H       0.3206   0.9269   0.2056     H
H       0.3206   0.9269   0.7944     H
H       0.3259   0.0552   0.1672     H
H       0.3259   0.0552   0.8328     H
H       0.3259   0.1672   0.0552     H
H       0.3259   0.1672   0.9448     H
H       0.3259   0.3328   0.4448     H
H       0.3259   0.3328   0.5552     H
H       0.3259   0.4448   0.3328     H
H       0.3259   0.4448   0.6672     H
H       0.3259   0.5552   0.3328     H
H       0.3259   0.5552   0.6672     H
H       0.3259   0.6672   0.4448     H
H       0.3259   0.6672   0.5552     H
H       0.3259   0.8328   0.0552     H
H       0.3259   0.8328   0.9448     H
H       0.3259   0.9448   0.1672     H
H       0.3259   0.9448   0.8328     H
C       0.3277      0.0  0.13054     C
C       0.3277      0.0  0.86946     C
C       0.3277  0.13054      0.0     C
C       0.3277  0.36946      0.5     C
C       0.3277      0.5  0.36946     C
C       0.3277      0.5  0.63054     C
C       0.3277  0.63054      0.5     C
C       0.3277  0.86946      0.0     C
H       0.3328   0.0552   0.1741     H
H       0.3328   0.0552   0.8259     H
H       0.3328   0.1741   0.0552     H
H       0.3328   0.1741   0.9448     H
H       0.3328   0.3259   0.4448     H
H       0.3328   0.3259   0.5552     H
H       0.3328   0.4448   0.3259     H
H       0.3328   0.4448   0.6741     H
H       0.3328   0.5552   0.3259     H
H       0.3328   0.5552   0.6741     H
H       0.3328   0.6741   0.4448     H
H       0.3328   0.6741   0.5552     H
H       0.3328   0.8259   0.0552     H
H       0.3328   0.8259   0.9448     H
H       0.3328   0.9448   0.1741     H
H       0.3328   0.9448   0.8259     H
C      0.33653      0.0  0.16347     C
C      0.33653      0.0  0.83653     C
C      0.33653  0.16347      0.0     C
C      0.33653  0.33653      0.5     C
C      0.33653      0.5  0.33653     C
C      0.33653      0.5  0.66347     C
C      0.33653  0.66347      0.5     C
C      0.33653  0.83653      0.0     C
C      0.33935      0.0   0.0716     C
C      0.33935      0.0   0.9284     C
C      0.33935   0.0716      0.0     C
C      0.33935   0.4284      0.5     C
C      0.33935      0.5   0.4284     C
C      0.33935      0.5   0.5716     C
C      0.33935   0.5716      0.5     C
C      0.33935   0.9284      0.0     C
C      0.35181      0.0  0.10642     C
C      0.35181      0.0  0.89358     C
C      0.35181  0.10642      0.0     C
C      0.35181  0.39358      0.5     C
C      0.35181      0.5  0.39358     C
C      0.35181      0.5  0.60642     C
C      0.35181  0.60642      0.5     C
C      0.35181  0.89358      0.0     C
Fe      0.3599      0.0      0.0    Fe
Fe      0.3599      0.5      0.5    Fe
O      0.36249      0.0  0.05044     O
O      0.36249      0.0  0.94956     O
O      0.36249  0.05044      0.0     O
O      0.36249  0.44956      0.5     O
O      0.36249      0.5  0.44956     O
O      0.36249      0.5  0.55044     O
O      0.36249  0.55044      0.5     O
O      0.36249  0.94956      0.0     O
C      0.36946      0.0   0.1723     C
C      0.36946      0.0   0.8277     C
C      0.36946   0.1723      0.0     C
C      0.36946   0.3277      0.5     C
C      0.36946      0.5   0.3277     C
C      0.36946      0.5   0.6723     C
C      0.36946   0.6723      0.5     C
C      0.36946   0.8277      0.0     C
H       0.3755      0.0   0.1948     H
H       0.3755      0.0   0.8052     H
H       0.3755   0.1948      0.0     H
H       0.3755   0.3052      0.5     H
H       0.3755      0.5   0.3052     H
H       0.3755      0.5   0.6948     H
H       0.3755   0.6948      0.5     H
H       0.3755   0.8052      0.0     H
C      0.38475      0.0  0.11525     C
C      0.38475      0.0  0.88475     C
C      0.38475  0.11525      0.0     C
C      0.38475  0.38475      0.5     C
C      0.38475      0.5  0.38475     C
C      0.38475      0.5  0.61525     C
C      0.38475  0.61525      0.5     C
C      0.38475  0.88475      0.0     C
C      0.39358      0.0  0.14819     C
C      0.39358      0.0  0.85181     C
C      0.39358  0.14819      0.0     C
C      0.39358  0.35181      0.5     C
C      0.39358      0.5  0.35181     C
C      0.39358      0.5  0.64819     C
C      0.39358  0.64819      0.5     C
C      0.39358  0.85181      0.0     C
H       0.4012      0.0   0.0988     H
H       0.4012      0.0   0.9012     H
H       0.4012   0.0988      0.0     H
H       0.4012   0.4012      0.5     H
H       0.4012      0.5   0.4012     H
H       0.4012      0.5   0.5988     H
H       0.4012   0.5988      0.5     H
H       0.4012   0.9012      0.0     H
H       0.4268   0.1769   0.2039     H
H       0.4268   0.1769   0.7961     H
H       0.4268   0.2039   0.1769     H
H       0.4268   0.2039   0.8231     H
H       0.4268   0.2961   0.3231     H
H       0.4268   0.2961   0.6769     H
H       0.4268   0.3231   0.2961     H
H       0.4268   0.3231   0.7039     H
H       0.4268   0.6769   0.2961     H
H       0.4268   0.6769   0.7039     H
H       0.4268   0.7039   0.3231     H
H       0.4268   0.7039   0.6769     H
H       0.4268   0.7961   0.1769     H
H       0.4268   0.7961   0.8231     H
H       0.4268   0.8231   0.2039     H
H       0.4268   0.8231   0.7961     H
C       0.4284      0.0  0.16065     C
C       0.4284      0.0  0.83935     C
C       0.4284  0.16065      0.0     C
C       0.4284  0.33935      0.5     C
C       0.4284      0.5  0.33935     C
C       0.4284      0.5  0.66065     C
C       0.4284  0.66065      0.5     C
C       0.4284  0.83935      0.0     C
O        0.435   0.0147  0.18756     O
O        0.435   0.0147  0.81244     O
O        0.435  0.18756   0.0147     O
O        0.435  0.18756   0.9853     O
O        0.435  0.31244   0.4853     O
O        0.435  0.31244   0.5147     O
O        0.435   0.4853  0.31244     O
O        0.435   0.4853  0.68756     O
O        0.435   0.5147  0.31244     O
O        0.435   0.5147  0.68756     O
O        0.435  0.68756   0.4853     O
O        0.435  0.68756   0.5147     O
O        0.435  0.81244   0.0147     O
O        0.435  0.81244   0.9853     O
O        0.435   0.9853  0.18756     O
O        0.435   0.9853  0.81244     O
C      0.43953  0.18685  0.18685     C
C      0.43953  0.18685  0.81315     C
C      0.43953  0.31315  0.31315     C
C      0.43953  0.31315  0.68685     C
C      0.43953  0.68685  0.31315     C
C      0.43953  0.68685  0.68685     C
C      0.43953  0.81315  0.18685     C
C      0.43953  0.81315  0.81315     C
H       0.4448   0.1672   0.1741     H
H       0.4448   0.1672   0.8259     H
H       0.4448   0.1741   0.1672     H
H       0.4448   0.1741   0.8328     H
H       0.4448   0.3259   0.3328     H
H       0.4448   0.3259   0.6672     H
H       0.4448   0.3328   0.3259     H
H       0.4448   0.3328   0.6741     H
H       0.4448   0.6672   0.3259     H
H       0.4448   0.6672   0.6741     H
H       0.4448   0.6741   0.3328     H
H       0.4448   0.6741   0.6672     H
H       0.4448   0.8259   0.1672     H
H       0.4448   0.8259   0.8328     H
H       0.4448   0.8328   0.1741     H
H       0.4448   0.8328   0.8259     H
O      0.44956      0.0  0.13751     O
O      0.44956      0.0  0.86249     O
O      0.44956  0.13751      0.0     O
O      0.44956  0.36249      0.5     O
O      0.44956      0.5  0.36249     O
O      0.44956      0.5  0.63751     O
O      0.44956  0.63751      0.5     O
O      0.44956  0.86249      0.0     O
H       0.4503   0.2335   0.2335     H
H       0.4503   0.2335   0.7665     H
H       0.4503   0.2665   0.2665     H
H       0.4503   0.2665   0.7335     H
H       0.4503   0.7335   0.2665     H
H       0.4503   0.7335   0.7335     H
H       0.4503   0.7665   0.2335     H
H       0.4503   0.7665   0.7665     H
C      0.47047  0.20118  0.20118     C
C      0.47047  0.20118  0.79882     C
C      0.47047  0.22529  0.22529     C
C      0.47047  0.22529  0.77471     C
C      0.47047  0.27471  0.27471     C
C      0.47047  0.27471  0.72529     C
C      0.47047  0.29882  0.29882     C
C      0.47047  0.29882  0.70118     C
C      0.47047  0.70118  0.29882     C
C      0.47047  0.70118  0.70118     C
C      0.47047  0.72529  0.27471     C
C      0.47047  0.72529  0.72529     C
C      0.47047  0.77471  0.22529     C
C      0.47047  0.77471  0.77471     C
C      0.47047  0.79882  0.20118     C
C      0.47047  0.79882  0.79882     C
Fe     0.47273  0.02727  0.21047    Fe
Fe     0.47273  0.02727  0.78953    Fe
Fe     0.47273  0.21047  0.02727    Fe
Fe     0.47273  0.21047  0.97273    Fe
Fe     0.47273  0.28953  0.47273    Fe
Fe     0.47273  0.28953  0.52727    Fe
Fe     0.47273  0.47273  0.28953    Fe
Fe     0.47273  0.47273  0.71047    Fe
Fe     0.47273  0.52727  0.28953    Fe
Fe     0.47273  0.52727  0.71047    Fe
Fe     0.47273  0.71047  0.47273    Fe
Fe     0.47273  0.71047  0.52727    Fe
Fe     0.47273  0.78953  0.02727    Fe
Fe     0.47273  0.78953  0.97273    Fe
Fe     0.47273  0.97273  0.21047    Fe
Fe     0.47273  0.97273  0.78953    Fe
O       0.4853    0.065  0.18756     O
O       0.4853    0.065  0.81244     O
O       0.4853  0.18756    0.065     O
O       0.4853  0.18756    0.935     O
O       0.4853  0.31244    0.435     O
O       0.4853  0.31244    0.565     O
O       0.4853    0.435  0.31244     O
O       0.4853    0.435  0.68756     O
O       0.4853    0.565  0.31244     O
O       0.4853    0.565  0.68756     O
O       0.4853  0.68756    0.435     O
O       0.4853  0.68756    0.565     O
O       0.4853  0.81244    0.065     O
O       0.4853  0.81244    0.935     O
O       0.4853    0.935  0.18756     O
O       0.4853    0.935  0.81244     O
Fe         0.5      0.0   0.1401    Fe
O          0.5      0.0   0.1878     O
O          0.5      0.0   0.8122     O
Fe         0.5      0.0   0.8599    Fe
O          0.5  0.05044  0.13751     O
O          0.5  0.05044  0.86249     O
C          0.5   0.0716  0.16065     C
C          0.5   0.0716  0.83935     C
H          0.5   0.0988   0.0988     H
H          0.5   0.0988   0.9012     H
C          0.5  0.10642  0.14819     C
C          0.5  0.10642  0.85181     C
C          0.5  0.11525  0.11525     C
C          0.5  0.11525  0.88475     C
H          0.5   0.1245   0.1948     H
H          0.5   0.1245   0.8052     H
C          0.5  0.13054   0.1723     C
C          0.5  0.13054   0.8277     C
O          0.5  0.13751  0.05044     O
O          0.5  0.13751  0.94956     O
Fe         0.5   0.1401      0.0    Fe
C          0.5  0.14819  0.10642     C
C          0.5  0.14819  0.89358     C
C          0.5  0.16065   0.0716     C
C          0.5  0.16065   0.9284     C
C          0.5  0.16347  0.16347     C
C          0.5  0.16347  0.83653     C
C          0.5   0.1723  0.13054     C
C          0.5   0.1723  0.86946     C
O          0.5   0.1878      0.0     O
C          0.5  0.18912  0.18912     C
C          0.5  0.18912  0.81088     C
H          0.5   0.1948   0.1245     H
H          0.5   0.1948   0.8755     H
C          0.5  0.23735  0.23735     C
C          0.5  0.23735  0.76265     C
C          0.5  0.26265  0.26265     C
C          0.5  0.26265  0.73735     C
H          0.5   0.3052   0.3755     H
H          0.5   0.3052   0.6245     H
C          0.5  0.31088  0.31088     C
C          0.5  0.31088  0.68912     C
O          0.5   0.3122      0.5     O
C          0.5   0.3277  0.36946     C
C          0.5   0.3277  0.63054     C
C          0.5  0.33653  0.33653     C
C          0.5  0.33653  0.66347     C
C          0.5  0.33935   0.4284     C
C          0.5  0.33935   0.5716     C
C          0.5  0.35181  0.39358     C
C          0.5  0.35181  0.60642     C
Fe         0.5   0.3599      0.5    Fe
O          0.5  0.36249  0.44956     O
O          0.5  0.36249  0.55044     O
C          0.5  0.36946   0.3277     C
C          0.5  0.36946   0.6723     C
H          0.5   0.3755   0.3052     H
H          0.5   0.3755   0.6948     H
C          0.5  0.38475  0.38475     C
C          0.5  0.38475  0.61525     C
C          0.5  0.39358  0.35181     C
C          0.5  0.39358  0.64819     C
H          0.5   0.4012   0.4012     H
H          0.5   0.4012   0.5988     H
C          0.5   0.4284  0.33935     C
C          0.5   0.4284  0.66065     C
O          0.5  0.44956  0.36249     O
O          0.5  0.44956  0.63751     O
O          0.5      0.5   0.3122     O
Fe         0.5      0.5   0.3599    Fe
Fe         0.5      0.5   0.6401    Fe
O          0.5      0.5   0.6878     O
O          0.5  0.55044  0.36249     O
O          0.5  0.55044  0.63751     O
C          0.5   0.5716  0.33935     C
C          0.5   0.5716  0.66065     C
H          0.5   0.5988   0.4012     H
H          0.5   0.5988   0.5988     H
C          0.5  0.60642  0.35181     C
C          0.5  0.60642  0.64819     C
C          0.5  0.61525  0.38475     C
C          0.5  0.61525  0.61525     C
H          0.5   0.6245   0.3052     H
H          0.5   0.6245   0.6948     H
C          0.5  0.63054   0.3277     C
C          0.5  0.63054   0.6723     C
O          0.5  0.63751  0.44956     O
O          0.5  0.63751  0.55044     O
Fe         0.5   0.6401      0.5    Fe
C          0.5  0.64819  0.39358     C
C          0.5  0.64819  0.60642     C
C          0.5  0.66065   0.4284     C
C          0.5  0.66065   0.5716     C
C          0.5  0.66347  0.33653     C
C          0.5  0.66347  0.66347     C
C          0.5   0.6723  0.36946     C
C          0.5   0.6723  0.63054     C
O          0.5   0.6878      0.5     O
C          0.5  0.68912  0.31088     C
C          0.5  0.68912  0.68912     C
H          0.5   0.6948   0.3755     H
H          0.5   0.6948   0.6245     H
C          0.5  0.73735  0.26265     C
C          0.5  0.73735  0.73735     C
C          0.5  0.76265  0.23735     C
C          0.5  0.76265  0.76265     C
H          0.5   0.8052   0.1245     H
H          0.5   0.8052   0.8755     H
C          0.5  0.81088  0.18912     C
C          0.5  0.81088  0.81088     C
O          0.5   0.8122      0.0     O
C          0.5   0.8277  0.13054     C
C          0.5   0.8277  0.86946     C
C          0.5  0.83653  0.16347     C
C          0.5  0.83653  0.83653     C
C          0.5  0.83935   0.0716     C
C          0.5  0.83935   0.9284     C
C          0.5  0.85181  0.10642     C
C          0.5  0.85181  0.89358     C
Fe         0.5   0.8599      0.0    Fe
O          0.5  0.86249  0.05044     O
O          0.5  0.86249  0.94956     O
C          0.5  0.86946   0.1723     C
C          0.5  0.86946   0.8277     C
H          0.5   0.8755   0.1948     H
H          0.5   0.8755   0.8052     H
C          0.5  0.88475  0.11525     C
C          0.5  0.88475  0.88475     C
C          0.5  0.89358  0.14819     C
C          0.5  0.89358  0.85181     C
H          0.5   0.9012   0.0988     H
H          0.5   0.9012   0.9012     H
C          0.5   0.9284  0.16065     C
C          0.5   0.9284  0.83935     C
O          0.5  0.94956  0.13751     O
O          0.5  0.94956  0.86249     O
O       0.5147    0.065  0.18756     O
O       0.5147    0.065  0.81244     O
O       0.5147  0.18756    0.065     O
O       0.5147  0.18756    0.935     O
O       0.5147  0.31244    0.435     O
O       0.5147  0.31244    0.565     O
O       0.5147    0.435  0.31244     O
O       0.5147    0.435  0.68756     O
O       0.5147    0.565  0.31244     O
O       0.5147    0.565  0.68756     O
O       0.5147  0.68756    0.435     O
O       0.5147  0.68756    0.565     O
O       0.5147  0.81244    0.065     O
O       0.5147  0.81244    0.935     O
O       0.5147    0.935  0.18756     O
O       0.5147    0.935  0.81244     O
Fe     0.52727  0.02727  0.21047    Fe
Fe     0.52727  0.02727  0.78953    Fe
Fe     0.52727  0.21047  0.02727    Fe
Fe     0.52727  0.21047  0.97273    Fe
Fe     0.52727  0.28953  0.47273    Fe
Fe     0.52727  0.28953  0.52727    Fe
Fe     0.52727  0.47273  0.28953    Fe
Fe     0.52727  0.47273  0.71047    Fe
Fe     0.52727  0.52727  0.28953    Fe
Fe     0.52727  0.52727  0.71047    Fe
Fe     0.52727  0.71047  0.47273    Fe
Fe     0.52727  0.71047  0.52727    Fe
Fe     0.52727  0.78953  0.02727    Fe
Fe     0.52727  0.78953  0.97273    Fe
Fe     0.52727  0.97273  0.21047    Fe
Fe     0.52727  0.97273  0.78953    Fe
C      0.52953  0.20118  0.20118     C
C      0.52953  0.20118  0.79882     C
C      0.52953  0.22529  0.22529     C
C      0.52953  0.22529  0.77471     C
C      0.52953  0.27471  0.27471     C
C      0.52953  0.27471  0.72529     C
C      0.52953  0.29882  0.29882     C
C      0.52953  0.29882  0.70118     C
C      0.52953  0.70118  0.29882     C
C      0.52953  0.70118  0.70118     C
C      0.52953  0.72529  0.27471     C
C      0.52953  0.72529  0.72529     C
C      0.52953  0.77471  0.22529     C
C      0.52953  0.77471  0.77471     C
C      0.52953  0.79882  0.20118     C
C      0.52953  0.79882  0.79882     C
H       0.5497   0.2335   0.2335     H
H       0.5497   0.2335   0.7665     H
H       0.5497   0.2665   0.2665     H
H       0.5497   0.2665   0.7335     H
H       0.5497   0.7335   0.2665     H
H       0.5497   0.7335   0.7335     H
H       0.5497   0.7665   0.2335     H
H       0.5497   0.7665   0.7665     H
O      0.55044      0.0  0.13751     O
O      0.55044      0.0  0.86249     O
O      0.55044  0.13751      0.0     O
O      0.55044  0.36249      0.5     O
O      0.55044      0.5  0.36249     O
O      0.55044      0.5  0.63751     O
O      0.55044  0.63751      0.5     O
O      0.55044  0.86249      0.0     O
H       0.5552   0.1672   0.1741     H
H       0.5552   0.1672   0.8259     H
H       0.5552   0.1741   0.1672     H
H       0.5552   0.1741   0.8328     H
H       0.5552   0.3259   0.3328     H
H       0.5552   0.3259   0.6672     H
H       0.5552   0.3328   0.3259     H
H       0.5552   0.3328   0.6741     H
H       0.5552   0.6672   0.3259     H
H       0.5552   0.6672   0.6741     H
H       0.5552   0.6741   0.3328     H
H       0.5552   0.6741   0.6672     H
H       0.5552   0.8259   0.1672     H
H       0.5552   0.8259   0.8328     H
H       0.5552   0.8328   0.1741     H
H       0.5552   0.8328   0.8259     H
C      0.56047  0.18685  0.18685     C
C      0.56047  0.18685  0.81315     C
C      0.56047  0.31315  0.31315     C
C      0.56047  0.31315  0.68685     C
C      0.56047  0.68685  0.31315     C
C      0.56047  0.68685  0.68685     C
C      0.56047  0.81315  0.18685     C
C      0.56047  0.81315  0.81315     C
O        0.565   0.0147  0.18756     O
O        0.565   0.0147  0.81244     O
O        0.565  0.18756   0.0147     O
O        0.565  0.18756   0.9853     O
O        0.565  0.31244   0.4853     O
O        0.565  0.31244   0.5147     O
O        0.565   0.4853  0.31244     O
O        0.565   0.4853  0.68756     O
O        0.565   0.5147  0.31244     O
O        0.565   0.5147  0.68756     O
O        0.565  0.68756   0.4853     O
O        0.565  0.68756   0.5147     O
O        0.565  0.81244   0.0147     O
O        0.565  0.81244   0.9853     O
O        0.565   0.9853  0.18756     O
O        0.565   0.9853  0.81244     O
C       0.5716      0.0  0.16065     C
C       0.5716      0.0  0.83935     C
C       0.5716  0.16065      0.0     C
C       0.5716  0.33935      0.5     C
C       0.5716      0.5  0.33935     C
C       0.5716      0.5  0.66065     C
C       0.5716  0.66065      0.5     C
C       0.5716  0.83935      0.0     C
H       0.5731   0.1794   0.2056     H
H       0.5731   0.1794   0.7944     H
H       0.5731   0.2056   0.1794     H
H       0.5731   0.2056   0.8206     H
H       0.5731   0.2944   0.3206     H
H       0.5731   0.2944   0.6794     H
H       0.5731   0.3206   0.2944     H
H       0.5731   0.3206   0.7056     H
H       0.5731   0.6794   0.2944     H
H       0.5731   0.6794   0.7056     H
H       0.5731   0.7056   0.3206     H
H       0.5731   0.7056   0.6794     H
H       0.5731   0.7944   0.1794     H
H       0.5731   0.7944   0.8206     H
H       0.5731   0.8206   0.2056     H
H       0.5731   0.8206   0.7944     H
H       0.5988      0.0   0.0988     H
H       0.5988      0.0   0.9012     H
H       0.5988   0.0988      0.0     H
H       0.5988   0.4012      0.5     H
H       0.5988      0.5   0.4012     H
H       0.5988      0.5   0.5988     H
H       0.5988   0.5988      0.5     H
H       0.5988   0.9012      0.0     H
C      0.60642      0.0  0.14819     C
C      0.60642      0.0  0.85181     C
C      0.60642  0.14819      0.0     C
C      0.60642  0.35181      0.5     C
C      0.60642      0.5  0.35181     C
C      0.60642      0.5  0.64819     C
C      0.60642  0.64819      0.5     C
C      0.60642  0.85181      0.0     C
C      0.61525      0.0  0.11525     C
C      0.61525      0.0  0.88475     C
C      0.61525  0.11525      0.0     C
C      0.61525  0.38475      0.5     C
C      0.61525      0.5  0.38475     C
C      0.61525      0.5  0.61525     C
C      0.61525  0.61525      0.5     C
C      0.61525  0.88475      0.0     C
H       0.6245      0.0   0.1948     H
H       0.6245      0.0   0.8052     H
H       0.6245   0.1948      0.0     H
H       0.6245   0.3052      0.5     H
H       0.6245      0.5   0.3052     H
H       0.6245      0.5   0.6948     H
H       0.6245   0.6948      0.5     H
H       0.6245   0.8052      0.0     H
C      0.63054      0.0   0.1723     C
C      0.63054      0.0   0.8277     C
C      0.63054   0.1723      0.0     C
C      0.63054   0.3277      0.5     C
C      0.63054      0.5   0.3277     C
C      0.63054      0.5   0.6723     C
C      0.63054   0.6723      0.5     C
C      0.63054   0.8277      0.0     C
O      0.63751      0.0  0.05044     O
O      0.63751      0.0  0.94956     O
O      0.63751  0.05044      0.0     O
O      0.63751  0.44956      0.5     O
O      0.63751      0.5  0.44956     O
O      0.63751      0.5  0.55044     O
O      0.63751  0.55044      0.5     O
O      0.63751  0.94956      0.0     O
Fe      0.6401      0.0      0.0    Fe
Fe      0.6401      0.5      0.5    Fe
C      0.64819      0.0  0.10642     C
C      0.64819      0.0  0.89358     C
C      0.64819  0.10642      0.0     C
C      0.64819  0.39358      0.5     C
C      0.64819      0.5  0.39358     C
C      0.64819      0.5  0.60642     C
C      0.64819  0.60642      0.5     C
C      0.64819  0.89358      0.0     C
C      0.66065      0.0   0.0716     C
C      0.66065      0.0   0.9284     C
C      0.66065   0.0716      0.0     C
C      0.66065   0.4284      0.5     C
C      0.66065      0.5   0.4284     C
C      0.66065      0.5   0.5716     C
C      0.66065   0.5716      0.5     C
C      0.66065   0.9284      0.0     C
C      0.66347      0.0  0.16347     C
C      0.66347      0.0  0.83653     C
C      0.66347  0.16347      0.0     C
C      0.66347  0.33653      0.5     C
C      0.66347      0.5  0.33653     C
C      0.66347      0.5  0.66347     C
C      0.66347  0.66347      0.5     C
C      0.66347  0.83653      0.0     C
H       0.6672   0.0552   0.1741     H
H       0.6672   0.0552   0.8259     H
H       0.6672   0.1741   0.0552     H
H       0.6672   0.1741   0.9448     H
H       0.6672   0.3259   0.4448     H
H       0.6672   0.3259   0.5552     H
H       0.6672   0.4448   0.3259     H
H       0.6672   0.4448   0.6741     H
H       0.6672   0.5552   0.3259     H
H       0.6672   0.5552   0.6741     H
H       0.6672   0.6741   0.4448     H
H       0.6672   0.6741   0.5552     H
H       0.6672   0.8259   0.0552     H
H       0.6672   0.8259   0.9448     H
H       0.6672   0.9448   0.1741     H
H       0.6672   0.9448   0.8259     H
C       0.6723      0.0  0.13054     C
C       0.6723      0.0  0.86946     C
C       0.6723  0.13054      0.0     C
C       0.6723  0.36946      0.5     C
C       0.6723      0.5  0.36946     C
C       0.6723      0.5  0.63054     C
C       0.6723  0.63054      0.5     C
C       0.6723  0.86946      0.0     C
H       0.6741   0.0552   0.1672     H
H       0.6741   0.0552   0.8328     H
H       0.6741   0.1672   0.0552     H
H       0.6741   0.1672   0.9448     H
H       0.6741   0.3328   0.4448     H
H       0.6741   0.3328   0.5552     H
H       0.6741   0.4448   0.3328     H
H       0.6741   0.4448   0.6672     H
H       0.6741   0.5552   0.3328     H
H       0.6741   0.5552   0.6672     H
H       0.6741   0.6672   0.4448     H
H       0.6741   0.6672   0.5552     H
H       0.6741   0.8328   0.0552     H
H       0.6741   0.8328   0.9448     H
H       0.6741   0.9448   0.1672     H
H       0.6741   0.9448   0.8328     H
H       0.6769   0.0732   0.2039     H
H       0.6769   0.0732   0.7961     H
H       0.6769   0.2039   0.0732     H
H       0.6769   0.2039   0.9268     H
H       0.6769   0.2961   0.4268     H
H       0.6769   0.2961   0.5732     H
H       0.6769   0.4268   0.2961     H
H       0.6769   0.4268   0.7039     H
H       0.6769   0.5732   0.2961     H
H       0.6769   0.5732   0.7039     H
H       0.6769   0.7039   0.4268     H
H       0.6769   0.7039   0.5732     H
H       0.6769   0.7961   0.0732     H
H       0.6769   0.7961   0.9268     H
H       0.6769   0.9268   0.2039     H
H       0.6769   0.9268   0.7961     H
C      0.68685  0.06047  0.18685     C
C      0.68685  0.06047  0.81315     C
C      0.68685  0.18685  0.06047     C
C      0.68685  0.18685  0.93953     C
C      0.68685  0.31315  0.43953     C
C      0.68685  0.31315  0.56047     C
C      0.68685  0.43953  0.31315     C
C      0.68685  0.43953  0.68685     C
C      0.68685  0.56047  0.31315     C
C      0.68685  0.56047  0.68685     C
C      0.68685  0.68685  0.43953     C
C      0.68685  0.68685  0.56047     C
C      0.68685  0.81315  0.06047     C
C      0.68685  0.81315  0.93953     C
C      0.68685  0.93953  0.18685     C
C      0.68685  0.93953  0.81315     C
O      0.68756   0.0147    0.065     O
O      0.68756   0.0147    0.935     O
O      0.68756    0.065   0.0147     O
O      0.68756    0.065   0.9853     O
O      0.68756    0.435   0.4853     O
O      0.68756    0.435   0.5147     O
O      0.68756   0.4853    0.435     O
O      0.68756   0.4853    0.565     O
O      0.68756   0.5147    0.435     O
O      0.68756   0.5147    0.565     O
O      0.68756    0.565   0.4853     O
O      0.68756    0.565   0.5147     O
O      0.68756    0.935   0.0147     O
O      0.68756    0.935   0.9853     O
O      0.68756   0.9853    0.065     O
O      0.68756   0.9853    0.935     O
O       0.6878      0.0      0.0     O
O       0.6878      0.5      0.5     O
C      0.68912      0.0  0.18912     C
C      0.68912      0.0  0.81088     C
C      0.68912  0.18912      0.0     C
C      0.68912  0.31088      0.5     C
C      0.68912      0.5  0.31088     C
C      0.68912      0.5  0.68912     C
C      0.68912  0.68912      0.5     C
C      0.68912  0.81088      0.0     C
H       0.6948      0.0   0.1245     H
H       0.6948      0.0   0.8755     H
H       0.6948   0.1245      0.0     H
H       0.6948   0.3755      0.5     H
H       0.6948      0.5   0.3755     H
H       0.6948      0.5   0.6245     H
H       0.6948   0.6245      0.5     H
H       0.6948   0.8755      0.0     H
C      0.70118  0.02953  0.20118     C
C      0.70118  0.02953  0.79882     C
C      0.70118  0.20118  0.02953     C
C      0.70118  0.20118  0.97047     C
C      0.70118  0.29882  0.47047     C
C      0.70118  0.29882  0.52953     C
C      0.70118  0.47047  0.29882     C
C      0.70118  0.47047  0.70118     C
C      0.70118  0.52953  0.29882     C
C      0.70118  0.52953  0.70118     C
C      0.70118  0.70118  0.47047     C
C      0.70118  0.70118  0.52953     C
C      0.70118  0.79882  0.02953     C
C      0.70118  0.79882  0.97047     C
C      0.70118  0.97047  0.20118     C
C      0.70118  0.97047  0.79882     C
H       0.7039   0.0732   0.1769     H
H       0.7039   0.0732   0.8231     H
H       0.7039   0.1769   0.0732     H
H       0.7039   0.1769   0.9268     H
H       0.7039   0.3231   0.4268     H
H       0.7039   0.3231   0.5732     H
H       0.7039   0.4268   0.3231     H
H       0.7039   0.4268   0.6769     H
H       0.7039   0.5732   0.3231     H
H       0.7039   0.5732   0.6769     H
H       0.7039   0.6769   0.4268     H
H       0.7039   0.6769   0.5732     H
H       0.7039   0.8231   0.0732     H
H       0.7039   0.8231   0.9268     H
H       0.7039   0.9268   0.1769     H
H       0.7039   0.9268   0.8231     H
Fe     0.71047  0.02727  0.02727    Fe
Fe     0.71047  0.02727  0.97273    Fe
Fe     0.71047  0.47273  0.47273    Fe
Fe     0.71047  0.47273  0.52727    Fe
Fe     0.71047  0.52727  0.47273    Fe
Fe     0.71047  0.52727  0.52727    Fe
Fe     0.71047  0.97273  0.02727    Fe
Fe     0.71047  0.97273  0.97273    Fe
C      0.72529  0.02953  0.22529     C
C      0.72529  0.02953  0.77471     C
C      0.72529  0.22529  0.02953     C
C      0.72529  0.22529  0.97047     C
C      0.72529  0.27471  0.47047     C
C      0.72529  0.27471  0.52953     C
C      0.72529  0.47047  0.27471     C
C      0.72529  0.47047  0.72529     C
C      0.72529  0.52953  0.27471     C
C      0.72529  0.52953  0.72529     C
C      0.72529  0.72529  0.47047     C
C      0.72529  0.72529  0.52953     C
C      0.72529  0.77471  0.02953     C
C      0.72529  0.77471  0.97047     C
C      0.72529  0.97047  0.22529     C
C      0.72529  0.97047  0.77471     C
H       0.7335   0.0497   0.2335     H
H       0.7335   0.0497   0.7665     H
H       0.7335   0.2335   0.0497     H
H       0.7335   0.2335   0.9503     H
H       0.7335   0.2665   0.4503     H
H       0.7335   0.2665   0.5497     H
H       0.7335   0.4503   0.2665     H
H       0.7335   0.4503   0.7335     H
H       0.7335   0.5497   0.2665     H
H       0.7335   0.5497   0.7335     H
H       0.7335   0.7335   0.4503     H
H       0.7335   0.7335   0.5497     H
H       0.7335   0.7665   0.0497     H
H       0.7335   0.7665   0.9503     H
H       0.7335   0.9503   0.2335     H
H       0.7335   0.9503   0.7665     H
C      0.73735      0.0  0.23735     C
C      0.73735      0.0  0.76265     C
C      0.73735  0.23735      0.0     C
C      0.73735  0.26265      0.5     C
C      0.73735      0.5  0.26265     C
C      0.73735      0.5  0.73735     C
C      0.73735  0.73735      0.5     C
C      0.73735  0.76265      0.0     C
C      0.76265      0.0  0.26265     C
C      0.76265      0.0  0.73735     C
C      0.76265  0.23735      0.5     C
C      0.76265  0.26265      0.0     C
C      0.76265      0.5  0.23735     C
C      0.76265      0.5  0.76265     C
C      0.76265  0.73735      0.0     C
C      0.76265  0.76265      0.5     C
H       0.7665   0.0497   0.2665     H
H       0.7665   0.0497   0.7335     H
H       0.7665   0.2335   0.4503     H
H       0.7665   0.2335   0.5497     H
H       0.7665   0.2665   0.0497     H
H       0.7665   0.2665   0.9503     H
H       0.7665   0.4503   0.2335     H
H       0.7665   0.4503   0.7665     H
H       0.7665   0.5497   0.2335     H
H       0.7665   0.5497   0.7665     H
H       0.7665   0.7335   0.0497     H
H       0.7665   0.7335   0.9503     H
H       0.7665   0.7665   0.4503     H
H       0.7665   0.7665   0.5497     H
H       0.7665   0.9503   0.2665     H
H       0.7665   0.9503   0.7335     H
C      0.77471  0.02953  0.27471     C
C      0.77471  0.02953  0.72529     C
C      0.77471  0.22529  0.47047     C
C      0.77471  0.22529  0.52953     C
C      0.77471  0.27471  0.02953     C
C      0.77471  0.27471  0.97047     C
C      0.77471  0.47047  0.22529     C
C      0.77471  0.47047  0.77471     C
C      0.77471  0.52953  0.22529     C
C      0.77471  0.52953  0.77471     C
C      0.77471  0.72529  0.02953     C
C      0.77471  0.72529  0.97047     C
C      0.77471  0.77471  0.47047     C
C      0.77471  0.77471  0.52953     C
C      0.77471  0.97047  0.27471     C
C      0.77471  0.97047  0.72529     C
Fe     0.78953  0.02727  0.47273    Fe
Fe     0.78953  0.02727  0.52727    Fe
Fe     0.78953  0.47273  0.02727    Fe
Fe     0.78953  0.47273  0.97273    Fe
Fe     0.78953  0.52727  0.02727    Fe
Fe     0.78953  0.52727  0.97273    Fe
Fe     0.78953  0.97273  0.47273    Fe
Fe     0.78953  0.97273  0.52727    Fe
H       0.7944   0.0731   0.3206     H
H       0.7944   0.0731   0.6794     H
H       0.7944   0.1794   0.4269     H
H       0.7944   0.1794   0.5731     H
H       0.7944   0.3206   0.0731     H
H       0.7944   0.3206   0.9269     H
H       0.7944   0.4269   0.1794     H
H       0.7944   0.4269   0.8206     H
H       0.7944   0.5731   0.1794     H
H       0.7944   0.5731   0.8206     H
H       0.7944   0.6794   0.0731     H
H       0.7944   0.6794   0.9269     H
H       0.7944   0.8206   0.4269     H
H       0.7944   0.8206   0.5731     H
H       0.7944   0.9269   0.3206     H
H       0.7944   0.9269   0.6794     H
C      0.79882  0.02953  0.29882     C
C      0.79882  0.02953  0.70118     C
C      0.79882  0.20118  0.47047     C
C      0.79882  0.20118  0.52953     C
C      0.79882  0.29882  0.02953     C
C      0.79882  0.29882  0.97047     C
C      0.79882  0.47047  0.20118     C
C      0.79882  0.47047  0.79882     C
C      0.79882  0.52953  0.20118     C
C      0.79882  0.52953  0.79882     C
C      0.79882  0.70118  0.02953     C
C      0.79882  0.70118  0.97047     C
C      0.79882  0.79882  0.47047     C
C      0.79882  0.79882  0.52953     C
C      0.79882  0.97047  0.29882     C
C      0.79882  0.97047  0.70118     C
H       0.8052      0.0   0.3755     H
H       0.8052      0.0   0.6245     H
H       0.8052   0.1245      0.5     H
H       0.8052   0.3755      0.0     H
H       0.8052      0.5   0.1245     H
H       0.8052      0.5   0.8755     H
H       0.8052   0.6245      0.0     H
H       0.8052   0.8755      0.5     H
C      0.81088      0.0  0.31088     C
C      0.81088      0.0  0.68912     C
C      0.81088  0.18912      0.5     C
C      0.81088  0.31088      0.0     C
C      0.81088      0.5  0.18912     C
C      0.81088      0.5  0.81088     C
C      0.81088  0.68912      0.0     C
C      0.81088  0.81088      0.5     C
O       0.8122      0.0      0.5     O
O       0.8122      0.5      0.0     O
O      0.81244   0.0147    0.435     O
O      0.81244   0.0147    0.565     O
O      0.81244    0.065   0.4853     O
O      0.81244    0.065   0.5147     O
O      0.81244    0.435   0.0147     O
O      0.81244    0.435   0.9853     O
O      0.81244   0.4853    0.065     O
O      0.81244   0.4853    0.935     O
O      0.81244   0.5147    0.065     O
O      0.81244   0.5147    0.935     O
O      0.81244    0.565   0.0147     O
O      0.81244    0.565   0.9853     O
O      0.81244    0.935   0.4853     O
O      0.81244    0.935   0.5147     O
O      0.81244   0.9853    0.435     O
O      0.81244   0.9853    0.565     O
C      0.81315  0.06047  0.31315     C
C      0.81315  0.06047  0.68685     C
C      0.81315  0.18685  0.43953     C
C      0.81315  0.18685  0.56047     C
C      0.81315  0.31315  0.06047     C
C      0.81315  0.31315  0.93953     C
C      0.81315  0.43953  0.18685     C
C      0.81315  0.43953  0.81315     C
C      0.81315  0.56047  0.18685     C
C      0.81315  0.56047  0.81315     C
C      0.81315  0.68685  0.06047     C
C      0.81315  0.68685  0.93953     C
C      0.81315  0.81315  0.43953     C
C      0.81315  0.81315  0.56047     C
C      0.81315  0.93953  0.31315     C
C      0.81315  0.93953  0.68685     C
H       0.8206   0.0731   0.2944     H
H       0.8206   0.0731   0.7056     H
H       0.8206   0.2056   0.4269     H
H       0.8206   0.2056   0.5731     H
H       0.8206   0.2944   0.0731     H
H       0.8206   0.2944   0.9269     H
H       0.8206   0.4269   0.2056     H
H       0.8206   0.4269   0.7944     H
H       0.8206   0.5731   0.2056     H
H       0.8206   0.5731   0.7944     H
H       0.8206   0.7056   0.0731     H
H       0.8206   0.7056   0.9269     H
H       0.8206   0.7944   0.4269     H
H       0.8206   0.7944   0.5731     H
H       0.8206   0.9269   0.2944     H
H       0.8206   0.9269   0.7056     H
H       0.8259   0.0552   0.3328     H
H       0.8259   0.0552   0.6672     H
H       0.8259   0.1672   0.4448     H
H       0.8259   0.1672   0.5552     H
H       0.8259   0.3328   0.0552     H
H       0.8259   0.3328   0.9448     H
H       0.8259   0.4448   0.1672     H
H       0.8259   0.4448   0.8328     H
H       0.8259   0.5552   0.1672     H
H       0.8259   0.5552   0.8328     H
H       0.8259   0.6672   0.0552     H
H       0.8259   0.6672   0.9448     H
H       0.8259   0.8328   0.4448     H
H       0.8259   0.8328   0.5552     H
H       0.8259   0.9448   0.3328     H
H       0.8259   0.9448   0.6672     H
C       0.8277      0.0  0.36946     C
C       0.8277      0.0  0.63054     C
C       0.8277  0.13054      0.5     C
C       0.8277  0.36946      0.0     C
C       0.8277      0.5  0.13054     C
C       0.8277      0.5  0.86946     C
C       0.8277  0.63054      0.0     C
C       0.8277  0.86946      0.5     C
H       0.8328   0.0552   0.3259     H
H       0.8328   0.0552   0.6741     H
H       0.8328   0.1741   0.4448     H
H       0.8328   0.1741   0.5552     H
H       0.8328   0.3259   0.0552     H
H       0.8328   0.3259   0.9448     H
H       0.8328   0.4448   0.1741     H
H       0.8328   0.4448   0.8259     H
H       0.8328   0.5552   0.1741     H
H       0.8328   0.5552   0.8259     H
H       0.8328   0.6741   0.0552     H
H       0.8328   0.6741   0.9448     H
H       0.8328   0.8259   0.4448     H
H       0.8328   0.8259   0.5552     H
H       0.8328   0.9448   0.3259     H
H       0.8328   0.9448   0.6741     H
C      0.83653      0.0  0.33653     C
C      0.83653      0.0  0.66347     C
C      0.83653  0.16347      0.5     C
C      0.83653  0.33653      0.0     C
C      0.83653      0.5  0.16347     C
C      0.83653      0.5  0.83653     C
C      0.83653  0.66347      0.0     C
C      0.83653  0.83653      0.5     C
C      0.83935      0.0   0.4284     C
C      0.83935      0.0   0.5716     C
C      0.83935   0.0716      0.5     C
C      0.83935   0.4284      0.0     C
C      0.83935      0.5   0.0716     C
C      0.83935      0.5   0.9284     C
C      0.83935   0.5716      0.0     C
C      0.83935   0.9284      0.5     C
C      0.85181      0.0  0.39358     C
C      0.85181      0.0  0.60642     C
C      0.85181  0.10642      0.5     C
C      0.85181  0.39358      0.0     C
C      0.85181      0.5  0.10642     C
C      0.85181      0.5  0.89358     C
C      0.85181  0.60642      0.0     C
C      0.85181  0.89358      0.5     C
Fe      0.8599      0.0      0.5    Fe
Fe      0.8599      0.5      0.0    Fe
O      0.86249      0.0  0.44956     O
O      0.86249      0.0  0.55044     O
O      0.86249  0.05044      0.5     O
O      0.86249  0.44956      0.0     O
O      0.86249      0.5  0.05044     O
O      0.86249      0.5  0.94956     O
O      0.86249  0.55044      0.0     O
O      0.86249  0.94956      0.5     O
C      0.86946      0.0   0.3277     C
C      0.86946      0.0   0.6723     C
C      0.86946   0.1723      0.5     C
C      0.86946   0.3277      0.0     C
C      0.86946      0.5   0.1723     C
C      0.86946      0.5   0.8277     C
C      0.86946   0.6723      0.0     C
C      0.86946   0.8277      0.5     C
H       0.8755      0.0   0.3052     H
H       0.8755      0.0   0.6948     H
H       0.8755   0.1948      0.5     H
H       0.8755   0.3052      0.0     H
H       0.8755      0.5   0.1948     H
H       0.8755      0.5   0.8052     H
H       0.8755   0.6948      0.0     H
H       0.8755   0.8052      0.5     H
C      0.88475      0.0  0.38475     C
C      0.88475      0.0  0.61525     C
C      0.88475  0.11525      0.5     C
C      0.88475  0.38475      0.0     C
C      0.88475      0.5  0.11525     C
C      0.88475      0.5  0.88475     C
C      0.88475  0.61525      0.0     C
C      0.88475  0.88475      0.5     C
C      0.89358      0.0  0.35181     C
C      0.89358      0.0  0.64819     C
C      0.89358  0.14819      0.5     C
C      0.89358  0.35181      0.0     C
C      0.89358      0.5  0.14819     C
C      0.89358      0.5  0.85181     C
C      0.89358  0.64819      0.0     C
C      0.89358  0.85181      0.5     C
H       0.9012      0.0   0.4012     H
H       0.9012      0.0   0.5988     H
H       0.9012   0.0988      0.5     H
H       0.9012   0.4012      0.0     H
H       0.9012      0.5   0.0988     H
H       0.9012      0.5   0.9012     H
H       0.9012   0.5988      0.0     H
H       0.9012   0.9012      0.5     H
H       0.9268   0.1769   0.2961     H
H       0.9268   0.1769   0.7039     H
H       0.9268   0.2039   0.3231     H
H       0.9268   0.2039   0.6769     H
H       0.9268   0.2961   0.1769     H
H       0.9268   0.2961   0.8231     H
H       0.9268   0.3231   0.2039     H
H       0.9268   0.3231   0.7961     H
H       0.9268   0.6769   0.2039     H
H       0.9268   0.6769   0.7961     H
H       0.9268   0.7039   0.1769     H
H       0.9268   0.7039   0.8231     H
H       0.9268   0.7961   0.3231     H
H       0.9268   0.7961   0.6769     H
H       0.9268   0.8231   0.2961     H
H       0.9268   0.8231   0.7039     H
C       0.9284      0.0  0.33935     C
C       0.9284      0.0  0.66065     C
C       0.9284  0.16065      0.5     C
C       0.9284  0.33935      0.0     C
C       0.9284      0.5  0.16065     C
C       0.9284      0.5  0.83935     C
C       0.9284  0.66065      0.0     C
C       0.9284  0.83935      0.5     C
O        0.935   0.0147  0.31244     O
O        0.935   0.0147  0.68756     O
O        0.935  0.18756   0.4853     O
O        0.935  0.18756   0.5147     O
O        0.935  0.31244   0.0147     O
O        0.935  0.31244   0.9853     O
O        0.935   0.4853  0.18756     O
O        0.935   0.4853  0.81244     O
O        0.935   0.5147  0.18756     O
O        0.935   0.5147  0.81244     O
O        0.935  0.68756   0.0147     O
O        0.935  0.68756   0.9853     O
O        0.935  0.81244   0.4853     O
O        0.935  0.81244   0.5147     O
O        0.935   0.9853  0.31244     O
O        0.935   0.9853  0.68756     O
C      0.93953  0.18685  0.31315     C
C      0.93953  0.18685  0.68685     C
C      0.93953  0.31315  0.18685     C
C      0.93953  0.31315  0.81315     C
C      0.93953  0.68685  0.18685     C
C      0.93953  0.68685  0.81315     C
C      0.93953  0.81315  0.31315     C
C      0.93953  0.81315  0.68685     C
H       0.9448   0.1672   0.3259     H
H       0.9448   0.1672   0.6741     H
H       0.9448   0.1741   0.3328     H
H       0.9448   0.1741   0.6672     H
H       0.9448   0.3259   0.1672     H
H       0.9448   0.3259   0.8328     H
H       0.9448   0.3328   0.1741     H
H       0.9448   0.3328   0.8259     H
H       0.9448   0.6672   0.1741     H
H       0.9448   0.6672   0.8259     H
H       0.9448   0.6741   0.1672     H
H       0.9448   0.6741   0.8328     H
H       0.9448   0.8259   0.3328     H
H       0.9448   0.8259   0.6672     H
H       0.9448   0.8328   0.3259     H
H       0.9448   0.8328   0.6741     H
O      0.94956      0.0  0.36249     O
O      0.94956      0.0  0.63751     O
O      0.94956  0.13751      0.5     O
O      0.94956  0.36249      0.0     O
O      0.94956      0.5  0.13751     O
O      0.94956      0.5  0.86249     O
O      0.94956  0.63751      0.0     O
O      0.94956  0.86249      0.5     O
H       0.9503   0.2335   0.2665     H
H       0.9503   0.2335   0.7335     H
H       0.9503   0.2665   0.2335     H
H       0.9503   0.2665   0.7665     H
H       0.9503   0.7335   0.2335     H
H       0.9503   0.7335   0.7665     H
H       0.9503   0.7665   0.2665     H
H       0.9503   0.7665   0.7335     H
C      0.97047  0.20118  0.29882     C
C      0.97047  0.20118  0.70118     C
C      0.97047  0.22529  0.27471     C
C      0.97047  0.22529  0.72529     C
C      0.97047  0.27471  0.22529     C
C      0.97047  0.27471  0.77471     C
C      0.97047  0.29882  0.20118     C
C      0.97047  0.29882  0.79882     C
C      0.97047  0.70118  0.20118     C
C      0.97047  0.70118  0.79882     C
C      0.97047  0.72529  0.22529     C
C      0.97047  0.72529  0.77471     C
C      0.97047  0.77471  0.27471     C
C      0.97047  0.77471  0.72529     C
C      0.97047  0.79882  0.29882     C
C      0.97047  0.79882  0.70118     C
Fe     0.97273  0.02727  0.28953    Fe
Fe     0.97273  0.02727  0.71047    Fe
Fe     0.97273  0.21047  0.47273    Fe
Fe     0.97273  0.21047  0.52727    Fe
Fe     0.97273  0.28953  0.02727    Fe
Fe     0.97273  0.28953  0.97273    Fe
Fe     0.97273  0.47273  0.21047    Fe
Fe     0.97273  0.47273  0.78953    Fe
Fe     0.97273  0.52727  0.21047    Fe
Fe     0.97273  0.52727  0.78953    Fe
Fe     0.97273  0.71047  0.02727    Fe
Fe     0.97273  0.71047  0.97273    Fe
Fe     0.97273  0.78953  0.47273    Fe
Fe     0.97273  0.78953  0.52727    Fe
Fe     0.97273  0.97273  0.28953    Fe
Fe     0.97273  0.97273  0.71047    Fe
O       0.9853    0.065  0.31244     O
O       0.9853    0.065  0.68756     O
O       0.9853  0.18756    0.435     O
O       0.9853  0.18756    0.565     O
O       0.9853  0.31244    0.065     O
O       0.9853  0.31244    0.935     O
O       0.9853    0.435  0.18756     O
O       0.9853    0.435  0.81244     O
O       0.9853    0.565  0.18756     O
O       0.9853    0.565  0.81244     O
O       0.9853  0.68756    0.065     O
O       0.9853  0.68756    0.935     O
O       0.9853  0.81244    0.435     O
O       0.9853  0.81244    0.565     O
O       0.9853    0.935  0.31244     O
O       0.9853    0.935  0.68756     O
