# Generated by pormake.
# Topology fcu, (12)-cn, num edge types: 1
# Building blocks:
#     Node 0, Type 0, BuildingBlock: UiO-66_sbu_0, # of connection points: 12
#     Node 1, Type 0, BuildingBlock: UiO-66_sbu_0, # of connection points: 12
#     Node 2, Type 0, BuildingBlock: UiO-66_sbu_0, # of connection points: 12
#     Node 3, Type 0, BuildingBlock: UiO-66_sbu_0, # of connection points: 12
#     Edge 4, Type (0, 0), BuildingBlock: 4,4-azobenzenedicarboxylate_final, # of connection points: 2
#     Edge 5, Type (0, 0), BuildingBlock: 4,4-azobenzenedicarboxylate_final, # of connection points: 2
#     Edge 6, Type (0, 0), BuildingBlock: 4,4-azobenzenedicarboxylate_final, # of connection points: 2
#     Edge 7, Type (0, 0), BuildingBlock: 4,4-azobenzenedicarboxylate_final, # of connection points: 2
#     Edge 8, Type (0, 0), BuildingBlock: 4,4-azobenzenedicarboxylate_final, # of connection points: 2
#     Edge 9, Type (0, 0), BuildingBlock: 4,4-azobenzenedicarboxylate_final, # of connection points: 2
#     Edge 10, Type (0, 0), BuildingBlock: 4,4-azobenzenedicarboxylate_final, # of connection points: 2
#     Edge 11, Type (0, 0), BuildingBlock: 4,4-azobenzenedicarboxylate_final, # of connection points: 2
#     Edge 12, Type (0, 0), BuildingBlock: 4,4-azobenzenedicarboxylate_final, # of connection points: 2
#     Edge 13, Type (0, 0), BuildingBlock: 4,4-azobenzenedicarboxylate_final, # of connection points: 2
#     Edge 14, Type (0, 0), BuildingBlock: 4,4-azobenzenedicarboxylate_final, # of connection points: 2
#     Edge 15, Type (0, 0), BuildingBlock: 4,4-azobenzenedicarboxylate_final, # of connection points: 2
#     Edge 16, Type (0, 0), BuildingBlock: 4,4-azobenzenedicarboxylate_final, # of connection points: 2
#     Edge 17, Type (0, 0), BuildingBlock: 4,4-azobenzenedicarboxylate_final, # of connection points: 2
#     Edge 18, Type (0, 0), BuildingBlock: 4,4-azobenzenedicarboxylate_final, # of connection points: 2
#     Edge 19, Type (0, 0), BuildingBlock: 4,4-azobenzenedicarboxylate_final, # of connection points: 2
#     Edge 20, Type (0, 0), BuildingBlock: 4,4-azobenzenedicarboxylate_final, # of connection points: 2
#     Edge 21, Type (0, 0), BuildingBlock: 4,4-azobenzenedicarboxylate_final, # of connection points: 2
#     Edge 22, Type (0, 0), BuildingBlock: 4,4-azobenzenedicarboxylate_final, # of connection points: 2
#     Edge 23, Type (0, 0), BuildingBlock: 4,4-azobenzenedicarboxylate_final, # of connection points: 2
#     Edge 24, Type (0, 0), BuildingBlock: 4,4-azobenzenedicarboxylate_final, # of connection points: 2
#     Edge 25, Type (0, 0), BuildingBlock: 4,4-azobenzenedicarboxylate_final, # of connection points: 2
#     Edge 26, Type (0, 0), BuildingBlock: 4,4-azobenzenedicarboxylate_final, # of connection points: 2
#     Edge 27, Type (0, 0), BuildingBlock: 4,4-azobenzenedicarboxylate_final, # of connection points: 2
# Relax obj value: 0.001
# Max RMSD: 0.020
# Mean RMSD: 0.020
data_Zr6O6(ABDC)12
_symmetry_space_group_name_H-M    P1
_symmetry_Int_Tables_number       1
_symmetry_cell_setting            triclinic
loop_
_symmetry_equiv_pos_as_xyz
'x, y, z'
_cell_length_a     29.876
_cell_length_b     29.876
_cell_length_c     29.876
_cell_angle_alpha  90.000
_cell_angle_beta   90.000
_cell_angle_gamma  90.000
loop_
_atom_site_label
_atom_site_type_symbol
_atom_site_fract_x
_atom_site_fract_y
_atom_site_fract_z
_atom_type_partial_charge
Zr0 Zr 0.08330 0.00010 0.00010 0.0
O1 O 0.04685 0.95335 0.04685 0.0
Zr2 Zr 0.00010 0.91690 0.00010 0.0
O3 O 0.03512 0.03512 0.03512 0.0
Zr4 Zr 0.00010 0.00010 0.08330 0.0
Zr5 Zr 0.00010 0.00010 0.91690 0.0
Zr6 Zr 0.00010 0.08330 0.00010 0.0
H7 H 0.06566 0.06566 0.93454 0.0
H8 H 0.06566 0.93454 0.06566 0.0
O9 O 0.03512 0.96508 0.96508 0.0
O10 O 0.04685 0.04685 0.95335 0.0
O11 O 0.95335 0.95335 0.95335 0.0
O12 O 0.96508 0.96508 0.03512 0.0
O13 O 0.96508 0.03512 0.96508 0.0
Zr14 Zr 0.91690 0.00010 0.00010 0.0
O15 O 0.95335 0.04685 0.04685 0.0
H16 H 0.93454 0.93454 0.93454 0.0
H17 H 0.93454 0.06566 0.06566 0.0
C18 C 0.10594 0.99729 0.89426 0.0
C19 C 0.10594 0.89426 0.99729 0.0
C20 C 0.00291 0.89426 0.89426 0.0
C21 C 0.99729 0.89426 0.10594 0.0
C22 C 0.89426 0.00291 0.89426 0.0
C23 C 0.89426 0.89426 0.00291 0.0
C24 C 0.99729 0.10594 0.89426 0.0
C25 C 0.10594 0.10594 0.00291 0.0
C26 C 0.10594 0.00291 0.10594 0.0
C27 C 0.00291 0.10594 0.10594 0.0
C28 C 0.89426 0.10594 0.99729 0.0
C29 C 0.89426 0.99729 0.10594 0.0
O30 O 0.11886 0.99831 0.93504 0.0
O31 O 0.11886 0.93504 0.99831 0.0
O32 O 0.06516 0.99831 0.88134 0.0
O33 O 0.06516 0.88134 0.99831 0.0
O34 O 0.00189 0.93504 0.88134 0.0
O35 O 0.00189 0.88134 0.93504 0.0
O36 O 0.99831 0.88134 0.06516 0.0
O37 O 0.93504 0.00189 0.88134 0.0
O38 O 0.93504 0.88134 0.00189 0.0
O39 O 0.11886 0.06516 0.00189 0.0
O40 O 0.11886 0.00189 0.06516 0.0
O41 O 0.99831 0.06516 0.88134 0.0
O42 O 0.99831 0.93504 0.11886 0.0
O43 O 0.88134 0.00189 0.93504 0.0
O44 O 0.88134 0.93504 0.00189 0.0
O45 O 0.06516 0.11886 0.00189 0.0
O46 O 0.06516 0.00189 0.11886 0.0
O47 O 0.99831 0.11886 0.93504 0.0
O48 O 0.00189 0.11886 0.06516 0.0
O49 O 0.00189 0.06516 0.11886 0.0
O50 O 0.93504 0.11886 0.99831 0.0
O51 O 0.93504 0.99831 0.11886 0.0
O52 O 0.88134 0.06516 0.99831 0.0
O53 O 0.88134 0.99831 0.06516 0.0
Zr54 Zr 0.91690 0.50000 0.50000 0.0
O55 O 0.95335 0.54675 0.45325 0.0
Zr56 Zr 0.00010 0.50000 0.41680 0.0
O57 O 0.96508 0.53502 0.53502 0.0
Zr58 Zr 0.00010 0.58320 0.50000 0.0
Zr59 Zr 0.00010 0.41680 0.50000 0.0
Zr60 Zr 0.00010 0.50000 0.58320 0.0
H61 H 0.93454 0.43444 0.56556 0.0
H62 H 0.93454 0.56556 0.43444 0.0
O63 O 0.96508 0.46498 0.46498 0.0
O64 O 0.95335 0.45325 0.54675 0.0
O65 O 0.04685 0.45325 0.45325 0.0
O66 O 0.03512 0.53502 0.46498 0.0
O67 O 0.03512 0.46498 0.53502 0.0
Zr68 Zr 0.08330 0.50000 0.50000 0.0
O69 O 0.04685 0.54675 0.54675 0.0
H70 H 0.06566 0.43444 0.43444 0.0
H71 H 0.06566 0.56556 0.56556 0.0
C72 C 0.89426 0.39416 0.49719 0.0
C73 C 0.89426 0.49719 0.39416 0.0
C74 C 0.99729 0.39416 0.39416 0.0
C75 C 0.00291 0.60584 0.39416 0.0
C76 C 0.10594 0.39416 0.50281 0.0
C77 C 0.10594 0.50281 0.39416 0.0
C78 C 0.00291 0.39416 0.60584 0.0
C79 C 0.89426 0.50281 0.60584 0.0
C80 C 0.89426 0.60584 0.50281 0.0
C81 C 0.99729 0.60584 0.60584 0.0
C82 C 0.10594 0.49719 0.60584 0.0
C83 C 0.10594 0.60584 0.49719 0.0
O84 O 0.88134 0.43494 0.49821 0.0
O85 O 0.88134 0.49821 0.43494 0.0
O86 O 0.93504 0.38124 0.49821 0.0
O87 O 0.93504 0.49821 0.38124 0.0
O88 O 0.99831 0.38124 0.43494 0.0
O89 O 0.99831 0.43494 0.38124 0.0
O90 O 0.00189 0.56506 0.38124 0.0
O91 O 0.06516 0.38124 0.50179 0.0
O92 O 0.06516 0.50180 0.38124 0.0
O93 O 0.88134 0.50180 0.56506 0.0
O94 O 0.88134 0.56506 0.50179 0.0
O95 O 0.00189 0.38124 0.56506 0.0
O96 O 0.00189 0.61876 0.43494 0.0
O97 O 0.11886 0.43494 0.50179 0.0
O98 O 0.11886 0.50180 0.43494 0.0
O99 O 0.93504 0.50180 0.61876 0.0
O100 O 0.93504 0.61876 0.50179 0.0
O101 O 0.00189 0.43494 0.61876 0.0
O102 O 0.99831 0.56506 0.61876 0.0
O103 O 0.99831 0.61876 0.56506 0.0
O104 O 0.06516 0.49821 0.61876 0.0
O105 O 0.06516 0.61876 0.49821 0.0
O106 O 0.11886 0.49821 0.56506 0.0
O107 O 0.11886 0.56506 0.49821 0.0
Zr108 Zr 0.58320 0.00010 0.50000 0.0
O109 O 0.54675 0.95335 0.54675 0.0
Zr110 Zr 0.50000 0.91690 0.50000 0.0
O111 O 0.53502 0.03512 0.53502 0.0
Zr112 Zr 0.50000 0.00010 0.58320 0.0
Zr113 Zr 0.50000 0.00010 0.41680 0.0
Zr114 Zr 0.50000 0.08330 0.50000 0.0
H115 H 0.56556 0.06566 0.43444 0.0
H116 H 0.56556 0.93454 0.56556 0.0
O117 O 0.53502 0.96508 0.46498 0.0
O118 O 0.54675 0.04685 0.45325 0.0
O119 O 0.45325 0.95335 0.45325 0.0
O120 O 0.46498 0.96508 0.53502 0.0
O121 O 0.46498 0.03512 0.46498 0.0
Zr122 Zr 0.41680 0.00010 0.50000 0.0
O123 O 0.45325 0.04685 0.54675 0.0
H124 H 0.43444 0.93454 0.43444 0.0
H125 H 0.43444 0.06566 0.56556 0.0
C126 C 0.60584 0.99729 0.39416 0.0
C127 C 0.60584 0.89426 0.49719 0.0
C128 C 0.50281 0.89426 0.39416 0.0
C129 C 0.49719 0.89426 0.60584 0.0
C130 C 0.39416 0.00291 0.39416 0.0
C131 C 0.39416 0.89426 0.50281 0.0
C132 C 0.49719 0.10594 0.39416 0.0
C133 C 0.60584 0.10594 0.50281 0.0
C134 C 0.60584 0.00291 0.60584 0.0
C135 C 0.50281 0.10594 0.60584 0.0
C136 C 0.39416 0.10594 0.49719 0.0
C137 C 0.39416 0.99729 0.60584 0.0
O138 O 0.61876 0.99831 0.43494 0.0
O139 O 0.61876 0.93504 0.49821 0.0
O140 O 0.56506 0.99831 0.38124 0.0
O141 O 0.56506 0.88134 0.49821 0.0
O142 O 0.50179 0.93504 0.38124 0.0
O143 O 0.50179 0.88134 0.43494 0.0
O144 O 0.49821 0.88134 0.56506 0.0
O145 O 0.43494 0.00189 0.38124 0.0
O146 O 0.43494 0.88134 0.50179 0.0
O147 O 0.61876 0.06516 0.50179 0.0
O148 O 0.61876 0.00189 0.56506 0.0
O149 O 0.49821 0.06516 0.38124 0.0
O150 O 0.49821 0.93504 0.61876 0.0
O151 O 0.38124 0.00189 0.43494 0.0
O152 O 0.38124 0.93504 0.50179 0.0
O153 O 0.56506 0.11886 0.50179 0.0
O154 O 0.56506 0.00189 0.61876 0.0
O155 O 0.49821 0.11886 0.43494 0.0
O156 O 0.50179 0.11886 0.56506 0.0
O157 O 0.50179 0.06516 0.61876 0.0
O158 O 0.43494 0.11886 0.49821 0.0
O159 O 0.43494 0.99831 0.61876 0.0
O160 O 0.38124 0.06516 0.49821 0.0
O161 O 0.38124 0.99831 0.56506 0.0
Zr162 Zr 0.58320 0.50000 0.00010 0.0
O163 O 0.54675 0.45325 0.04685 0.0
Zr164 Zr 0.50000 0.41680 0.00010 0.0
O165 O 0.53502 0.53502 0.03512 0.0
Zr166 Zr 0.50000 0.50000 0.08330 0.0
Zr167 Zr 0.50000 0.50000 0.91690 0.0
Zr168 Zr 0.50000 0.58320 0.00010 0.0
H169 H 0.56556 0.56556 0.93454 0.0
H170 H 0.56556 0.43444 0.06566 0.0
O171 O 0.53502 0.46498 0.96508 0.0
O172 O 0.54675 0.54675 0.95335 0.0
O173 O 0.45325 0.45325 0.95335 0.0
O174 O 0.46498 0.46498 0.03512 0.0
O175 O 0.46498 0.53502 0.96508 0.0
Zr176 Zr 0.41680 0.50000 0.00010 0.0
O177 O 0.45325 0.54675 0.04685 0.0
H178 H 0.43444 0.43444 0.93454 0.0
H179 H 0.43444 0.56556 0.06566 0.0
C180 C 0.60584 0.49719 0.89426 0.0
C181 C 0.60584 0.39416 0.99729 0.0
C182 C 0.50281 0.39416 0.89426 0.0
C183 C 0.49719 0.39416 0.10594 0.0
C184 C 0.39416 0.50281 0.89426 0.0
C185 C 0.39416 0.39416 0.00291 0.0
C186 C 0.49719 0.60584 0.89426 0.0
C187 C 0.60584 0.60584 0.00291 0.0
C188 C 0.60584 0.50281 0.10594 0.0
C189 C 0.50281 0.60584 0.10594 0.0
C190 C 0.39416 0.60584 0.99729 0.0
C191 C 0.39416 0.49719 0.10594 0.0
O192 O 0.61876 0.49821 0.93504 0.0
O193 O 0.61876 0.43494 0.99831 0.0
O194 O 0.56506 0.49821 0.88134 0.0
O195 O 0.56506 0.38124 0.99831 0.0
O196 O 0.50179 0.43494 0.88134 0.0
O197 O 0.50179 0.38124 0.93504 0.0
O198 O 0.49821 0.38124 0.06516 0.0
O199 O 0.43494 0.50179 0.88134 0.0
O200 O 0.43494 0.38124 0.00189 0.0
O201 O 0.61876 0.56506 0.00189 0.0
O202 O 0.61876 0.50179 0.06516 0.0
O203 O 0.49821 0.56506 0.88134 0.0
O204 O 0.49821 0.43494 0.11886 0.0
O205 O 0.38124 0.50179 0.93504 0.0
O206 O 0.38124 0.43494 0.00189 0.0
O207 O 0.56506 0.61876 0.00189 0.0
O208 O 0.56506 0.50179 0.11886 0.0
O209 O 0.49821 0.61876 0.93504 0.0
O210 O 0.50179 0.61876 0.06516 0.0
O211 O 0.50179 0.56506 0.11886 0.0
O212 O 0.43494 0.61876 0.99831 0.0
O213 O 0.43494 0.49821 0.11886 0.0
O214 O 0.38124 0.56506 0.99831 0.0
O215 O 0.38124 0.49821 0.06516 0.0
C216 C 0.00103 0.14062 0.13966 0.0
C217 C 0.95989 0.16305 0.14397 0.0
C218 C 0.95452 0.19689 0.17585 0.0
C219 C 0.99002 0.20890 0.20392 0.0
N220 N 0.98344 0.24335 0.23587 0.0
N221 N 0.01691 0.25676 0.26445 0.0
C222 C 0.01034 0.29122 0.29639 0.0
C223 C 0.96914 0.31352 0.30047 0.0
C224 C 0.96371 0.34739 0.33231 0.0
C225 C 0.99990 0.35955 0.36059 0.0
C226 C 0.04047 0.33708 0.35632 0.0
C227 C 0.04583 0.30323 0.32446 0.0
C228 C 0.03123 0.18664 0.19980 0.0
C229 C 0.03666 0.15279 0.16794 0.0
H230 H 0.93180 0.15450 0.12273 0.0
H231 H 0.92259 0.21381 0.17870 0.0
H232 H 0.94116 0.30486 0.27915 0.0
H233 H 0.93161 0.36404 0.33475 0.0
H234 H 0.06854 0.34565 0.37759 0.0
H235 H 0.07775 0.28629 0.32164 0.0
H236 H 0.05921 0.19530 0.22111 0.0
H237 H 0.06877 0.13615 0.16546 0.0
C238 C 0.85953 0.99869 0.13964 0.0
C239 C 0.83601 0.03921 0.14401 0.0
C240 C 0.80203 0.04361 0.17588 0.0
C241 C 0.79096 0.00776 0.20389 0.0
N242 N 0.75634 0.01336 0.23584 0.0
N243 N 0.74382 0.97949 0.26435 0.0
C244 C 0.70922 0.98510 0.29632 0.0
C245 C 0.68588 0.02570 0.30053 0.0
C246 C 0.65191 0.03019 0.33241 0.0
C247 C 0.64068 0.99422 0.36060 0.0
C248 C 0.66418 0.95366 0.35620 0.0
C249 C 0.69814 0.94924 0.32431 0.0
C250 C 0.81433 0.96717 0.19971 0.0
C251 C 0.84832 0.96269 0.16785 0.0
H252 H 0.84382 0.06755 0.12281 0.0
H253 H 0.78426 0.07507 0.17879 0.0
H254 H 0.69382 0.05395 0.27928 0.0
H255 H 0.63446 0.06185 0.33494 0.0
H256 H 0.65635 0.92532 0.37740 0.0
H257 H 0.71589 0.91776 0.32139 0.0
H258 H 0.80641 0.93892 0.22097 0.0
H259 H 0.86581 0.93105 0.16532 0.0
C260 C 0.99990 0.86008 0.14017 0.0
C261 C 0.04238 0.84718 0.15395 0.0
C262 C 0.04795 0.81438 0.18685 0.0
C263 C 0.01072 0.79394 0.20654 0.0
N264 N 0.01756 0.76081 0.23981 0.0
N265 N 0.98245 0.73944 0.26047 0.0
C266 C 0.98929 0.70629 0.29372 0.0
C267 C 0.03247 0.69353 0.30729 0.0
C268 C 0.03813 0.66072 0.34018 0.0
C269 C 0.00010 0.64011 0.36005 0.0
C270 C 0.95764 0.65305 0.34631 0.0
C271 C 0.95206 0.68586 0.31342 0.0
C272 C 0.96754 0.80667 0.19294 0.0
C273 C 0.96189 0.83946 0.16004 0.0
H274 H 0.07184 0.86240 0.13932 0.0
H275 H 0.08141 0.80485 0.19706 0.0
H276 H 0.06182 0.70883 0.29257 0.0
H277 H 0.07177 0.65151 0.35001 0.0
H278 H 0.92819 0.63782 0.36095 0.0
H279 H 0.91860 0.69541 0.30324 0.0
H280 H 0.93819 0.79136 0.20766 0.0
H281 H 0.92825 0.84866 0.15016 0.0
C282 C 0.35970 0.00142 0.36020 0.0
C283 C 0.34114 0.95920 0.35086 0.0
C284 C 0.30771 0.95461 0.31844 0.0
C285 C 0.29224 0.99197 0.29484 0.0
N286 N 0.25831 0.98613 0.26219 0.0
N287 N 0.24163 0.02142 0.23784 0.0
C288 C 0.20772 0.01558 0.20518 0.0
C289 C 0.18936 0.97327 0.19599 0.0
C290 C 0.15593 0.96860 0.16357 0.0
C291 C 0.14030 0.00607 0.13979 0.0
C292 C 0.15883 0.04834 0.14915 0.0
C293 C 0.19224 0.05294 0.18158 0.0
C294 C 0.31063 0.03426 0.30399 0.0
C295 C 0.34407 0.03893 0.33640 0.0
H296 H 0.35242 0.92966 0.36858 0.0
H297 H 0.29379 0.92182 0.31169 0.0
H298 H 0.20076 0.94384 0.21378 0.0
H299 H 0.14236 0.93561 0.15715 0.0
H300 H 0.14752 0.07786 0.13143 0.0
H301 H 0.20613 0.08573 0.18836 0.0
H302 H 0.29924 0.06369 0.28619 0.0
H303 H 0.35768 0.07190 0.34281 0.0
C304 C 0.00219 0.86148 0.85859 0.0
C305 C 0.98273 0.87484 0.81789 0.0
C306 C 0.97973 0.84490 0.78205 0.0
C307 C 0.99607 0.80121 0.78620 0.0
N308 N 0.99250 0.77171 0.74921 0.0
N309 N 0.00787 0.72839 0.75106 0.0
C310 C 0.00428 0.69888 0.71409 0.0
C311 C 0.98475 0.71244 0.67352 0.0
C312 C 0.98169 0.68254 0.63765 0.0
C313 C 0.99808 0.63862 0.64168 0.0
C314 C 0.01760 0.62525 0.68239 0.0
C315 C 0.02063 0.65520 0.71822 0.0
C316 C 0.01556 0.78763 0.82678 0.0
C317 C 0.01859 0.81753 0.86265 0.0
H318 H 0.96979 0.90843 0.81367 0.0
H319 H 0.96463 0.85576 0.75094 0.0
H320 H 0.97185 0.74605 0.66947 0.0
H321 H 0.96648 0.69387 0.60676 0.0
H322 H 0.03055 0.59165 0.68659 0.0
H323 H 0.03576 0.64434 0.74932 0.0
H324 H 0.02845 0.75402 0.83084 0.0
H325 H 0.03377 0.80621 0.89356 0.0
C326 C 0.13857 0.99698 0.85847 0.0
C327 C 0.12289 0.00531 0.81489 0.0
C328 C 0.15259 0.00623 0.77874 0.0
C329 C 0.19835 0.99887 0.78542 0.0
N330 N 0.22754 0.00010 0.74804 0.0
N331 N 0.27282 0.99308 0.75229 0.0
C332 C 0.30201 0.99422 0.71490 0.0
C333 C 0.28609 0.00252 0.67144 0.0
C334 C 0.31574 0.00343 0.63524 0.0
C335 C 0.36174 0.99606 0.64183 0.0
C336 C 0.37745 0.98776 0.68543 0.0
C337 C 0.34776 0.98687 0.72159 0.0
C338 C 0.21426 0.99052 0.82888 0.0
C339 C 0.18460 0.98959 0.86507 0.0
H340 H 0.08766 0.01113 0.80867 0.0
H341 H 0.13993 0.01270 0.74540 0.0
H342 H 0.25084 0.00831 0.66538 0.0
H343 H 0.30258 0.00991 0.60209 0.0
H344 H 0.41269 0.98196 0.69164 0.0
H345 H 0.36044 0.98043 0.75493 0.0
H346 H 0.24950 0.98472 0.83494 0.0
H347 H 0.19774 0.98308 0.89823 0.0
C348 C 0.00111 0.36060 0.64069 0.0
C349 C 0.96159 0.35932 0.66619 0.0
C350 C 0.95640 0.32777 0.70036 0.0
C351 C 0.99046 0.29702 0.70966 0.0
N352 N 0.98411 0.26549 0.74453 0.0
N353 N 0.01623 0.23438 0.75537 0.0
C354 C 0.00988 0.20286 0.79026 0.0
C355 C 0.97031 0.20181 0.81564 0.0
C356 C 0.96505 0.17030 0.84984 0.0
C357 C 0.99990 0.13934 0.85927 0.0
C358 C 0.03875 0.14058 0.83373 0.0
C359 C 0.04394 0.17211 0.79955 0.0
C360 C 0.03005 0.29811 0.68431 0.0
C361 C 0.03531 0.32963 0.65012 0.0
H362 H 0.93463 0.38268 0.65978 0.0
H363 H 0.92572 0.32727 0.71967 0.0
H364 H 0.94346 0.22524 0.80911 0.0
H365 H 0.93422 0.17022 0.86889 0.0
H366 H 0.06569 0.11720 0.84015 0.0
H367 H 0.07460 0.17259 0.78022 0.0
H368 H 0.05691 0.27469 0.69084 0.0
H369 H 0.06616 0.32975 0.63109 0.0
C370 C 0.63846 0.00332 0.64165 0.0
C371 C 0.62255 0.99680 0.68545 0.0
C372 C 0.65223 0.99608 0.72162 0.0
C373 C 0.69818 0.00184 0.71474 0.0
N374 N 0.72735 0.00010 0.75216 0.0
N375 N 0.77281 0.00636 0.74772 0.0
C376 C 0.80197 0.00547 0.78513 0.0
C377 C 0.78583 0.99898 0.82882 0.0
C378 C 0.81545 0.99828 0.86505 0.0
C379 C 0.86165 0.00404 0.85826 0.0
C380 C 0.87759 0.01052 0.81443 0.0
C381 C 0.84792 0.01121 0.77825 0.0
C382 C 0.71432 0.00837 0.67106 0.0
C383 C 0.68469 0.00910 0.63484 0.0
H384 H 0.58717 0.99225 0.69183 0.0
H385 H 0.63939 0.99102 0.75514 0.0
H386 H 0.75042 0.99446 0.83504 0.0
H387 H 0.80212 0.99322 0.89837 0.0
H388 H 0.91299 0.01505 0.80807 0.0
H389 H 0.86078 0.01624 0.74473 0.0
H390 H 0.74972 0.01290 0.66484 0.0
H391 H 0.69800 0.01419 0.60151 0.0
C392 C 0.35842 0.36148 0.00294 0.0
C393 C 0.31582 0.37618 0.98940 0.0
C394 C 0.27978 0.34637 0.98792 0.0
C395 C 0.28560 0.30148 0.99990 0.0
N396 N 0.24835 0.27215 0.99801 0.0
N397 N 0.25179 0.22769 0.00931 0.0
C398 C 0.21453 0.19837 0.00745 0.0
C399 C 0.17205 0.21331 0.99392 0.0
C400 C 0.13595 0.18355 0.99244 0.0
C401 C 0.14167 0.13841 0.00443 0.0
C402 C 0.18430 0.12368 0.01795 0.0
C403 C 0.22035 0.15347 0.01941 0.0
C404 C 0.32807 0.28655 0.01346 0.0
C405 C 0.36416 0.31631 0.01496 0.0
H406 H 0.31028 0.41072 0.97994 0.0
H407 H 0.24720 0.35828 0.97740 0.0
H408 H 0.16667 0.24787 0.98451 0.0
H409 H 0.10356 0.19595 0.98189 0.0
H410 H 0.18982 0.08912 0.02740 0.0
H411 H 0.25294 0.14155 0.02989 0.0
H412 H 0.33345 0.25199 0.02289 0.0
H413 H 0.39655 0.30394 0.02554 0.0
C414 C 0.35834 0.63844 0.99669 0.0
C415 C 0.31425 0.62225 0.99990 0.0
C416 C 0.27805 0.65190 0.99990 0.0
C417 C 0.28518 0.69810 0.99737 0.0
N418 N 0.24772 0.72723 0.99778 0.0
N419 N 0.25240 0.77293 0.99535 0.0
C420 C 0.21494 0.80205 0.99574 0.0
C421 C 0.17098 0.78563 0.99864 0.0
C422 C 0.13472 0.81522 0.99894 0.0
C423 C 0.14176 0.86167 0.99637 0.0
C424 C 0.18587 0.87789 0.99348 0.0
C425 C 0.22207 0.84825 0.99317 0.0
C426 C 0.32914 0.71452 0.99443 0.0
C427 C 0.36540 0.68493 0.99410 0.0
H428 H 0.30767 0.58667 0.00167 0.0
H429 H 0.24431 0.63884 0.00223 0.0
H430 H 0.16457 0.75003 0.00010 0.0
H431 H 0.10118 0.80166 0.00120 0.0
H432 H 0.19242 0.91348 0.99145 0.0
H433 H 0.25581 0.86132 0.99093 0.0
H434 H 0.33556 0.75012 0.99239 0.0
H435 H 0.39895 0.69846 0.99180 0.0
C436 C 0.63994 0.35983 0.99880 0.0
C437 C 0.65181 0.34381 0.04142 0.0
C438 C 0.68450 0.31065 0.04606 0.0
C439 C 0.70587 0.29294 0.00835 0.0
N440 N 0.73886 0.25936 0.01424 0.0
N441 N 0.76109 0.24057 0.97862 0.0
C442 C 0.79411 0.20700 0.98451 0.0
C443 C 0.80583 0.19119 0.02721 0.0
C444 C 0.83854 0.15804 0.03193 0.0
C445 C 0.86007 0.14016 0.99410 0.0
C446 C 0.84817 0.15615 0.95145 0.0
C447 C 0.81546 0.18928 0.94680 0.0
C448 C 0.69417 0.30879 0.96565 0.0
C449 C 0.66148 0.34195 0.96094 0.0
H450 H 0.63586 0.35687 0.07124 0.0
H451 H 0.69323 0.29870 0.07915 0.0
H452 H 0.78981 0.20435 0.05692 0.0
H453 H 0.84694 0.14645 0.06523 0.0
H454 H 0.86412 0.14306 0.92164 0.0
H455 H 0.80671 0.20121 0.91370 0.0
H456 H 0.71020 0.29564 0.93594 0.0
H457 H 0.65309 0.35358 0.92765 0.0
C458 C 0.86158 0.85852 0.00440 0.0
C459 C 0.87628 0.81592 0.01795 0.0
C460 C 0.84647 0.77988 0.01943 0.0
C461 C 0.80158 0.78570 0.00746 0.0
N462 N 0.77225 0.74845 0.00934 0.0
N463 N 0.72779 0.75188 0.99804 0.0
C464 C 0.69846 0.71463 0.99990 0.0
C465 C 0.71340 0.67215 0.01342 0.0
C466 C 0.68365 0.63605 0.01490 0.0
C467 C 0.63851 0.64177 0.00291 0.0
C468 C 0.62378 0.68440 0.98940 0.0
C469 C 0.65357 0.72045 0.98794 0.0
C470 C 0.78665 0.82817 0.99389 0.0
C471 C 0.81641 0.86426 0.99238 0.0
H472 H 0.91082 0.81038 0.02741 0.0
H473 H 0.85838 0.74730 0.02994 0.0
H474 H 0.74797 0.66677 0.02284 0.0
H475 H 0.69605 0.60366 0.02545 0.0
H476 H 0.58922 0.68992 0.97995 0.0
H477 H 0.64165 0.75304 0.97745 0.0
H478 H 0.75208 0.83355 0.98446 0.0
H479 H 0.80404 0.89665 0.98180 0.0
C480 C 0.63853 0.49761 0.85850 0.0
C481 C 0.62357 0.51123 0.81602 0.0
C482 C 0.65334 0.51361 0.78000 0.0
C483 C 0.69846 0.50247 0.78572 0.0
N484 N 0.72774 0.50525 0.74850 0.0
N485 N 0.77242 0.49479 0.75184 0.0
C486 C 0.80170 0.49754 0.71461 0.0
C487 C 0.78650 0.51114 0.67224 0.0
C488 C 0.81621 0.51352 0.63616 0.0
C489 C 0.86158 0.50236 0.64179 0.0
C490 C 0.87658 0.48877 0.68430 0.0
C491 C 0.84682 0.48641 0.72033 0.0
C492 C 0.71365 0.48882 0.82808 0.0
C493 C 0.68392 0.48642 0.86414 0.0
H494 H 0.58885 0.52007 0.81056 0.0
H495 H 0.64123 0.52418 0.74751 0.0
H496 H 0.75175 0.51993 0.66694 0.0
H497 H 0.80361 0.52411 0.60387 0.0
H498 H 0.91131 0.47995 0.68975 0.0
H499 H 0.85894 0.47588 0.75283 0.0
H500 H 0.74839 0.48002 0.83338 0.0
H501 H 0.69650 0.47580 0.89644 0.0
C502 C 0.13857 0.49671 0.64169 0.0
C503 C 0.12244 0.49384 0.68580 0.0
C504 C 0.15209 0.49440 0.72200 0.0
C505 C 0.19823 0.49783 0.71484 0.0
N506 N 0.22735 0.49831 0.75229 0.0
N507 N 0.27300 0.50161 0.74759 0.0
C508 C 0.30212 0.50211 0.78504 0.0
C509 C 0.28576 0.49927 0.82903 0.0
C510 C 0.31535 0.49985 0.86529 0.0
C511 C 0.36175 0.50329 0.85822 0.0
C512 C 0.37790 0.50612 0.81409 0.0
C513 C 0.34826 0.50553 0.77788 0.0
C514 C 0.21459 0.50072 0.67085 0.0
C515 C 0.18499 0.50016 0.63460 0.0
H516 H 0.08691 0.49115 0.69240 0.0
H517 H 0.13907 0.49215 0.75576 0.0
H518 H 0.25021 0.49660 0.83547 0.0
H519 H 0.30184 0.49761 0.89885 0.0
H520 H 0.41345 0.50880 0.80750 0.0
H521 H 0.36129 0.50775 0.74412 0.0
H522 H 0.25014 0.50341 0.66441 0.0
H523 H 0.19847 0.50244 0.60103 0.0
C524 C 0.14042 0.50537 0.36011 0.0
C525 C 0.15889 0.54733 0.34949 0.0
C526 C 0.19230 0.55100 0.31694 0.0
C527 C 0.20784 0.51298 0.29447 0.0
N528 N 0.24176 0.51789 0.26166 0.0
N529 N 0.25850 0.48191 0.23838 0.0
C530 C 0.29240 0.48683 0.20555 0.0
C531 C 0.31067 0.52887 0.19508 0.0
C532 C 0.34407 0.53263 0.16252 0.0
C533 C 0.35978 0.49449 0.13988 0.0
C534 C 0.34135 0.45249 0.15053 0.0
C535 C 0.30795 0.44880 0.18310 0.0
C536 C 0.18955 0.47094 0.30491 0.0
C537 C 0.15612 0.46719 0.33745 0.0
H538 H 0.14754 0.57736 0.36630 0.0
H539 H 0.20615 0.58359 0.30918 0.0
H540 H 0.29921 0.55881 0.21197 0.0
H541 H 0.35757 0.56544 0.15510 0.0
H542 H 0.35271 0.42246 0.13371 0.0
H543 H 0.29413 0.41620 0.19087 0.0
H544 H 0.20099 0.44100 0.28801 0.0
H545 H 0.14258 0.43439 0.34487 0.0
C546 C 0.64169 0.50325 0.13857 0.0
C547 C 0.68582 0.50547 0.12240 0.0
C548 C 0.72202 0.50483 0.15204 0.0
C549 C 0.71484 0.50198 0.19822 0.0
N550 N 0.75230 0.50141 0.22734 0.0
N551 N 0.74758 0.49867 0.27302 0.0
C552 C 0.78503 0.49808 0.30213 0.0
C553 C 0.82905 0.50026 0.28573 0.0
C554 C 0.86531 0.49960 0.31531 0.0
C555 C 0.85822 0.49675 0.36175 0.0
C556 C 0.81406 0.49458 0.37795 0.0
C557 C 0.77785 0.49524 0.34831 0.0
C558 C 0.67083 0.49976 0.21462 0.0
C559 C 0.63458 0.50039 0.18503 0.0
H560 H 0.69244 0.50769 0.08683 0.0
H561 H 0.75580 0.50656 0.13899 0.0
H562 H 0.83550 0.50246 0.25015 0.0
H563 H 0.89889 0.50132 0.30178 0.0
H564 H 0.80746 0.49237 0.41352 0.0
H565 H 0.74408 0.49354 0.36137 0.0
H566 H 0.66438 0.49754 0.25020 0.0
H567 H 0.60099 0.49864 0.19854 0.0
C568 C 0.36023 0.85979 0.50086 0.0
C569 C 0.35188 0.84144 0.45834 0.0
C570 C 0.31957 0.80804 0.45283 0.0
C571 C 0.29510 0.79239 0.48955 0.0
N572 N 0.26260 0.75849 0.48279 0.0
N573 N 0.23743 0.74165 0.51742 0.0
C574 C 0.20491 0.70777 0.51065 0.0
C575 C 0.19671 0.68962 0.46805 0.0
C576 C 0.16440 0.65623 0.46246 0.0
C577 C 0.13975 0.64041 0.49929 0.0
C578 C 0.14813 0.65873 0.54185 0.0
C579 C 0.18045 0.69211 0.54737 0.0
C580 C 0.30327 0.81057 0.53214 0.0
C581 C 0.33556 0.84398 0.53772 0.0
H582 H 0.37028 0.85287 0.42928 0.0
H583 H 0.31358 0.79428 0.41983 0.0
H584 H 0.21518 0.70116 0.43910 0.0
H585 H 0.15875 0.64282 0.42926 0.0
H586 H 0.12972 0.64728 0.57090 0.0
H587 H 0.18646 0.70584 0.58038 0.0
H588 H 0.28479 0.79904 0.56109 0.0
H589 H 0.34120 0.85742 0.57091 0.0
C590 C 0.14045 0.36026 0.50087 0.0
C591 C 0.15945 0.35256 0.45851 0.0
C592 C 0.19292 0.32033 0.45302 0.0
C593 C 0.20799 0.29528 0.48960 0.0
N594 N 0.24198 0.26287 0.48286 0.0
N595 N 0.25828 0.23716 0.51735 0.0
C596 C 0.29225 0.20473 0.51060 0.0
C597 C 0.31105 0.19718 0.46817 0.0
C598 C 0.34452 0.16494 0.46259 0.0
C599 C 0.35975 0.13972 0.49928 0.0
C600 C 0.34078 0.14745 0.54168 0.0
C601 C 0.30733 0.17969 0.54718 0.0
C602 C 0.18916 0.30280 0.53202 0.0
C603 C 0.15568 0.33502 0.53759 0.0
H604 H 0.14848 0.37142 0.42957 0.0
H605 H 0.20718 0.31484 0.42015 0.0
H606 H 0.29997 0.21610 0.43933 0.0
H607 H 0.35843 0.15980 0.42952 0.0
H608 H 0.35178 0.12858 0.57061 0.0
H609 H 0.29309 0.18520 0.58006 0.0
H610 H 0.20023 0.28387 0.56086 0.0
H611 H 0.14172 0.34015 0.57064 0.0
C612 C 0.86163 0.64168 0.50289 0.0
C613 C 0.87783 0.68565 0.49860 0.0
C614 C 0.84819 0.72184 0.49723 0.0
C615 C 0.80199 0.71480 0.50012 0.0
N616 N 0.77287 0.75223 0.49863 0.0
N617 N 0.72718 0.74764 0.50129 0.0
C618 C 0.69806 0.78508 0.49983 0.0
C619 C 0.71449 0.82893 0.49557 0.0
C620 C 0.68490 0.86518 0.49423 0.0
C621 C 0.63845 0.85823 0.49711 0.0
C622 C 0.62223 0.81423 0.50136 0.0
C623 C 0.65186 0.77804 0.50270 0.0
C624 C 0.78557 0.67095 0.50442 0.0
C625 C 0.81515 0.63471 0.50579 0.0
H626 H 0.91341 0.69216 0.49629 0.0
H627 H 0.86125 0.75549 0.49391 0.0
H628 H 0.75008 0.83527 0.49329 0.0
H629 H 0.69846 0.89863 0.49093 0.0
H630 H 0.58664 0.80775 0.50366 0.0
H631 H 0.63879 0.74439 0.50599 0.0
H632 H 0.74997 0.66461 0.50672 0.0
H633 H 0.80162 0.60125 0.50912 0.0
C634 C 0.64044 0.13988 0.50534 0.0
C635 C 0.66111 0.14827 0.54677 0.0
C636 C 0.69477 0.18058 0.55039 0.0
C637 C 0.70836 0.20501 0.51283 0.0
N638 N 0.74258 0.23752 0.51767 0.0
N639 N 0.75747 0.26265 0.48213 0.0
C640 C 0.79167 0.29518 0.48698 0.0
C641 C 0.81216 0.30342 0.52849 0.0
C642 C 0.84581 0.33574 0.53219 0.0
C643 C 0.85956 0.36034 0.49451 0.0
C644 C 0.83891 0.35192 0.45304 0.0
C645 C 0.80527 0.31960 0.44941 0.0
C646 C 0.68785 0.19680 0.47132 0.0
C647 C 0.65418 0.16450 0.46763 0.0
H648 H 0.65131 0.12990 0.57643 0.0
H649 H 0.71033 0.18661 0.58257 0.0
H650 H 0.80224 0.28498 0.55806 0.0
H651 H 0.86103 0.34142 0.56459 0.0
H652 H 0.84873 0.37030 0.42339 0.0
H653 H 0.78974 0.31355 0.41722 0.0
H654 H 0.69775 0.21525 0.44175 0.0
H655 H 0.63891 0.15883 0.43525 0.0
C656 C 0.50459 0.35850 0.86149 0.0
C657 C 0.52366 0.31752 0.87458 0.0
C658 C 0.52573 0.28165 0.84460 0.0
C659 C 0.50884 0.28603 0.80115 0.0
N660 N 0.51147 0.24900 0.77160 0.0
N661 N 0.49551 0.25107 0.72850 0.0
C662 C 0.49816 0.21405 0.69894 0.0
C663 C 0.51731 0.17322 0.71224 0.0
C664 C 0.51943 0.13730 0.68230 0.0
C665 C 0.50248 0.14158 0.63861 0.0
C666 C 0.48335 0.18256 0.62552 0.0
C667 C 0.48126 0.21843 0.65550 0.0
C668 C 0.48973 0.32688 0.78784 0.0
C669 C 0.48763 0.36280 0.81777 0.0
H670 H 0.53701 0.31312 0.90798 0.0
H671 H 0.54054 0.25033 0.85525 0.0
H672 H 0.53062 0.16898 0.74566 0.0
H673 H 0.53437 0.10620 0.69341 0.0
H674 H 0.47000 0.18694 0.59211 0.0
H675 H 0.46642 0.24974 0.64486 0.0
H676 H 0.47643 0.33113 0.75441 0.0
H677 H 0.47273 0.39392 0.80667 0.0
C678 C 0.49461 0.85907 0.63908 0.0
C679 C 0.46045 0.82698 0.63488 0.0
C680 C 0.45674 0.79208 0.66583 0.0
C681 C 0.48697 0.78859 0.70141 0.0
N682 N 0.48225 0.75279 0.73219 0.0
N683 N 0.51081 0.74743 0.76785 0.0
C684 C 0.50608 0.71164 0.79864 0.0
C685 C 0.47183 0.67971 0.79426 0.0
C686 C 0.46804 0.64479 0.82519 0.0
C687 C 0.49837 0.64117 0.86098 0.0
C688 C 0.53258 0.67325 0.86517 0.0
C689 C 0.53632 0.70814 0.83422 0.0
C690 C 0.52119 0.82054 0.70582 0.0
C691 C 0.52495 0.85547 0.67490 0.0
H692 H 0.43655 0.82880 0.60769 0.0
H693 H 0.43022 0.76765 0.66208 0.0
H694 H 0.44801 0.68167 0.76703 0.0
H695 H 0.44134 0.62064 0.82103 0.0
H696 H 0.55648 0.67141 0.89236 0.0
H697 H 0.56286 0.73255 0.83795 0.0
H698 H 0.54500 0.81859 0.73305 0.0
H699 H 0.55163 0.87966 0.67907 0.0
C700 C 0.50129 0.64010 0.14010 0.0
C701 C 0.45859 0.65505 0.15305 0.0
C702 C 0.45395 0.68807 0.18588 0.0
C703 C 0.49173 0.70672 0.20631 0.0
N704 N 0.48582 0.74014 0.23946 0.0
N705 N 0.52151 0.75980 0.26082 0.0
C706 C 0.51560 0.79324 0.29396 0.0
C707 C 0.47283 0.80805 0.30670 0.0
C708 C 0.46811 0.84109 0.33951 0.0
C709 C 0.50600 0.85990 0.36012 0.0
C710 C 0.54873 0.84492 0.34720 0.0
C711 C 0.55338 0.81188 0.31440 0.0
C712 C 0.53450 0.69195 0.19353 0.0
C713 C 0.53922 0.65892 0.16071 0.0
H714 H 0.42873 0.64125 0.13785 0.0
H715 H 0.42079 0.69919 0.19544 0.0
H716 H 0.44307 0.79416 0.29140 0.0
H717 H 0.43475 0.85189 0.34870 0.0
H718 H 0.57859 0.85872 0.36243 0.0
H719 H 0.58654 0.80074 0.30486 0.0
H720 H 0.56426 0.70584 0.20883 0.0
H721 H 0.57257 0.64813 0.15148 0.0
C722 C 0.49871 0.14020 0.35999 0.0
C723 C 0.54141 0.15509 0.34699 0.0
C724 C 0.54605 0.18811 0.31416 0.0
C725 C 0.50827 0.20680 0.29378 0.0
N726 N 0.51418 0.24021 0.26061 0.0
N727 N 0.47849 0.25993 0.23930 0.0
C728 C 0.48439 0.29336 0.20615 0.0
C729 C 0.52717 0.30810 0.19336 0.0
C730 C 0.53190 0.34114 0.16055 0.0
C731 C 0.49400 0.36000 0.13998 0.0
C732 C 0.45127 0.34508 0.15296 0.0
C733 C 0.44661 0.31204 0.18577 0.0
C734 C 0.46549 0.19209 0.30661 0.0
C735 C 0.46078 0.15907 0.33944 0.0
H736 H 0.57128 0.14125 0.36215 0.0
H737 H 0.57921 0.19917 0.30455 0.0
H738 H 0.55693 0.29418 0.20862 0.0
H739 H 0.56525 0.35190 0.15131 0.0
H740 H 0.42141 0.35892 0.13777 0.0
H741 H 0.41346 0.30095 0.19535 0.0
H742 H 0.43573 0.20602 0.29135 0.0
H743 H 0.42742 0.14832 0.34871 0.0
loop_
_geom_bond_atom_site_label_1
_geom_bond_atom_site_label_2
_geom_bond_distance
_geom_bond_site_symmetry_2
_ccdc_geom_bond_type
Zr0 O1 2.256 1_545 S
Zr0 O3 2.064 . S
Zr0 O9 2.064 1_544 S
Zr0 O10 2.256 1_554 S
Zr0 O30 2.216 1_544 S
Zr0 O31 2.216 1_544 S
Zr0 O39 2.216 . S
Zr0 O40 2.216 . S
O1 Zr0 2.256 1_565 S
O1 Zr2 2.256 . S
O1 Zr4 2.256 1_565 S
O1 H8 0.974 . S
Zr2 O1 2.256 . S
Zr2 O9 2.064 1_554 S
Zr2 O11 2.256 1_454 S
Zr2 O12 2.064 1_455 S
Zr2 O33 2.216 1_554 S
Zr2 O35 2.216 1_554 S
Zr2 O36 2.216 1_455 S
Zr2 O38 2.216 1_455 S
O3 Zr0 2.064 . S
O3 Zr4 2.064 . S
O3 Zr6 2.064 . S
Zr4 O1 2.256 1_545 S
Zr4 O3 2.064 . S
Zr4 O12 2.064 1_445 S
Zr4 O15 2.256 1_455 S
Zr4 O42 2.216 1_445 S
Zr4 O46 2.216 . S
Zr4 O49 2.216 . S
Zr4 O51 2.216 1_445 S
Zr5 O9 2.064 1_545 S
Zr5 O10 2.256 . S
Zr5 O11 2.256 1_445 S
Zr5 O13 2.064 1_455 S
Zr5 O32 2.216 1_545 S
Zr5 O34 2.216 1_545 S
Zr5 O37 2.216 1_455 S
Zr5 O41 2.216 1_455 S
Zr6 O3 2.064 . S
Zr6 O10 2.256 1_554 S
Zr6 O13 2.064 1_454 S
Zr6 O15 2.256 1_455 S
Zr6 O45 2.216 . S
Zr6 O47 2.216 1_454 S
Zr6 O48 2.216 . S
Zr6 O50 2.216 1_454 S
H7 O10 0.974 . S
H8 O1 0.974 . S
O9 Zr0 2.064 1_566 S
O9 Zr2 2.064 1_556 S
O9 Zr5 2.064 1_565 S
O10 Zr0 2.256 1_556 S
O10 Zr5 2.256 . S
O10 Zr6 2.256 1_556 S
O10 H7 0.974 . S
O11 Zr2 2.256 1_656 S
O11 Zr5 2.256 1_665 S
O11 Zr14 2.256 1_566 S
O11 H16 0.974 . S
O12 Zr2 2.064 1_655 S
O12 Zr4 2.064 1_665 S
O12 Zr14 2.064 1_565 S
O13 Zr5 2.064 1_655 S
O13 Zr6 2.064 1_656 S
O13 Zr14 2.064 1_556 S
Zr14 O11 2.256 1_544 S
Zr14 O12 2.064 1_545 S
Zr14 O13 2.064 1_554 S
Zr14 O15 2.256 . S
Zr14 O43 2.216 1_554 S
Zr14 O44 2.216 1_545 S
Zr14 O52 2.216 1_554 S
Zr14 O53 2.216 1_545 S
O15 Zr4 2.256 1_655 S
O15 Zr6 2.256 1_655 S
O15 Zr14 2.256 . S
O15 H17 0.974 . S
H16 O11 0.974 . S
H17 O15 0.974 . S
C18 O30 1.278 . S
C18 O32 1.278 . S
C19 O31 1.278 . S
C19 O33 1.278 . S
C20 O34 1.278 . S
C20 O35 1.278 . S
C21 O36 1.278 . S
C21 O42 1.278 . S
C22 O37 1.278 . S
C22 O43 1.278 . S
C23 O38 1.278 . S
C23 O44 1.278 . S
C24 O41 1.278 . S
C24 O47 1.278 . S
C25 O39 1.278 . S
C25 O45 1.278 . S
C26 O40 1.278 . S
C26 O46 1.278 . S
C27 O48 1.278 . S
C27 O49 1.278 . S
C28 O50 1.278 . S
C28 O52 1.278 . S
C29 O51 1.278 . S
C29 O53 1.278 . S
O30 Zr0 2.216 1_566 S
O30 C18 1.278 . S
O31 Zr0 2.216 1_566 S
O31 C19 1.278 . S
O32 Zr5 2.216 1_565 S
O32 C18 1.278 . S
O33 Zr2 2.216 1_556 S
O33 C19 1.278 . S
O34 Zr5 2.216 1_565 S
O34 C20 1.278 . S
O35 Zr2 2.216 1_556 S
O35 C20 1.278 . S
O36 Zr2 2.216 1_655 S
O36 C21 1.278 . S
O37 Zr5 2.216 1_655 S
O37 C22 1.278 . S
O38 Zr2 2.216 1_655 S
O38 C23 1.278 . S
O39 Zr0 2.216 . S
O39 C25 1.278 . S
O40 Zr0 2.216 . S
O40 C26 1.278 . S
O41 Zr5 2.216 1_655 S
O41 C24 1.278 . S
O42 Zr4 2.216 1_665 S
O42 C21 1.278 . S
O43 Zr14 2.216 1_556 S
O43 C22 1.278 . S
O44 Zr14 2.216 1_565 S
O44 C23 1.278 . S
O45 Zr6 2.216 . S
O45 C25 1.278 . S
O46 Zr4 2.216 . S
O46 C26 1.278 . S
O47 Zr6 2.216 1_656 S
O47 C24 1.278 . S
O48 Zr6 2.216 . S
O48 C27 1.278 . S
O49 Zr4 2.216 . S
O49 C27 1.278 . S
O50 Zr6 2.216 1_656 S
O50 C28 1.278 . S
O51 Zr4 2.216 1_665 S
O51 C29 1.278 . S
O52 Zr14 2.216 1_556 S
O52 C28 1.278 . S
O53 Zr14 2.216 1_565 S
O53 C29 1.278 . S
Zr54 O55 2.256 . S
Zr54 O57 2.064 . S
Zr54 O63 2.064 . S
Zr54 O64 2.256 . S
Zr54 O84 2.216 . S
Zr54 O85 2.216 . S
Zr54 O93 2.216 . S
Zr54 O94 2.216 . S
O55 Zr54 2.256 . S
O55 Zr56 2.256 1_655 S
O55 Zr58 2.256 1_655 S
O55 H62 0.974 . S
Zr56 O55 2.256 1_455 S
Zr56 O63 2.064 1_455 S
Zr56 O65 2.256 . S
Zr56 O66 2.064 . S
Zr56 O87 2.216 1_455 S
Zr56 O89 2.216 1_455 S
Zr56 O90 2.216 . S
Zr56 O92 2.216 . S
O57 Zr54 2.064 . S
O57 Zr58 2.064 1_655 S
O57 Zr60 2.064 1_655 S
Zr58 O55 2.256 1_455 S
Zr58 O57 2.064 1_455 S
Zr58 O66 2.064 . S
Zr58 O69 2.256 . S
Zr58 O96 2.216 . S
Zr58 O100 2.216 1_455 S
Zr58 O103 2.216 1_455 S
Zr58 O105 2.216 . S
Zr59 O63 2.064 1_455 S
Zr59 O64 2.256 1_455 S
Zr59 O65 2.256 . S
Zr59 O67 2.064 . S
Zr59 O86 2.216 1_455 S
Zr59 O88 2.216 1_455 S
Zr59 O91 2.216 . S
Zr59 O95 2.216 . S
Zr60 O57 2.064 1_455 S
Zr60 O64 2.256 1_455 S
Zr60 O67 2.064 . S
Zr60 O69 2.256 . S
Zr60 O99 2.216 1_455 S
Zr60 O101 2.216 . S
Zr60 O102 2.216 1_455 S
Zr60 O104 2.216 . S
H61 O64 0.974 . S
H62 O55 0.974 . S
O63 Zr54 2.064 . S
O63 Zr56 2.064 1_655 S
O63 Zr59 2.064 1_655 S
O64 Zr54 2.256 . S
O64 Zr59 2.256 1_655 S
O64 Zr60 2.256 1_655 S
O64 H61 0.974 . S
O65 Zr56 2.256 . S
O65 Zr59 2.256 . S
O65 Zr68 2.256 . S
O65 H70 0.974 . S
O66 Zr56 2.064 . S
O66 Zr58 2.064 . S
O66 Zr68 2.064 . S
O67 Zr59 2.064 . S
O67 Zr60 2.064 . S
O67 Zr68 2.064 . S
Zr68 O65 2.256 . S
Zr68 O66 2.064 . S
Zr68 O67 2.064 . S
Zr68 O69 2.256 . S
Zr68 O97 2.216 . S
Zr68 O98 2.216 . S
Zr68 O106 2.216 . S
Zr68 O107 2.216 . S
O69 Zr58 2.256 . S
O69 Zr60 2.256 . S
O69 Zr68 2.256 . S
O69 H71 0.974 . S
H70 O65 0.974 . S
H71 O69 0.974 . S
C72 O84 1.278 . S
C72 O86 1.278 . S
C73 O85 1.278 . S
C73 O87 1.278 . S
C74 O88 1.278 . S
C74 O89 1.278 . S
C75 O90 1.278 . S
C75 O96 1.278 . S
C76 O91 1.278 . S
C76 O97 1.278 . S
C77 O92 1.278 . S
C77 O98 1.278 . S
C78 O95 1.278 . S
C78 O101 1.278 . S
C79 O93 1.278 . S
C79 O99 1.278 . S
C80 O94 1.278 . S
C80 O100 1.278 . S
C81 O102 1.278 . S
C81 O103 1.278 . S
C82 O104 1.278 . S
C82 O106 1.278 . S
C83 O105 1.278 . S
C83 O107 1.278 . S
O84 Zr54 2.216 . S
O84 C72 1.278 . S
O85 Zr54 2.216 . S
O85 C73 1.278 . S
O86 Zr59 2.216 1_655 S
O86 C72 1.278 . S
O87 Zr56 2.216 1_655 S
O87 C73 1.278 . S
O88 Zr59 2.216 1_655 S
O88 C74 1.278 . S
O89 Zr56 2.216 1_655 S
O89 C74 1.278 . S
O90 Zr56 2.216 . S
O90 C75 1.278 . S
O91 Zr59 2.216 . S
O91 C76 1.278 . S
O92 Zr56 2.216 . S
O92 C77 1.278 . S
O93 Zr54 2.216 . S
O93 C79 1.278 . S
O94 Zr54 2.216 . S
O94 C80 1.278 . S
O95 Zr59 2.216 . S
O95 C78 1.278 . S
O96 Zr58 2.216 . S
O96 C75 1.278 . S
O97 Zr68 2.216 . S
O97 C76 1.278 . S
O98 Zr68 2.216 . S
O98 C77 1.278 . S
O99 Zr60 2.216 1_655 S
O99 C79 1.278 . S
O100 Zr58 2.216 1_655 S
O100 C80 1.278 . S
O101 Zr60 2.216 . S
O101 C78 1.278 . S
O102 Zr60 2.216 1_655 S
O102 C81 1.278 . S
O103 Zr58 2.216 1_655 S
O103 C81 1.278 . S
O104 Zr60 2.216 . S
O104 C82 1.278 . S
O105 Zr58 2.216 . S
O105 C83 1.278 . S
O106 Zr68 2.216 . S
O106 C82 1.278 . S
O107 Zr68 2.216 . S
O107 C83 1.278 . S
Zr108 O109 2.256 1_545 S
Zr108 O111 2.064 . S
Zr108 O117 2.064 1_545 S
Zr108 O118 2.256 . S
Zr108 O138 2.216 1_545 S
Zr108 O139 2.216 1_545 S
Zr108 O147 2.216 . S
Zr108 O148 2.216 . S
O109 Zr108 2.256 1_565 S
O109 Zr110 2.256 . S
O109 Zr112 2.256 1_565 S
O109 H116 0.974 . S
Zr110 O109 2.256 . S
Zr110 O117 2.064 . S
Zr110 O119 2.256 . S
Zr110 O120 2.064 . S
Zr110 O141 2.216 . S
Zr110 O143 2.216 . S
Zr110 O144 2.216 . S
Zr110 O146 2.216 . S
O111 Zr108 2.064 . S
O111 Zr112 2.064 . S
O111 Zr114 2.064 . S
Zr112 O109 2.256 1_545 S
Zr112 O111 2.064 . S
Zr112 O120 2.064 1_545 S
Zr112 O123 2.256 . S
Zr112 O150 2.216 1_545 S
Zr112 O154 2.216 . S
Zr112 O157 2.216 . S
Zr112 O159 2.216 1_545 S
Zr113 O117 2.064 1_545 S
Zr113 O118 2.256 . S
Zr113 O119 2.256 1_545 S
Zr113 O121 2.064 . S
Zr113 O140 2.216 1_545 S
Zr113 O142 2.216 1_545 S
Zr113 O145 2.216 . S
Zr113 O149 2.216 . S
Zr114 O111 2.064 . S
Zr114 O118 2.256 . S
Zr114 O121 2.064 . S
Zr114 O123 2.256 . S
Zr114 O153 2.216 . S
Zr114 O155 2.216 . S
Zr114 O156 2.216 . S
Zr114 O158 2.216 . S
H115 O118 0.974 . S
H116 O109 0.974 . S
O117 Zr108 2.064 1_565 S
O117 Zr110 2.064 . S
O117 Zr113 2.064 1_565 S
O118 Zr108 2.256 . S
O118 Zr113 2.256 . S
O118 Zr114 2.256 . S
O118 H115 0.974 . S
O119 Zr110 2.256 . S
O119 Zr113 2.256 1_565 S
O119 Zr122 2.256 1_565 S
O119 H124 0.974 . S
O120 Zr110 2.064 . S
O120 Zr112 2.064 1_565 S
O120 Zr122 2.064 1_565 S
O121 Zr113 2.064 . S
O121 Zr114 2.064 . S
O121 Zr122 2.064 . S
Zr122 O119 2.256 1_545 S
Zr122 O120 2.064 1_545 S
Zr122 O121 2.064 . S
Zr122 O123 2.256 . S
Zr122 O151 2.216 . S
Zr122 O152 2.216 1_545 S
Zr122 O160 2.216 . S
Zr122 O161 2.216 1_545 S
O123 Zr112 2.256 . S
O123 Zr114 2.256 . S
O123 Zr122 2.256 . S
O123 H125 0.974 . S
H124 O119 0.974 . S
H125 O123 0.974 . S
C126 O138 1.278 . S
C126 O140 1.278 . S
C127 O139 1.278 . S
C127 O141 1.278 . S
C128 O142 1.278 . S
C128 O143 1.278 . S
C129 O144 1.278 . S
C129 O150 1.278 . S
C130 O145 1.278 . S
C130 O151 1.278 . S
C131 O146 1.278 . S
C131 O152 1.278 . S
C132 O149 1.278 . S
C132 O155 1.278 . S
C133 O147 1.278 . S
C133 O153 1.278 . S
C134 O148 1.278 . S
C134 O154 1.278 . S
C135 O156 1.278 . S
C135 O157 1.278 . S
C136 O158 1.278 . S
C136 O160 1.278 . S
C137 O159 1.278 . S
C137 O161 1.278 . S
O138 Zr108 2.216 1_565 S
O138 C126 1.278 . S
O139 Zr108 2.216 1_565 S
O139 C127 1.278 . S
O140 Zr113 2.216 1_565 S
O140 C126 1.278 . S
O141 Zr110 2.216 . S
O141 C127 1.278 . S
O142 Zr113 2.216 1_565 S
O142 C128 1.278 . S
O143 Zr110 2.216 . S
O143 C128 1.278 . S
O144 Zr110 2.216 . S
O144 C129 1.278 . S
O145 Zr113 2.216 . S
O145 C130 1.278 . S
O146 Zr110 2.216 . S
O146 C131 1.278 . S
O147 Zr108 2.216 . S
O147 C133 1.278 . S
O148 Zr108 2.216 . S
O148 C134 1.278 . S
O149 Zr113 2.216 . S
O149 C132 1.278 . S
O150 Zr112 2.216 1_565 S
O150 C129 1.278 . S
O151 Zr122 2.216 . S
O151 C130 1.278 . S
O152 Zr122 2.216 1_565 S
O152 C131 1.278 . S
O153 Zr114 2.216 . S
O153 C133 1.278 . S
O154 Zr112 2.216 . S
O154 C134 1.278 . S
O155 Zr114 2.216 . S
O155 C132 1.278 . S
O156 Zr114 2.216 . S
O156 C135 1.278 . S
O157 Zr112 2.216 . S
O157 C135 1.278 . S
O158 Zr114 2.216 . S
O158 C136 1.278 . S
O159 Zr112 2.216 1_565 S
O159 C137 1.278 . S
O160 Zr122 2.216 . S
O160 C136 1.278 . S
O161 Zr122 2.216 1_565 S
O161 C137 1.278 . S
Zr162 O163 2.256 . S
Zr162 O165 2.064 . S
Zr162 O171 2.064 1_554 S
Zr162 O172 2.256 1_554 S
Zr162 O192 2.216 1_554 S
Zr162 O193 2.216 1_554 S
Zr162 O201 2.216 . S
Zr162 O202 2.216 . S
O163 Zr162 2.256 . S
O163 Zr164 2.256 . S
O163 Zr166 2.256 . S
O163 H170 0.974 . S
Zr164 O163 2.256 . S
Zr164 O171 2.064 1_554 S
Zr164 O173 2.256 1_554 S
Zr164 O174 2.064 . S
Zr164 O195 2.216 1_554 S
Zr164 O197 2.216 1_554 S
Zr164 O198 2.216 . S
Zr164 O200 2.216 . S
O165 Zr162 2.064 . S
O165 Zr166 2.064 . S
O165 Zr168 2.064 . S
Zr166 O163 2.256 . S
Zr166 O165 2.064 . S
Zr166 O174 2.064 . S
Zr166 O177 2.256 . S
Zr166 O204 2.216 . S
Zr166 O208 2.216 . S
Zr166 O211 2.216 . S
Zr166 O213 2.216 . S
Zr167 O171 2.064 . S
Zr167 O172 2.256 . S
Zr167 O173 2.256 . S
Zr167 O175 2.064 . S
Zr167 O194 2.216 . S
Zr167 O196 2.216 . S
Zr167 O199 2.216 . S
Zr167 O203 2.216 . S
Zr168 O165 2.064 . S
Zr168 O172 2.256 1_554 S
Zr168 O175 2.064 1_554 S
Zr168 O177 2.256 . S
Zr168 O207 2.216 . S
Zr168 O209 2.216 1_554 S
Zr168 O210 2.216 . S
Zr168 O212 2.216 1_554 S
H169 O172 0.974 . S
H170 O163 0.974 . S
O171 Zr162 2.064 1_556 S
O171 Zr164 2.064 1_556 S
O171 Zr167 2.064 . S
O172 Zr162 2.256 1_556 S
O172 Zr167 2.256 . S
O172 Zr168 2.256 1_556 S
O172 H169 0.974 . S
O173 Zr164 2.256 1_556 S
O173 Zr167 2.256 . S
O173 Zr176 2.256 1_556 S
O173 H178 0.974 . S
O174 Zr164 2.064 . S
O174 Zr166 2.064 . S
O174 Zr176 2.064 . S
O175 Zr167 2.064 . S
O175 Zr168 2.064 1_556 S
O175 Zr176 2.064 1_556 S
Zr176 O173 2.256 1_554 S
Zr176 O174 2.064 . S
Zr176 O175 2.064 1_554 S
Zr176 O177 2.256 . S
Zr176 O205 2.216 1_554 S
Zr176 O206 2.216 . S
Zr176 O214 2.216 1_554 S
Zr176 O215 2.216 . S
O177 Zr166 2.256 . S
O177 Zr168 2.256 . S
O177 Zr176 2.256 . S
O177 H179 0.974 . S
H178 O173 0.974 . S
H179 O177 0.974 . S
C180 O192 1.278 . S
C180 O194 1.278 . S
C181 O193 1.278 . S
C181 O195 1.278 . S
C182 O196 1.278 . S
C182 O197 1.278 . S
C183 O198 1.278 . S
C183 O204 1.278 . S
C184 O199 1.278 . S
C184 O205 1.278 . S
C185 O200 1.278 . S
C185 O206 1.278 . S
C186 O203 1.278 . S
C186 O209 1.278 . S
C187 O201 1.278 . S
C187 O207 1.278 . S
C188 O202 1.278 . S
C188 O208 1.278 . S
C189 O210 1.278 . S
C189 O211 1.278 . S
C190 O212 1.278 . S
C190 O214 1.278 . S
C191 O213 1.278 . S
C191 O215 1.278 . S
O192 Zr162 2.216 1_556 S
O192 C180 1.278 . S
O193 Zr162 2.216 1_556 S
O193 C181 1.278 . S
O194 Zr167 2.216 . S
O194 C180 1.278 . S
O195 Zr164 2.216 1_556 S
O195 C181 1.278 . S
O196 Zr167 2.216 . S
O196 C182 1.278 . S
O197 Zr164 2.216 1_556 S
O197 C182 1.278 . S
O198 Zr164 2.216 . S
O198 C183 1.278 . S
O199 Zr167 2.216 . S
O199 C184 1.278 . S
O200 Zr164 2.216 . S
O200 C185 1.278 . S
O201 Zr162 2.216 . S
O201 C187 1.278 . S
O202 Zr162 2.216 . S
O202 C188 1.278 . S
O203 Zr167 2.216 . S
O203 C186 1.278 . S
O204 Zr166 2.216 . S
O204 C183 1.278 . S
O205 Zr176 2.216 1_556 S
O205 C184 1.278 . S
O206 Zr176 2.216 . S
O206 C185 1.278 . S
O207 Zr168 2.216 . S
O207 C187 1.278 . S
O208 Zr166 2.216 . S
O208 C188 1.278 . S
O209 Zr168 2.216 1_556 S
O209 C186 1.278 . S
O210 Zr168 2.216 . S
O210 C189 1.278 . S
O211 Zr166 2.216 . S
O211 C189 1.278 . S
O212 Zr168 2.216 1_556 S
O212 C190 1.278 . S
O213 Zr166 2.216 . S
O213 C191 1.278 . S
O214 Zr176 2.216 1_556 S
O214 C190 1.278 . S
O215 Zr176 2.216 . S
O215 C191 1.278 . S
C216 C217 1.406 1_455 S
C216 C229 1.407 . S
C217 C218 1.398 . S
C217 H230 1.083 . S
C218 C219 1.399 . S
C218 H231 1.083 . S
C219 N220 1.418 . S
C219 C228 1.405 1_655 S
N220 N221 1.374 1_655 S
N221 C222 1.418 . S
C222 C223 1.405 1_455 S
C222 C227 1.399 . S
C223 C224 1.398 . S
C223 H232 1.082 . S
C224 C225 1.419 . S
C224 H233 1.083 . S
C225 C226 1.391 1_655 S
C226 C227 1.398 . S
C226 H234 1.083 . S
C227 H235 1.083 . S
C228 C229 1.398 . S
C228 H236 1.082 . S
C229 H237 1.083 . S
C238 C239 1.406 1_565 S
C238 C251 1.407 . S
C239 C240 1.398 . S
C239 H252 1.083 . S
C240 C241 1.399 . S
C240 H253 1.083 . S
C241 N242 1.418 . S
C241 C250 1.405 1_545 S
N242 N243 1.374 1_545 S
N243 C244 1.418 . S
C244 C245 1.405 1_565 S
C244 C249 1.399 . S
C245 C246 1.398 . S
C245 H254 1.082 . S
C246 C247 1.406 1_545 S
C246 H255 1.083 . S
C247 C248 1.407 . S
C248 C249 1.398 . S
C248 H256 1.083 . S
C249 H257 1.083 . S
C250 C251 1.398 . S
C250 H258 1.082 . S
C251 H259 1.083 . S
C260 C261 1.389 1_655 S
C260 C273 1.422 . S
C261 C262 1.398 . S
C261 H274 1.083 . S
C262 C263 1.399 . S
C262 H275 1.083 . S
C263 N264 1.418 . S
C263 C272 1.405 1_455 S
N264 N265 1.374 1_455 S
N265 C266 1.418 . S
C266 C267 1.405 1_655 S
C266 C271 1.399 . S
C267 C268 1.398 . S
C267 H276 1.082 . S
C268 C269 1.422 . S
C268 H277 1.083 . S
C269 C270 1.388 1_455 S
C270 C271 1.398 . S
C270 H278 1.083 . S
C271 H279 1.083 . S
C272 C273 1.398 . S
C272 H280 1.082 . S
C273 H281 1.083 . S
C282 C283 1.406 1_545 S
C282 C295 1.407 . S
C283 C284 1.398 . S
C283 H296 1.083 . S
C284 C285 1.399 . S
C284 H297 1.083 . S
C285 N286 1.418 . S
C285 C294 1.405 1_565 S
N286 N287 1.374 1_565 S
N287 C288 1.418 . S
C288 C289 1.405 1_545 S
C288 C293 1.399 . S
C289 C290 1.398 . S
C289 H298 1.082 . S
C290 C291 1.406 1_565 S
C290 H299 1.083 . S
C291 C292 1.407 . S
C292 C293 1.398 . S
C292 H300 1.083 . S
C293 H301 1.083 . S
C294 C295 1.398 . S
C294 H302 1.082 . S
C295 H303 1.083 . S
C304 C305 1.406 1_455 S
C304 C317 1.407 . S
C305 C306 1.398 . S
C305 H318 1.083 . S
C306 C307 1.399 . S
C306 H319 1.083 . S
C307 N308 1.418 . S
C307 C316 1.405 1_655 S
N308 N309 1.374 1_655 S
N309 C310 1.418 . S
C310 C311 1.405 1_455 S
C310 C315 1.399 . S
C311 C312 1.398 . S
C311 H320 1.082 . S
C312 C313 1.406 . S
C312 H321 1.083 . S
C313 C314 1.407 1_655 S
C314 C315 1.398 . S
C314 H322 1.083 . S
C315 H323 1.083 . S
C316 C317 1.398 . S
C316 H324 1.082 . S
C317 H325 1.083 . S
C326 C327 1.406 1_565 S
C326 C339 1.407 . S
C327 C328 1.398 . S
C327 H340 1.083 . S
C328 C329 1.399 1_545 S
C328 H341 1.083 . S
C329 N330 1.418 1_565 S
C329 C338 1.405 . S
N330 N331 1.375 1_545 S
N331 C332 1.418 . S
C332 C333 1.405 1_565 S
C332 C337 1.399 . S
C333 C334 1.398 . S
C333 H342 1.082 . S
C334 C335 1.406 1_545 S
C334 H343 1.083 . S
C335 C336 1.407 . S
C336 C337 1.398 . S
C336 H344 1.083 . S
C337 H345 1.083 . S
C338 C339 1.398 . S
C338 H346 1.082 . S
C339 H347 1.083 . S
C348 C349 1.406 1_455 S
C348 C361 1.407 . S
C349 C350 1.398 . S
C349 H362 1.083 . S
C350 C351 1.399 . S
C350 H363 1.083 . S
C351 N352 1.418 . S
C351 C360 1.405 1_655 S
N352 N353 1.374 1_655 S
N353 C354 1.418 . S
C354 C355 1.405 1_455 S
C354 C359 1.399 . S
C355 C356 1.398 . S
C355 H364 1.082 . S
C356 C357 1.421 . S
C356 H365 1.083 . S
C357 C358 1.390 1_655 S
C358 C359 1.398 . S
C358 H366 1.083 . S
C359 H367 1.083 . S
C360 C361 1.398 . S
C360 H368 1.082 . S
C361 H369 1.083 . S
C370 C371 1.406 1_545 S
C370 C383 1.407 . S
C371 C372 1.398 . S
C371 H384 1.083 . S
C372 C373 1.399 1_565 S
C372 H385 1.083 . S
C373 N374 1.418 . S
C373 C382 1.405 . S
N374 N375 1.378 . S
N375 C376 1.418 . S
C376 C377 1.405 1_545 S
C376 C381 1.399 . S
C377 C378 1.398 . S
C377 H386 1.082 . S
C378 C379 1.406 1_565 S
C378 H387 1.083 . S
C379 C380 1.407 . S
C380 C381 1.398 . S
C380 H388 1.083 . S
C381 H389 1.083 . S
C382 C383 1.398 . S
C382 H390 1.082 . S
C383 H391 1.083 . S
C392 C393 1.406 1_554 S
C392 C405 1.407 . S
C393 C394 1.398 . S
C393 H406 1.083 . S
C394 C395 1.399 . S
C394 H407 1.083 . S
C395 N396 1.418 . S
C395 C404 1.405 1_556 S
N396 N397 1.374 1_556 S
N397 C398 1.418 . S
C398 C399 1.405 1_554 S
C398 C403 1.399 . S
C399 C400 1.398 . S
C399 H408 1.082 . S
C400 C401 1.406 1_556 S
C400 H409 1.083 . S
C401 C402 1.407 . S
C402 C403 1.398 . S
C402 H410 1.083 . S
C403 H411 1.083 . S
C404 C405 1.398 . S
C404 H412 1.082 . S
C405 H413 1.083 . S
C414 C415 1.406 . S
C414 C427 1.407 . S
C415 C416 1.398 . S
C415 H428 1.082 1_556 S
C416 C417 1.399 . S
C416 H429 1.083 1_556 S
C417 N418 1.418 . S
C417 C426 1.405 . S
N418 N419 1.374 . S
N419 C420 1.418 . S
C420 C421 1.405 . S
C420 C425 1.399 . S
C421 C422 1.398 . S
C421 H430 1.082 1_556 S
C422 C423 1.406 . S
C422 H431 1.083 1_556 S
C423 C424 1.407 . S
C424 C425 1.398 . S
C424 H432 1.083 . S
C425 H433 1.083 . S
C426 C427 1.398 . S
C426 H434 1.082 . S
C427 H435 1.083 . S
C436 C437 1.406 1_556 S
C436 C449 1.407 . S
C437 C438 1.398 . S
C437 H450 1.083 . S
C438 C439 1.399 . S
C438 H451 1.083 . S
C439 N440 1.418 . S
C439 C448 1.405 1_554 S
N440 N441 1.374 1_554 S
N441 C442 1.418 . S
C442 C443 1.405 1_556 S
C442 C447 1.399 . S
C443 C444 1.398 . S
C443 H452 1.082 . S
C444 C445 1.406 1_554 S
C444 H453 1.083 . S
C445 C446 1.407 . S
C446 C447 1.398 . S
C446 H454 1.083 . S
C447 H455 1.083 . S
C448 C449 1.398 . S
C448 H456 1.082 . S
C449 H457 1.083 . S
C458 C459 1.406 . S
C458 C471 1.407 1_554 S
C459 C460 1.398 . S
C459 H472 1.083 . S
C460 C461 1.399 . S
C460 H473 1.083 . S
C461 N462 1.418 . S
C461 C470 1.405 1_554 S
N462 N463 1.374 1_554 S
N463 C464 1.418 . S
C464 C465 1.405 1_556 S
C464 C469 1.399 . S
C465 C466 1.398 . S
C465 H474 1.082 . S
C466 C467 1.406 . S
C466 H475 1.083 . S
C467 C468 1.407 1_554 S
C468 C469 1.398 . S
C468 H476 1.083 . S
C469 H477 1.083 . S
C470 C471 1.398 . S
C470 H478 1.082 . S
C471 H479 1.083 . S
C480 C481 1.406 . S
C480 C493 1.407 . S
C481 C482 1.398 . S
C481 H494 1.083 . S
C482 C483 1.399 . S
C482 H495 1.083 . S
C483 N484 1.418 . S
C483 C492 1.405 . S
N484 N485 1.374 . S
N485 C486 1.418 . S
C486 C487 1.405 . S
C486 C491 1.399 . S
C487 C488 1.398 . S
C487 H496 1.082 . S
C488 C489 1.406 . S
C488 H497 1.083 . S
C489 C490 1.407 . S
C490 C491 1.398 . S
C490 H498 1.083 . S
C491 H499 1.083 . S
C492 C493 1.398 . S
C492 H500 1.082 . S
C493 H501 1.083 . S
C502 C503 1.406 . S
C502 C515 1.407 . S
C503 C504 1.398 . S
C503 H516 1.083 . S
C504 C505 1.399 . S
C504 H517 1.083 . S
C505 N506 1.418 . S
C505 C514 1.405 . S
N506 N507 1.374 . S
N507 C508 1.418 . S
C508 C509 1.405 . S
C508 C513 1.399 . S
C509 C510 1.398 . S
C509 H518 1.082 . S
C510 C511 1.406 . S
C510 H519 1.083 . S
C511 C512 1.407 . S
C512 C513 1.398 . S
C512 H520 1.083 . S
C513 H521 1.083 . S
C514 C515 1.398 . S
C514 H522 1.082 . S
C515 H523 1.083 . S
C524 C525 1.406 . S
C524 C537 1.407 . S
C525 C526 1.398 . S
C525 H538 1.083 . S
C526 C527 1.399 . S
C526 H539 1.083 . S
C527 N528 1.418 . S
C527 C536 1.405 . S
N528 N529 1.374 . S
N529 C530 1.418 . S
C530 C531 1.405 . S
C530 C535 1.399 . S
C531 C532 1.398 . S
C531 H540 1.082 . S
C532 C533 1.406 . S
C532 H541 1.083 . S
C533 C534 1.407 . S
C534 C535 1.398 . S
C534 H542 1.083 . S
C535 H543 1.083 . S
C536 C537 1.398 . S
C536 H544 1.082 . S
C537 H545 1.083 . S
C546 C547 1.406 . S
C546 C559 1.407 . S
C547 C548 1.398 . S
C547 H560 1.083 . S
C548 C549 1.399 . S
C548 H561 1.083 . S
C549 N550 1.418 . S
C549 C558 1.405 . S
N550 N551 1.374 . S
N551 C552 1.418 . S
C552 C553 1.405 . S
C552 C557 1.399 . S
C553 C554 1.398 . S
C553 H562 1.082 . S
C554 C555 1.406 . S
C554 H563 1.083 . S
C555 C556 1.407 . S
C556 C557 1.398 . S
C556 H564 1.083 . S
C557 H565 1.083 . S
C558 C559 1.398 . S
C558 H566 1.082 . S
C559 H567 1.083 . S
C568 C569 1.406 . S
C568 C581 1.407 . S
C569 C570 1.398 . S
C569 H582 1.083 . S
C570 C571 1.399 . S
C570 H583 1.083 . S
C571 N572 1.418 . S
C571 C580 1.405 . S
N572 N573 1.374 . S
N573 C574 1.418 . S
C574 C575 1.405 . S
C574 C579 1.399 . S
C575 C576 1.398 . S
C575 H584 1.082 . S
C576 C577 1.406 . S
C576 H585 1.083 . S
C577 C578 1.407 . S
C578 C579 1.398 . S
C578 H586 1.083 . S
C579 H587 1.083 . S
C580 C581 1.398 . S
C580 H588 1.082 . S
C581 H589 1.083 . S
C590 C591 1.406 . S
C590 C603 1.407 . S
C591 C592 1.398 . S
C591 H604 1.083 . S
C592 C593 1.399 . S
C592 H605 1.083 . S
C593 N594 1.418 . S
C593 C602 1.405 . S
N594 N595 1.374 . S
N595 C596 1.418 . S
C596 C597 1.405 . S
C596 C601 1.399 . S
C597 C598 1.398 . S
C597 H606 1.082 . S
C598 C599 1.406 . S
C598 H607 1.083 . S
C599 C600 1.407 . S
C600 C601 1.398 . S
C600 H608 1.083 . S
C601 H609 1.083 . S
C602 C603 1.398 . S
C602 H610 1.082 . S
C603 H611 1.083 . S
C612 C613 1.406 . S
C612 C625 1.407 . S
C613 C614 1.398 . S
C613 H626 1.083 . S
C614 C615 1.399 . S
C614 H627 1.083 . S
C615 N616 1.418 . S
C615 C624 1.405 . S
N616 N617 1.374 . S
N617 C618 1.418 . S
C618 C619 1.405 . S
C618 C623 1.399 . S
C619 C620 1.398 . S
C619 H628 1.082 . S
C620 C621 1.406 . S
C620 H629 1.083 . S
C621 C622 1.407 . S
C622 C623 1.398 . S
C622 H630 1.083 . S
C623 H631 1.083 . S
C624 C625 1.398 . S
C624 H632 1.082 . S
C625 H633 1.083 . S
C634 C635 1.406 . S
C634 C647 1.407 . S
C635 C636 1.398 . S
C635 H648 1.083 . S
C636 C637 1.399 . S
C636 H649 1.083 . S
C637 N638 1.418 . S
C637 C646 1.405 . S
N638 N639 1.374 . S
N639 C640 1.418 . S
C640 C641 1.405 . S
C640 C645 1.399 . S
C641 C642 1.398 . S
C641 H650 1.082 . S
C642 C643 1.406 . S
C642 H651 1.083 . S
C643 C644 1.407 . S
C644 C645 1.398 . S
C644 H652 1.083 . S
C645 H653 1.083 . S
C646 C647 1.398 . S
C646 H654 1.082 . S
C647 H655 1.083 . S
C656 C657 1.406 . S
C656 C669 1.407 . S
C657 C658 1.398 . S
C657 H670 1.083 . S
C658 C659 1.399 . S
C658 H671 1.083 . S
C659 N660 1.418 . S
C659 C668 1.405 . S
N660 N661 1.374 . S
N661 C662 1.418 . S
C662 C663 1.405 . S
C662 C667 1.399 . S
C663 C664 1.398 . S
C663 H672 1.082 . S
C664 C665 1.406 . S
C664 H673 1.083 . S
C665 C666 1.407 . S
C666 C667 1.398 . S
C666 H674 1.083 . S
C667 H675 1.083 . S
C668 C669 1.398 . S
C668 H676 1.082 . S
C669 H677 1.083 . S
C678 C679 1.406 . S
C678 C691 1.407 . S
C679 C680 1.398 . S
C679 H692 1.083 . S
C680 C681 1.399 . S
C680 H693 1.083 . S
C681 N682 1.418 . S
C681 C690 1.405 . S
N682 N683 1.374 . S
N683 C684 1.418 . S
C684 C685 1.405 . S
C684 C689 1.399 . S
C685 C686 1.398 . S
C685 H694 1.082 . S
C686 C687 1.406 . S
C686 H695 1.083 . S
C687 C688 1.407 . S
C688 C689 1.398 . S
C688 H696 1.083 . S
C689 H697 1.083 . S
C690 C691 1.398 . S
C690 H698 1.082 . S
C691 H699 1.083 . S
C700 C701 1.406 . S
C700 C713 1.407 . S
C701 C702 1.398 . S
C701 H714 1.083 . S
C702 C703 1.399 . S
C702 H715 1.083 . S
C703 N704 1.418 . S
C703 C712 1.405 . S
N704 N705 1.374 . S
N705 C706 1.418 . S
C706 C707 1.405 . S
C706 C711 1.399 . S
C707 C708 1.398 . S
C707 H716 1.082 . S
C708 C709 1.406 . S
C708 H717 1.083 . S
C709 C710 1.407 . S
C710 C711 1.398 . S
C710 H718 1.083 . S
C711 H719 1.083 . S
C712 C713 1.398 . S
C712 H720 1.082 . S
C713 H721 1.083 . S
C722 C723 1.406 . S
C722 C735 1.407 . S
C723 C724 1.398 . S
C723 H736 1.083 . S
C724 C725 1.399 . S
C724 H737 1.083 . S
C725 N726 1.418 . S
C725 C734 1.405 . S
N726 N727 1.374 . S
N727 C728 1.418 . S
C728 C729 1.405 . S
C728 C733 1.399 . S
C729 C730 1.398 . S
C729 H738 1.082 . S
C730 C731 1.406 . S
C730 H739 1.083 . S
C731 C732 1.407 . S
C732 C733 1.398 . S
C732 H740 1.083 . S
C733 H741 1.083 . S
C734 C735 1.398 . S
C734 H742 1.082 . S
C735 H743 1.083 . S
C216 C27 1.447 . S
C225 C74 1.443 . S
C238 C29 1.446 . S
C247 C126 1.448 . S
C260 C21 1.447 . S
C269 C75 1.447 . S
C282 C130 1.446 . S
C291 C26 1.444 . S
C304 C20 1.447 . S
C313 C81 1.451 . S
C326 C18 1.447 . S
C335 C137 1.448 . S
C348 C78 1.447 . S
C357 C24 1.447 . S
C370 C134 1.447 . S
C379 C22 1.452 . S
C392 C185 1.447 . S
C401 C25 1.443 . S
C414 C190 1.447 . S
C423 C19 1.447 . S
C436 C181 1.446 . S
C445 C28 1.448 . S
C458 C23 1.448 . S
C467 C187 1.451 . S
C480 C180 1.448 . S
C489 C79 1.452 . S
C502 C82 1.448 . S
C511 C184 1.448 . S
C524 C77 1.450 . S
C533 C191 1.446 . S
C546 C188 1.448 . S
C555 C73 1.448 . S
C568 C131 1.446 . S
C577 C83 1.446 . S
C590 C76 1.446 . S
C599 C136 1.442 . S
C612 C80 1.448 . S
C621 C127 1.452 . S
C634 C133 1.450 . S
C643 C72 1.450 . S
C656 C182 1.448 . S
C665 C135 1.447 . S
C678 C129 1.448 . S
C687 C186 1.451 . S
C700 C189 1.446 . S
C709 C128 1.448 . S
C722 C132 1.446 . S
C731 C183 1.444 . S
