data_I
_chemical_name_common  '/home/zhangsd/repos/MofS-CGCNN/ML/data/TSD/clean_cifs/ABAVIJ_clean'
_cell_length_a  9.80640
_cell_length_b 10.66850
_cell_length_c 13.97120
_cell_angle_alpha 95.30240
_cell_angle_beta  110.54600
_cell_angle_gamma 74.73290
_space_group_name_H-M_alt      'P 1'


loop_
_space_group_symop_operation_xyz
  'x, y, z' 

loop_
_atom_site_label
_atom_site_fract_x
_atom_site_fract_y
_atom_site_fract_z
_atom_site_type_symbol
C      0.00041   0.0334  0.41102     C
O      0.00361   0.5223  0.78422     O
N      0.00939   0.2705  0.88438     N
O      0.02509   0.7512  0.28578     O
C      0.02628   0.3179  0.97916     C
C      0.04141   0.7448  0.93242     C
C      0.04712   0.8179  0.02084     C
H       0.0536   0.7963   0.5488     H
C      0.06621   0.6519  0.44382     C
H       0.0676   0.1074   0.8112     H
C      0.08068   0.1444  0.87736     C
C      0.09349   0.7062  0.54078     C
C      0.10899   0.2448  0.06758     C
H       0.1133   0.2822   0.1326     H
H       0.1139   0.4827   0.3704     H
C       0.1192   0.2261    0.654     C
C      0.12445   0.1404   0.5621     C
N      0.12501   0.7705  0.11562     N
C       0.1256   0.6162     0.94     C
N      0.12663   0.9913  0.38826     N
Co     0.12696  0.88395  0.25208    Co
C      0.12711    0.522  0.43582     C
C       0.1285   0.5323   0.8478     C
C      0.17157   0.0665  0.96154     C
C      0.17895   0.6285   0.6257     C
C       0.1856   0.1162     0.06     C
H       0.1978   0.6669   0.6916     H
C      0.20332   0.6444  0.12264     C
C      0.20739   0.4489  0.52258     C
C      0.21003   0.5665  0.03846     C
O      0.21939   0.0223  0.21578     O
H        0.224   0.9802   0.9526     H
N      0.23669   0.4993  0.61778     N
O      0.23897   0.2494  0.71414     O
H       0.2443   0.3581   0.5154     H
C      0.25209    0.021  0.45278     C
C      0.25514    0.094  0.54028     C
O      0.25596   0.4854  0.84352     O
H       0.2564   0.6074   0.1888     H
H       0.2714   0.4802   0.0474     H
C       0.2807   0.0323   0.1522     C
O      0.32857   0.7672  0.33674     O
H       0.3423    0.242   0.9192     H
H       0.3425   0.9907   0.4378     H
H       0.3464   0.1119   0.5848     H
Co     0.37361  0.38012  0.75118    Co
H       0.3907   0.6369   0.4894     H
O      0.41244   0.9854  0.15648     O
H        0.418   0.6146   0.9356     H
H       0.4231    0.742   0.0808     H
C      0.44881   0.2206  0.93962     C
C       0.4652   0.7261    0.346     C
H       0.4824   0.1146   0.0644     H
O      0.49046    0.273  0.65812     O
C      0.49614   0.6083  0.50328     C
C      0.50461   0.6451  0.97322     C
H       0.5048   0.2963   0.4512     H
H       0.5062   0.1669   0.3084     H
O       0.5091   0.5088   0.7932     O
C      0.50919   0.7206  0.06038     C
N      0.51236   0.2647  0.88292     N
O      0.52483   0.7494  0.28586     O
C      0.53139   0.1451  0.02678     C
H       0.5453    0.511   0.6336     H
C      0.55271   0.2062  0.45922     C
C      0.55325   0.1285   0.3743     C
C      0.56235   0.6404   0.4379     C
C      0.58939   0.5334  0.58898     C
N      0.61891   0.9993  0.38222     N
C       0.6196   0.2333   0.6506     C
C      0.62239   0.1519  0.55618     C
Co     0.62243  0.88012  0.24882    Co
N      0.62944   0.7647  0.11708     N
C      0.62945   0.6152   0.9423     C
C       0.6318   0.5335   0.8478     C
C      0.66122   0.2353  0.91304     C
C      0.68481   0.9489  0.47742     C
C      0.68715   0.1152   0.0577     C
C      0.69129    0.022  0.56418     C
H       0.7072   0.2673   0.8742     H
C      0.71486    0.594  0.45972     C
O       0.7159   0.0088   0.2068     O
H       0.7289   0.8581   0.4846     H
N      0.73837   0.4913  0.61174     N
O      0.73931   0.2512  0.71422     O
H       0.7435   0.9827   0.6296     H
C      0.74818   0.7353  0.08696     C
C      0.75319   0.1602  0.99858     C
O      0.75424   0.5032  0.83188     O
C      0.75461   0.6602  0.00142     C
H       0.7616   0.6119   0.4152     H
C        0.784   0.0335   0.1522     C
C      0.79931    0.521  0.54722     C
O      0.83234    0.773  0.34188     O
H        0.833   0.7673   0.1258     H
H       0.8428   0.6398   0.9834     H
H       0.8594   0.1398   0.0166     H
Co     0.87488  0.38395  0.74792    Co
H       0.9013   0.1369   0.5106     H
H       0.9047   0.4907   0.5622     H
H       0.9117    0.011   0.3664     H
O      0.92236   0.0032  0.16812     O
C        0.969   0.7333   0.3494     C
H       0.9789   0.4065   0.9862     H
H       0.9807   0.7822   0.8674     H
O      0.99183   0.2672  0.66326     O
H       0.9927   0.9065   0.0138     H
C      0.99286   0.1083  0.49672     C
