data_I
_chemical_name_common  '/home/zhangsd/repos/MofS-CGCNN/ML/data/TSD/clean_cifs/ABEFUL_clean'
_cell_length_a 15.38730
_cell_length_b 15.38730
_cell_length_c  9.83790
_cell_angle_alpha 90.00000
_cell_angle_beta  90.00000
_cell_angle_gamma 90.00000
_space_group_name_H-M_alt      'P 1'


loop_
_space_group_symop_operation_xyz
  'x, y, z' 

loop_
_atom_site_label
_atom_site_fract_x
_atom_site_fract_y
_atom_site_fract_z
_atom_site_type_symbol
H       0.0028   0.3331      0.5     H
H       0.0028   0.6669      0.0     H
C       0.0207   0.2774      0.0     C
C       0.0207   0.7226      0.5     C
C        0.028   0.1981      0.5     C
C        0.028   0.8019      0.0     C
N       0.0299   0.1297      0.0     N
N       0.0299   0.8703      0.5     N
C       0.1058    0.258      0.0     C
C       0.1058    0.742      0.5     C
C       0.1127   0.1644      0.0     C
C       0.1127   0.8356      0.5     C
C       0.1179   0.1915      0.5     C
C       0.1179   0.8085      0.0     C
N       0.1297   0.0299      0.5     N
N       0.1297   0.9701      0.0     N
H       0.1516   0.2974      0.0     H
H       0.1516   0.7026      0.5     H
C       0.1644   0.1127      0.5     C
C       0.1644   0.8873      0.0     C
C         0.17   0.2735      0.5     C
C         0.17   0.7265      0.0     C
H       0.1782   0.2876    0.296     H
H       0.1782   0.2876    0.704     H
H       0.1782   0.7124    0.204     H
H       0.1782   0.7124    0.796     H
C       0.1915   0.1179      0.0     C
C       0.1915   0.8821      0.5     C
C      0.19518  0.31227   0.3781     C
C      0.19518  0.31227   0.6219     C
C      0.19518  0.68773   0.1219     C
C      0.19518  0.68773   0.8781     C
C       0.1981    0.028      0.0     C
C       0.1981    0.972      0.5     C
C      0.24501  0.38697   0.3778     C
C      0.24501  0.38697   0.6222     C
C      0.24501  0.61303   0.1222     C
C      0.24501  0.61303   0.8778     C
O      0.25267  0.41046      0.0     O
O      0.25267  0.58954      0.5     O
C        0.258   0.1058      0.5     C
C        0.258   0.8942      0.0     C
H       0.2627   0.4116    0.296     H
H       0.2627   0.4116    0.704     H
H       0.2627   0.5884    0.204     H
H       0.2627   0.5884    0.796     H
C       0.2685    0.425      0.5     C
C       0.2685    0.575      0.0     C
C       0.2735     0.17      0.0     C
C       0.2735     0.83      0.5     C
C       0.2774   0.0207      0.5     C
C       0.2774   0.9793      0.0     C
H       0.2876   0.1782    0.204     H
H       0.2876   0.1782    0.796     H
H       0.2876   0.8218    0.296     H
H       0.2876   0.8218    0.704     H
H       0.2974   0.1516      0.5     H
H       0.2974   0.8484      0.0     H
C      0.31227  0.19518   0.1219     C
C      0.31227  0.19518   0.8781     C
C      0.31227  0.80482   0.3781     C
C      0.31227  0.80482   0.6219     C
S      0.32096  0.47326      0.0     S
S      0.32096  0.52674      0.5     S
H       0.3331   0.0028      0.0     H
H       0.3331   0.9972      0.5     H
O       0.3736  0.46816   0.1223     O
O       0.3736  0.46816   0.8777     O
O       0.3736  0.53184   0.3777     O
O       0.3736  0.53184   0.6223     O
C      0.38697  0.24501   0.1222     C
C      0.38697  0.24501   0.8778     C
C      0.38697  0.75499   0.3778     C
C      0.38697  0.75499   0.6222     C
O      0.41046  0.25267      0.5     O
O      0.41046  0.74733      0.0     O
H       0.4116   0.2627    0.204     H
H       0.4116   0.2627    0.796     H
H       0.4116   0.7373    0.296     H
H       0.4116   0.7373    0.704     H
C        0.425   0.2685      0.0     C
C        0.425   0.7315      0.5     C
O      0.46816   0.3736   0.3777     O
O      0.46816   0.3736   0.6223     O
O      0.46816   0.6264   0.1223     O
O      0.46816   0.6264   0.8777     O
S      0.47326  0.32096      0.5     S
S      0.47326  0.67904      0.0     S
Tb         0.5      0.5     0.25    Tb
Tb         0.5      0.5     0.75    Tb
S      0.52674  0.32096      0.0     S
S      0.52674  0.67904      0.5     S
O      0.53184   0.3736   0.1223     O
O      0.53184   0.3736   0.8777     O
O      0.53184   0.6264   0.3777     O
O      0.53184   0.6264   0.6223     O
C        0.575   0.2685      0.5     C
C        0.575   0.7315      0.0     C
H       0.5884   0.2627    0.296     H
H       0.5884   0.2627    0.704     H
H       0.5884   0.7373    0.204     H
H       0.5884   0.7373    0.796     H
O      0.58954  0.25267      0.0     O
O      0.58954  0.74733      0.5     O
C      0.61303  0.24501   0.3778     C
C      0.61303  0.24501   0.6222     C
C      0.61303  0.75499   0.1222     C
C      0.61303  0.75499   0.8778     C
O       0.6264  0.46816   0.3777     O
O       0.6264  0.46816   0.6223     O
O       0.6264  0.53184   0.1223     O
O       0.6264  0.53184   0.8777     O
H       0.6669   0.0028      0.5     H
H       0.6669   0.9972      0.0     H
S      0.67904  0.47326      0.5     S
S      0.67904  0.52674      0.0     S
C      0.68773  0.19518   0.3781     C
C      0.68773  0.19518   0.6219     C
C      0.68773  0.80482   0.1219     C
C      0.68773  0.80482   0.8781     C
H       0.7026   0.1516      0.0     H
H       0.7026   0.8484      0.5     H
H       0.7124   0.1782    0.296     H
H       0.7124   0.1782    0.704     H
H       0.7124   0.8218    0.204     H
H       0.7124   0.8218    0.796     H
C       0.7226   0.0207      0.0     C
C       0.7226   0.9793      0.5     C
C       0.7265     0.17      0.5     C
C       0.7265     0.83      0.0     C
C       0.7315    0.425      0.0     C
C       0.7315    0.575      0.5     C
H       0.7373   0.4116    0.204     H
H       0.7373   0.4116    0.796     H
H       0.7373   0.5884    0.296     H
H       0.7373   0.5884    0.704     H
C        0.742   0.1058      0.0     C
C        0.742   0.8942      0.5     C
O      0.74733  0.41046      0.5     O
O      0.74733  0.58954      0.0     O
C      0.75499  0.38697   0.1222     C
C      0.75499  0.38697   0.8778     C
C      0.75499  0.61303   0.3778     C
C      0.75499  0.61303   0.6222     C
C       0.8019    0.028      0.5     C
C       0.8019    0.972      0.0     C
C      0.80482  0.31227   0.1219     C
C      0.80482  0.31227   0.8781     C
C      0.80482  0.68773   0.3781     C
C      0.80482  0.68773   0.6219     C
C       0.8085   0.1179      0.5     C
C       0.8085   0.8821      0.0     C
H       0.8218   0.2876    0.204     H
H       0.8218   0.2876    0.796     H
H       0.8218   0.7124    0.296     H
H       0.8218   0.7124    0.704     H
C         0.83   0.2735      0.0     C
C         0.83   0.7265      0.5     C
C       0.8356   0.1127      0.0     C
C       0.8356   0.8873      0.5     C
H       0.8484   0.2974      0.5     H
H       0.8484   0.7026      0.0     H
N       0.8703   0.0299      0.0     N
N       0.8703   0.9701      0.5     N
C       0.8821   0.1915      0.0     C
C       0.8821   0.8085      0.5     C
C       0.8873   0.1644      0.5     C
C       0.8873   0.8356      0.0     C
C       0.8942    0.258      0.5     C
C       0.8942    0.742      0.0     C
N       0.9701   0.1297      0.5     N
N       0.9701   0.8703      0.0     N
C        0.972   0.1981      0.0     C
C        0.972   0.8019      0.5     C
C       0.9793   0.2774      0.5     C
C       0.9793   0.7226      0.0     C
H       0.9972   0.3331      0.0     H
H       0.9972   0.6669      0.5     H
