data_I
_chemical_name_common  '/home/zhangsd/repos/MofS-CGCNN/ML/data/TSD/clean_cifs/ADODII_clean'
_cell_length_a  7.39330
_cell_length_b 14.34900
_cell_length_c 16.97540
_cell_angle_alpha 104.15400
_cell_angle_beta  102.57800
_cell_angle_gamma 90.00000
_space_group_name_H-M_alt      'P 1'


loop_
_space_group_symop_operation_xyz
  'x, y, z' 

loop_
_atom_site_label
_atom_site_fract_x
_atom_site_fract_y
_atom_site_fract_z
_atom_site_type_symbol
C       0.0013   0.7436   0.3734     C
La     0.00607  0.03623  0.49868    La
C       0.0082   0.3247     0.04     C
O       0.0089   0.6846   0.7958     O
C       0.0208   0.5895    0.896     C
C       0.0217   0.2187   0.9088     C
C       0.0394   0.1371   0.7712     C
C       0.0448     0.83    0.653     C
H        0.071   0.7904   0.4176     H
O       0.0775      0.5     -0.0     O
C       0.0858   0.9462   0.3312     C
C       0.0867   0.7245   0.7444     C
O      0.08835   0.5423   0.2145     O
C       0.0916   0.6748   0.3242     C
C       0.0999   0.8911   0.2476     C
H        0.108   0.1189   0.7306     H
C       0.1129   0.7813   0.0912     C
O      0.11595   0.2756   0.9851     O
C       0.1213   0.6224   0.8376     C
C       0.1248   0.4105    0.104     C
C       0.1263   0.1922   0.8502     C
O      0.13085   0.7244   0.0149     O
H       0.1473   0.1994   0.2824     H
H       0.1482   0.5669    0.797     H
O      0.15017   0.1846  0.60954     O
C       0.1549   0.5291   0.9412     C
H        0.182    0.473   0.9012     H
O       0.2131   0.3154   0.2042     O
C       0.2137   0.4709   0.0588     C
C       0.2191   0.8089    0.636     C
O      0.22025   0.9281   0.5599     O
H       0.2205   0.6756   0.3356     H
O      0.22451   0.9576  0.39222     O
H       0.2382   0.6563   0.8694     H
H        0.252   0.2106   0.8628     H
C       0.2555   0.7019   0.7274     C
C       0.2682   0.8629   0.2288     C
H       0.2704   0.5666   0.9688     H
C       0.2747   0.2129   0.2934     C
C       0.2761   0.8078   0.1498     C
H       0.2808    0.527   0.0988     H
C       0.2837   0.3776   0.1624     C
C       0.2977   0.8563   0.5814     C
H       0.3016   0.4334   0.0312     H
H       0.3054   0.3278    0.724     H
C       0.3062   0.1825   0.5938     C
C       0.3219   0.7456    0.673     C
H       0.3257   0.6581   0.7516     H
O      0.34163   0.1161  0.53466     O
C       0.3423   0.2755   0.2556     C
H       0.3442   0.1273   0.3716     H
H       0.3512   0.4331    0.203     H
H       0.3688   0.3437   0.1306     H
H       0.3774   0.8811   0.2694     H
H       0.3892   0.7894   0.1372     H
C       0.3918     0.17    0.347     C
C       0.4212   0.3277    0.711     C
H       0.4378   0.7312   0.6618     H
O       0.4404   0.8261   0.5574     O
C       0.4532   0.2572    0.643     C
La     0.50739  0.96377  0.50132    La
H       0.5275    0.444   0.8016     H
C       0.5281   0.2981   0.2726     C
O      0.54063   0.8154  0.39046     O
C       0.5544   0.3963   0.7584     C
H       0.5741   0.3419   0.2484     H
H       0.5814   0.6722    0.276     H
C       0.5831   0.1911    0.364     C
O      0.59327   0.0222  0.65794     O
C       0.6279   0.2564   0.6266     C
H       0.6291   0.1188   0.8024     H
C       0.6489   0.2544    0.327     C
H       0.6534   0.2096   0.5824     H
O      0.66035   0.0719   0.4401     O
C       0.7102   0.6723    0.289     C
C       0.7124   0.8175   0.4062     C
C       0.7163   0.1437   0.4186     C
H       0.7259    0.556   0.1984     H
C       0.7287   0.3949    0.742     C
H       0.7514    0.576   0.8286     H
C       0.7546   0.0538   0.6688     C
C        0.755   0.1366   0.8142     C
C       0.7674   0.3252   0.6758     C
H       0.7726   0.2064   0.9346     H
H        0.776   0.2688   0.3382     H
H       0.7876   0.5079   0.8896     H
C        0.796   0.6037   0.2416     C
O      0.80697   0.8839  0.46534     O
C       0.8102   0.7428    0.357     C
H       0.8267   0.8812   0.1976     H
O      0.83229   0.0424  0.60778     O
H        0.838   0.7936   0.0654     H
C       0.8393   0.1902    0.893     C
C       0.8395   0.5339   0.8512     C
C       0.8523   0.1089   0.7524     C
H       0.8649   0.8006   0.7176     H
O      0.87385   0.4577   0.7855     O
O        0.883   0.1739   0.4426     O
H       0.8849   0.3244   0.6644     H
H        0.891   0.6523   0.9916     H
H        0.898   0.4921   0.1104     H
H        0.898    0.719   0.9312     H
H       0.8994   0.3477   0.0084     H
H       0.9228    0.424   0.1714     H
O      0.93533   0.9778  0.34206     O
C       0.9408   0.8634   0.1858     C
C       0.9463   0.8098    0.107     C
H       0.9668    0.281   0.0688     H
C       0.9682   0.6753     0.96     C
H       0.9726   0.8727   0.6284     H
C       0.9813   0.7871   0.7066     C
C       0.9867   0.6051    0.258     C
C       0.9883   0.4661   0.1488     C
