data_I
_chemical_name_common  '/home/zhangsd/repos/MofS-CGCNN/ML/data/TSD/clean_cifs/ADODUU_clean'
_cell_length_a  7.06650
_cell_length_b 14.52620
_cell_length_c 16.71090
_cell_angle_alpha 104.06600
_cell_angle_beta  102.20600
_cell_angle_gamma 90.00000
_space_group_name_H-M_alt      'P 1'


loop_
_space_group_symop_operation_xyz
  'x, y, z' 

loop_
_atom_site_label
_atom_site_fract_x
_atom_site_fract_y
_atom_site_fract_z
_atom_site_type_symbol
Tb     0.00504  0.03048  0.49732    Tb
C       0.0056   0.7446   0.3818     C
C       0.0058   0.3293   0.0422     C
O      0.00861   0.6821  0.79242     O
C      0.02083    0.587  0.89326     C
C       0.0248   0.2238   0.9114     C
C       0.0431   0.8322   0.6532     C
C       0.0511   0.1375   0.7726     C
H       0.0792   0.7883   0.4282     H
O       0.0801      0.5      1.0     O
C       0.0846   0.9405   0.3336     C
C       0.0876   0.7232   0.7418     C
O      0.09013   0.5445  0.21826     O
C       0.0958   0.6761   0.3306     C
C       0.1006   0.8863   0.2476     C
C       0.1134   0.7762   0.0886     C
O      0.12034     0.28  0.98768     O
H       0.1257   0.1167   0.7326     H
C       0.1264   0.6205   0.8344     C
C      0.12757    0.413  0.10674     C
O      0.13005   0.1753   0.6027     O
O      0.13266     0.72  0.01232     O
H       0.1361   0.2058   0.2862     H
C       0.1371   0.1928   0.8528     C
H       0.1553   0.5661   0.7928     H
C       0.1618   0.5286   0.9392     C
H       0.1911    0.473    0.899     H
O      0.21619   0.3179  0.20758     O
C       0.2226   0.4714   0.0608     C
O      0.22382   0.9335  0.55844     O
H       0.2303   0.6755    0.342     H
C       0.2304   0.8164   0.6376     C
O      0.23239   0.9591  0.39378     O
H       0.2479    0.654   0.8664     H
C       0.2684    0.703   0.7248     C
H       0.2694   0.2087   0.8666     H
C       0.2699   0.2155   0.2954     C
C       0.2785   0.8625   0.2274     C
H       0.2805   0.3158   0.7186     H
H       0.2819   0.5661   0.9668     H
C       0.2843   0.8072   0.1472     C
C        0.292   0.3795   0.1656     C
H       0.2921    0.527    0.101     H
C        0.296   0.1764   0.5878     C
C       0.3125   0.8658    0.584     C
H       0.3151   0.4339   0.0332     H
O      0.33417   0.1106  0.52774     O
C       0.3364   0.7515   0.6724     C
H        0.337   0.1254   0.3708     H
H       0.3426   0.6588   0.7474     H
C       0.3458   0.2768   0.2582     C
H       0.3625   0.4339   0.2072     H
H       0.3815    0.346   0.1336     H
C       0.3899   0.1678   0.3468     C
H       0.3931   0.8833   0.2674     H
C       0.4011   0.3189    0.705     C
H       0.4028   0.7913   0.1334     H
C        0.444    0.253    0.637     C
H       0.4582   0.7389   0.6608     H
O      0.47371   0.8433  0.56642     O
Tb     0.50772  0.96952  0.50268    Tb
H       0.5096   0.4367   0.7966     H
O      0.52735   0.8247   0.3973     O
C       0.5407   0.3898   0.7532     C
C       0.5436    0.297   0.2752     C
H       0.5619   0.6842   0.2814     H
O       0.5793   0.0345   0.6534     O
C       0.5928   0.1836   0.3624     C
H       0.5952   0.3412   0.2526     H
H        0.615   0.1278   0.7998     H
C       0.6238   0.2554   0.6182     C
H        0.651   0.2117   0.5718     H
C        0.664   0.2485   0.3276     C
O      0.66538   0.0665  0.44156     O
C       0.6961   0.6811    0.295     C
C       0.7082   0.8236   0.4122     C
H        0.713   0.5633   0.2034     H
C       0.7235   0.3914   0.7374     C
C       0.7285   0.1342    0.416     C
H       0.7387    0.571   0.8242     H
C       0.7471   0.1444   0.8128     C
C        0.751   0.0595   0.6664     C
H       0.7568   0.2198   0.9322     H
C       0.7652   0.3239   0.6694     C
H       0.7782   0.5043   0.8868     H
C       0.7875   0.6102   0.2468     C
H       0.7974   0.2611   0.3392     H
O      0.80643   0.8894  0.47226     O
C        0.807    0.747    0.363     C
H       0.8152   0.8722   0.2002     H
H       0.8246   0.7802   0.0678     H
C       0.8314   0.1995   0.8922     C
C       0.8321   0.5302   0.8476     C
O      0.83861   0.0409  0.60622     O
H       0.8499   0.7942   0.7138     H
C        0.853   0.1137   0.7524     C
O      0.87187   0.4555  0.78174     O
H       0.8844   0.6475   0.9904     H
H       0.8882   0.7133   0.9286     H
H       0.8883   0.3245    0.658     H
H       0.8914   0.4957   0.1132     H
H        0.894   0.3525   0.0096     H
O      0.90729   0.1567  0.43358     O
H       0.9145    0.429   0.1758     H
O       0.9259   0.9655   0.3466     O
C       0.9343   0.8556   0.1872     C
C       0.9392   0.8005   0.1078     C
H       0.9596   0.2867   0.0714     H
C       0.9636   0.6707   0.9578     C
H       0.9662   0.8746   0.6292     H
C       0.9745   0.7845   0.7046     C
C       0.9845   0.4698   0.1524     C
C       0.9861   0.6086   0.2626     C
