data_I
_chemical_name_common  '/home/zhangsd/repos/MofS-CGCNN/ML/data/TSD/clean_cifs/AFITUF_clean'
_cell_length_a 14.08280
_cell_length_b 21.45180
_cell_length_c 28.25180
_cell_angle_alpha 90.00000
_cell_angle_beta  90.00000
_cell_angle_gamma 93.56000
_space_group_name_H-M_alt      'P 1'


loop_
_space_group_symop_operation_xyz
  'x, y, z' 

loop_
_atom_site_label
_atom_site_fract_x
_atom_site_fract_y
_atom_site_fract_z
_atom_site_type_symbol
C       0.0007   0.6687   0.2439     C
C       0.0011   0.3765   0.7027     C
C       0.0016   0.8685    0.422     C
C       0.0029   0.5637   0.5059     C
C        0.004    0.575   0.9555     C
C       0.0043   0.1271   0.7015     C
C       0.0055    0.168   0.7428     C
C       0.0058   0.0814   0.4543     C
C       0.0064   0.0616    0.004     C
C       0.0067   0.8297   0.3782     C
C       0.0078   0.6455   0.0178     C
C        0.008   0.3674   0.9228     C
C       0.0083   0.9502   0.1208     C
C       0.0084   0.5277   0.5489     C
C       0.0097   0.4556   0.6219     C
C       0.0098   0.4945   0.5822     C
C       0.0128   0.0225    0.047     C
C       0.0136   0.9897   0.0794     C
C       0.0149   0.1506   0.5171     C
C       0.0158   0.3287   0.8776     C
H        0.036   0.0552   0.4325     H
H        0.036   0.5493   0.9342     H
H       0.0435   0.6695   0.0406     H
H       0.0522   0.1742   0.5395     H
N       0.0556   0.6098   0.9858     N
N       0.0605   0.1172   0.4851     N
O       0.0628   0.6871    0.358     O
O       0.0703   0.8227  0.26428     O
O       0.0704   0.1845   0.8573     O
C       0.0769   0.5746   0.1371     C
O       0.0772   0.3234  0.76331     O
C       0.0777   0.9286   0.4834     C
C       0.0788   0.0823   0.6325     C
O       0.0802   0.6944  0.25499     O
C       0.0804   0.6256   0.4433     C
C       0.0817   0.4264   0.9848     C
C       0.0826   0.6159   0.1765     C
C       0.0828   0.1191   0.6732     C
C       0.0836    0.893   0.4435     C
C       0.0851   0.8471   0.0194     C
O       0.0857   0.1943  0.75454     O
C       0.0859   0.9056   0.1886     C
C       0.0864   0.1229   0.9416     C
C       0.0869   0.4055   0.6891     C
O       0.0871   0.8146  0.36476     O
C       0.0873   0.5936   0.4864     C
C       0.0885    0.943   0.1499     C
C         0.09   0.0881   0.9838     C
C       0.0902   0.3528   0.5175     C
C        0.091   0.3938   0.9435     C
C       0.0913   0.4445    0.647     C
C       0.0916   0.9178    0.954     C
O       0.0939   0.3132   0.8644     O
C       0.0954   0.4258   0.4534     C
Br     0.09647  0.89236  0.66789    Br
Zn     0.10358  0.75466  0.31025    Zn
Zn     0.10907  0.25478  0.80998    Zn
H       0.1139   0.8216   0.0421     H
H       0.1211   0.3279   0.5398     H
H       0.1287   0.9406   0.9311     H
H       0.1304   0.4516   0.4314     H
H       0.1334   0.0791   0.6132     H
H       0.1335    0.567   0.1204     H
H       0.1345    0.947   0.4971     H
C       0.1361   0.8806     0.99     C
H       0.1364   0.6425   0.4281     H
H       0.1381   0.4433   0.9997     H
H        0.141   0.6376    0.185     H
H       0.1416   0.9008   0.2069     H
C       0.1417   0.3868   0.4853     C
H        0.142   0.1397   0.6818     H
H       0.1428      0.4    0.707     H
H       0.1431   0.1399   0.9271     H
H        0.144   0.8853   0.4306     H
H       0.1516   0.3893   0.9295     H
H       0.1603   0.4789   0.8672     H
H       0.1603   0.7801   0.7917     H
H       0.1608   0.7223   0.8607     H
H       0.1667   0.9677   0.5887     H
H       0.1681   0.9719    0.371     H
H       0.1688   0.4184   0.7983     H
H       0.1715   0.9136   0.3001     H
H       0.1734   0.2259   0.6135     H
H       0.1739   0.7212    0.113     H
H       0.1776   0.2857   0.6807     H
H       0.1794   0.4564    0.092     H
H       0.1798    0.782   0.1822     H
H       0.1907    0.385   0.1514     H
Zn     0.20096  0.60978  0.98657    Zn
Zn     0.20437  0.11308  0.48463    Zn
Br     0.20497  0.98595  0.13309    Br
Br     0.20603  0.58627  0.51412    Br
Br     0.20835  0.48189  0.63012    Br
Br     0.20991  0.07944  0.01268    Br
H       0.2147   0.1891   0.3435     H
C       0.2187   0.7414   0.8489     C
C       0.2187   0.7766   0.8081     C
O        0.219   0.0477  0.43302     O
C       0.2192   0.9238   0.6443     C
O         0.22   0.5468  0.93412     O
C       0.2204   0.4696   0.8547     C
C       0.2231   0.9601   0.6056     C
C       0.2254    0.434   0.8137     C
C       0.2264   0.9709   0.3542     C
O       0.2272   0.6758  0.03827     O
C        0.228   0.9346    0.312     C
O       0.2284   0.6772  0.93559     O
H       0.2287   0.2396   0.2704     H
O        0.229    0.179  0.53744     O
C       0.2295   0.7468   0.1201     C
O        0.231   0.0493  0.53457     O
C       0.2312   0.2481   0.6222     C
C       0.2323   0.7841   0.1611     C
C       0.2327   0.2841   0.6615     C
O       0.2337    0.543   0.0352     O
C       0.2389   0.4525   0.1072     C
C       0.2435   0.8814   0.9891     C
C       0.2444   0.4116   0.1429     C
O       0.2449   0.1763  0.43396     O
C        0.249   0.3845   0.4833     C
N        0.249   0.7556   0.3108     N
H       0.2527   0.7943    0.964     H
H       0.2528   0.2921   0.4952     H
N       0.2551   0.2504   0.8113     N
H        0.259   0.7113   0.2509     H
H       0.2622   0.2075   0.7486     H
C       0.2629   0.2216   0.3389     C
H       0.2642   0.7977   0.3716     H
H       0.2691   0.9429   0.0417     H
C       0.2696   0.2532   0.2956     C
H       0.2718   0.2929   0.8729     H
H       0.2793   0.4719   0.4557     H
C       0.2887   0.8309   0.9739     C
C       0.2913   0.3296   0.4905     C
C       0.2947   0.7304   0.2761     C
C       0.2969   0.9167   0.0192     C
C       0.2982   0.7798   0.3464     C
C       0.2986   0.2243   0.7744     C
C       0.3001   0.8069   0.7901     C
C       0.3002   0.8703   0.7108     C
C       0.3009   0.0397    0.416     C
C       0.3012   0.8433   0.7479     C
C       0.3017   0.9106    0.668     C
C       0.3023   0.5341   0.9209     C
C        0.303   0.0038   0.3717     C
C       0.3033    0.734   0.8727     C
C        0.304   0.2738   0.8478     C
C       0.3051   0.7022   0.0495     C
C       0.3055   0.6958   0.9152     C
C       0.3062   0.4923   0.8782     C
C       0.3064   0.4355   0.4674     C
C       0.3067   0.7472   0.0904     C
C       0.3081   0.9859   0.5907     C
C       0.3093   0.1981   0.5523     C
C       0.3111   0.2426   0.5943     C
C       0.3117   0.0317   0.5493     C
C       0.3123   0.8246    0.171     C
C        0.314   0.5361    0.052     C
C       0.3156   0.9307   0.2882     C
C       0.3159   0.4212   0.7949     C
C       0.3169   0.8616   0.2124     C
C       0.3174   0.3195   0.6736     C
C       0.3175   0.4892   0.0917     C
C       0.3187    0.893   0.2465     C
C        0.319   0.3864   0.7519     C
C       0.3202   0.3577   0.7162     C
C       0.3235   0.1999   0.4193     C
C       0.3265   0.2375   0.3752     C
C       0.3334   0.4087   0.1684     C
C       0.3338   0.3681   0.2099     C
C       0.3353   0.3044   0.2882     C
C       0.3386   0.3382   0.2455     C
O       0.3773   0.5515  0.94007     O
O       0.3791   0.0634  0.43159     O
C        0.383   0.8326   0.9731     C
C       0.3843   0.7878   0.0993     C
O       0.3853   0.6947  0.03031     O
C       0.3857   0.8019   0.8154     C
O       0.3864   0.6833   0.9302     O
O       0.3875   0.1826  0.53779     O
C       0.3877   0.3278   0.4911     C
C       0.3887   0.7648   0.8555     C
C       0.3897   0.8239   0.1381     C
O       0.3899   0.5629   0.0392     O
C       0.3902   0.9362   0.6518     C
O       0.3911   0.0502   0.5324     O
C       0.3911   0.7304   0.2747     C
C       0.3914      0.0   0.3477     C
C       0.3922   0.2872   0.3686     C
C       0.3926   0.2766   0.6056     C
C       0.3935   0.9132   0.0162     C
C       0.3936   0.9644   0.3075     C
C       0.3941   0.7811   0.3497     C
C       0.3943   0.2221   0.7745     C
C       0.3944   0.9719   0.6111     C
C       0.3948   0.4769   0.8599     C
C       0.3961   0.3147   0.6456     C
C        0.398   0.3204   0.3265     C
C       0.3997   0.4438     0.82     C
C        0.402   0.2705   0.8498     C
O       0.4037   0.1934  0.43819     O
C       0.4045   0.4826    0.116     C
C       0.4054   0.4314    0.469     C
C       0.4095   0.4424   0.1519     C
H       0.4119   0.7971   0.9609     H
Zn     0.41216  0.62354  0.98463    Zn
H       0.4153   0.2895   0.4981     H
Zn     0.41647   0.1215  0.48594    Zn
H       0.4219   0.7125   0.2485     H
H       0.4238   0.2035   0.7482     H
H       0.4264   0.7979   0.3768     H
H         0.43   0.9384    0.038     H
H       0.4347   0.2989   0.3936     H
H       0.4354   0.7903   0.0773     H
H       0.4355   0.2849   0.8773     H
N       0.4409   0.8807   0.9881     N
N        0.444   0.3781    0.482     N
C       0.4442   0.7566   0.3118     C
H       0.4459   0.4667   0.4607     H
H       0.4467   0.9291   0.6688     H
H       0.4473   0.2743   0.5862     H
H       0.4473     0.76   0.8713     H
H       0.4475   0.0217   0.3592     H
H       0.4516   0.4902    0.876     H
C       0.4526   0.2463   0.8117     C
H       0.4536   0.9864   0.5976     H
H       0.4598   0.5072   0.1067     H
Br     0.46688  0.54778  0.68897    Br
Br     0.48154  0.57568  0.29519    Br
Br     0.48688  0.03889   0.7755    Br
Br       0.487   0.6407  0.16106    Br
Br     0.48821  0.38792  0.32027    Br
Br     0.49852  0.87879  0.14892    Br
Br     0.49873  0.83947  0.79198    Br
Br     0.50127  0.16053  0.29198    Br
Br     0.50148  0.12121  0.64892    Br
Br     0.51179  0.61208  0.82027    Br
Br       0.513   0.3593  0.66106    Br
Br     0.51312  0.96111   0.2755    Br
Br     0.51846  0.42432  0.79519    Br
Br     0.53312  0.45222  0.18897    Br
H       0.5402   0.4928   0.6067     H
H       0.5464   0.0136   0.0976     H
C       0.5474   0.7537   0.3117     C
H       0.5484   0.5098    0.376     H
H       0.5525   0.9783   0.8592     H
H       0.5527     0.24   0.3713     H
H       0.5527   0.7257   0.0862     H
H       0.5533   0.0709   0.1688     H
H       0.5541   0.5333   0.9607     H
C       0.5558   0.2434   0.8118     C
N        0.556   0.6219    0.982     N
N       0.5591   0.1193   0.4881     N
H       0.5645   0.7151   0.3773     H
H       0.5646   0.2097   0.5773     H
H       0.5653   0.7011   0.8936     H
H         0.57   0.0616    0.538     H
H       0.5736   0.2021   0.8768     H
H       0.5762   0.7965   0.2482     H
H       0.5781   0.2875   0.7485     H
Zn     0.58353   0.8785  0.98594    Zn
H       0.5847   0.7105   0.9981     H
Zn     0.58784  0.37646  0.48463    Zn
H       0.5881   0.2029   0.4609     H
C       0.5905   0.5576   0.6519     C
C       0.5946   0.5686    0.969     C
C       0.5955   0.5174    0.616     C
O       0.5963   0.8066  0.93819     O
C        0.598   0.7295   0.3498     C
C       0.6003   0.5562     0.32     C
C        0.602   0.6796   0.8265     C
C       0.6039   0.6853   0.1456     C
C       0.6052   0.5231   0.3599     C
C       0.6056   0.0281   0.1111     C
C       0.6057   0.7779   0.2745     C
C       0.6059   0.2189   0.8497     C
C       0.6064   0.0356   0.8075     C
C       0.6065   0.0868   0.5162     C
C       0.6074   0.7234   0.1056     C
C       0.6078   0.7128   0.8686     C
C       0.6086      0.0   0.8477     C
C       0.6089   0.2696   0.7747     C
O       0.6089   0.9498   0.0324     O
C       0.6098   0.0638   0.1518     C
O       0.6101   0.4371   0.5392     O
C       0.6103   0.1761   0.6381     C
C       0.6113   0.2352   0.3555     C
C       0.6123   0.6722   0.9911     C
O       0.6125   0.8174  0.03779     O
O       0.6136   0.3167   0.4302     O
C       0.6143   0.1981   0.3154     C
O       0.6147   0.3053  0.53031     O
C       0.6157   0.2122   0.5993     C
C        0.617   0.1674   0.4731     C
O       0.6209   0.9366  0.93159     O
O       0.6227   0.4485  0.44007     O
C       0.6614   0.6618   0.7455     C
C       0.6647   0.6956   0.7882     C
C       0.6662   0.6319   0.7099     C
C       0.6666   0.5913   0.6684     C
C       0.6735   0.7625   0.8752     C
C       0.6765   0.8001   0.9193     C
C       0.6798   0.6423   0.2162     C
C        0.681   0.6136   0.2519     C
C       0.6813    0.107   0.7465     C
C       0.6825   0.5108   0.5917     C
C       0.6826   0.6805   0.1736     C
C       0.6831   0.1384   0.7124     C
C       0.6841   0.5788   0.2949     C
C       0.6844   0.0693   0.7882     C
C        0.686   0.4639    0.552     C
C       0.6877   0.1754    0.671     C
C       0.6883   0.9683   0.0493     C
C       0.6889   0.7574   0.0943     C
C       0.6907   0.8019   0.0523     C
C       0.6919   0.0141   0.0907     C
C       0.6933   0.2528   0.5904     C
C       0.6936   0.5645   0.9674     C
C       0.6938   0.5077   0.3782     C
C       0.6945   0.3042   0.4152     C
C       0.6949   0.2978   0.5495     C
C        0.696   0.7262   0.3478     C
C       0.6967    0.266   0.3727     C
C        0.697   0.9962   0.8717     C
C       0.6977   0.4659   0.4209     C
C       0.6983   0.0894    0.168     C
C       0.6988   0.1567   0.2479     C
C       0.6991   0.9603    0.916     C
C       0.6998   0.1297   0.2108     C
C       0.6999   0.1931   0.2901     C
C       0.7014   0.7757   0.2744     C
C       0.7018   0.2202   0.8464     C
C       0.7031   0.0833   0.5192     C
C       0.7053   0.2696   0.7761     C
C       0.7087   0.6704   0.9905     C
C       0.7113   0.1691   0.4739     C
H       0.7207   0.5281   0.9557     H
H       0.7282   0.7071   0.3729     H
C       0.7304   0.7468   0.7956     C
H       0.7309   0.0571   0.5417     H
H       0.7358   0.2023   0.8716     H
C       0.7371   0.7784   0.8389     C
H       0.7378   0.7925   0.2486     H
H        0.741   0.2887   0.7509     H
N       0.7449   0.7496   0.3113     N
H       0.7472   0.7079   0.9952     H
H       0.7473   0.2057    0.464     H
N        0.751   0.2444   0.8108     N
C        0.751   0.6155   0.9833     C
O       0.7551   0.8237  0.93396     O
C       0.7556   0.5884   0.6429     C
C       0.7565   0.1186   0.4891     C
C       0.7611   0.5475   0.6072     C
O       0.7663    0.457   0.5352     O
C       0.7673   0.7159   0.1615     C
C       0.7677   0.2159   0.6611     C
C       0.7688   0.7519   0.1222     C
O        0.769   0.9507  0.03457     O
C       0.7705   0.2532   0.6201     C
O        0.771    0.821  0.03744     O
H       0.7713   0.7604   0.7704     H
O       0.7716   0.3228  0.43559     O
C        0.772   0.0654    0.812     C
O       0.7728   0.3242  0.53827     O
C       0.7736   0.0291   0.8542     C
C       0.7746    0.566   0.3137     C
C       0.7769   0.0399   0.1056     C
C       0.7796   0.5304   0.3547     C
O         0.78   0.4532  0.43412     O
C       0.7808   0.0762   0.1443     C
O        0.781   0.9523  0.93302     O
C       0.7813   0.2234   0.3081     C
C       0.7813   0.2586   0.3489     C
H       0.7853   0.8109   0.8435     H
Br     0.79009  0.92056  0.51268    Br
Br     0.79165  0.51811  0.13012    Br
Br     0.79397  0.41373  0.01412    Br
Br     0.79503  0.01405  0.63309    Br
Zn     0.79563  0.88692  0.98463    Zn
Zn     0.79904  0.39022  0.48657    Zn
H       0.8093    0.615   0.6514     H
H       0.8202    0.218   0.6822     H
H       0.8206   0.5436    0.592     H
H       0.8224   0.7143   0.1807     H
H       0.8261   0.2788    0.613     H
H       0.8266   0.7741   0.1135     H
H       0.8285   0.0864   0.8001     H
H       0.8312   0.5816   0.2983     H
H       0.8319   0.0281    0.871     H
H       0.8333   0.0323   0.0887     H
H       0.8392   0.2777   0.3607     H
H       0.8397   0.2199   0.2917     H
H       0.8397   0.5211   0.3672     H
H       0.8484   0.6107   0.4295     H
H        0.856   0.1147   0.9306     H
H       0.8569   0.8601   0.4271     H
H       0.8572      0.6    0.207     H
H        0.858   0.8603   0.1818     H
C       0.8583   0.6132   0.9853     C
H       0.8584   0.0992   0.7069     H
H        0.859   0.3624    0.685     H
H       0.8619   0.5567   0.4997     H
H       0.8636   0.3575   0.9281     H
C       0.8639   0.1194     0.49     C
H       0.8655    0.053   0.9971     H
H       0.8665    0.433   0.6204     H
H       0.8666   0.9209   0.1132     H
H       0.8696   0.5484   0.9314     H
H       0.8713   0.0594   0.4311     H
H       0.8789   0.6721   0.0398     H
H       0.8861   0.1784   0.5421     H
Zn     0.89093  0.74522  0.30998    Zn
Zn     0.89642  0.24534  0.81025    Zn
Br     0.90353  0.10764  0.16789    Br
C       0.9046   0.5742   0.9534     C
O       0.9061   0.6868   0.3644     O
C       0.9084   0.0822    0.454     C
C       0.9087   0.5555    0.147     C
C        0.909   0.6062   0.4435     C
C       0.9098   0.6472   0.0175     C
C         0.91   0.9119   0.4838     C
C       0.9115    0.057   0.6499     C
C       0.9127   0.4064   0.9864     C
O       0.9129   0.1854  0.86476     O
C       0.9131   0.5945   0.1891     C
C       0.9136   0.8771   0.4416     C
C       0.9141   0.0944   0.6886     C
O       0.9143   0.8057  0.25454     O
C       0.9149   0.1529   0.5194     C
C       0.9164    0.107   0.9435     C
C       0.9172   0.8809   0.1732     C
C       0.9174   0.3841   0.6765     C
C       0.9183   0.5736   0.4848     C
C       0.9196   0.3744   0.9433     C
O       0.9198   0.3056  0.75499     O
C       0.9212   0.9177   0.1325     C
C       0.9223   0.0714   0.9834     C
O       0.9228   0.6766  0.26331     O
C       0.9231   0.4254   0.6371     C
O       0.9296   0.8155   0.3573     O
O       0.9297   0.1773  0.76428     O
O       0.9372   0.3129    0.858     O
N       0.9395   0.8828   0.9851     N
N       0.9444   0.3902   0.4858     N
H       0.9478   0.8258   0.0395     H
H       0.9565   0.3305   0.5406     H
H        0.964   0.4507   0.4342     H
H        0.964   0.9448   0.9325     H
C       0.9842   0.6713   0.3776     C
C       0.9851   0.8494   0.0171     C
C       0.9864   0.0103   0.5794     C
C       0.9872   0.9775    0.547     C
C       0.9902   0.5055   0.0822     C
C       0.9903   0.5444   0.1219     C
C       0.9916   0.4723   0.0489     C
C       0.9917   0.0498   0.6208     C
C        0.992   0.6326   0.4228     C
C       0.9922   0.3545   0.5178     C
C       0.9933   0.1703   0.8782     C
C       0.9936   0.9384    0.504     C
C       0.9942   0.9186   0.9543     C
C       0.9945    0.832   0.2428     C
C       0.9957   0.8729   0.2015     C
C        0.996    0.425   0.4555     C
C       0.9971   0.4363   0.0059     C
C       0.9984   0.1315    0.922     C
C       0.9989   0.6235   0.2027     C
C       0.9993   0.3313   0.7439     C
