data_I
_chemical_name_common  '/home/zhangsd/repos/MofS-CGCNN/ML/data/TSD/clean_cifs/AFITEP_clean'
_cell_length_a  6.17510
_cell_length_b 14.75080
_cell_length_c 17.14400
_cell_angle_alpha 98.64070
_cell_angle_beta  90.00000
_cell_angle_gamma 102.08200
_space_group_name_H-M_alt      'P 1'


loop_
_space_group_symop_operation_xyz
  'x, y, z' 

loop_
_atom_site_label
_atom_site_fract_x
_atom_site_fract_y
_atom_site_fract_z
_atom_site_type_symbol
C      0.00051  0.69002   0.5871     C
H       0.0016   0.8206   0.6462     H
C       0.0211   0.9406   0.8947     C
H        0.023    0.901   0.3866     H
C      0.03947  0.47094   0.4803     C
H       0.0426   0.4798   0.9218     H
C      0.04493  0.74106   0.1554     C
C      0.07025   0.4185   0.9084     C
C      0.07871  0.99982   0.9671     C
C      0.07889  0.00018   0.5329     C
C       0.0805   0.0594   0.6053     C
C      0.08739  0.65078   0.1352     C
C      0.08799  0.24038   0.3682     C
H        0.122    0.099   0.1134     H
H       0.1271   0.8986   0.7885     H
C      0.12841  0.39962   0.4333     C
H       0.1491    0.704   0.5706     H
C      0.15239  0.24038   0.8682     C
O      0.16798  0.89896  0.21438     O
C      0.16959  0.93998   0.8365     C
H        0.181   0.1794   0.8538     H
C      0.22134  0.81848   0.1999     C
H       0.2232   0.6376   0.1514     H
H       0.2285   0.1014   0.7115     H
C      0.22961  0.06002   0.6635     C
C      0.23298  0.94316   0.5264     C
H       0.2381    0.901   0.4791     H
O      0.26902  0.10104  0.28562     O
C      0.27121  0.39962   0.9333     C
C      0.28982  0.05684   0.9736     C
C      0.30387  0.25894   0.3446     C
C      0.31049  0.30998   0.9129     C
H       0.3371    0.099   0.0209     H
C      0.34825   0.4185   0.4084     C
N      0.37448  0.99516   0.8433     N
C      0.37791  0.94742   0.5883     C
N      0.37932  0.00484   0.6567     N
O      0.40106  0.80372  0.71659     O
O      0.40266  0.80372  0.21659     O
C      0.40286  0.18152   0.3001     C
H       0.4144   0.6376   0.6514     H
Zn     0.41947      0.0     0.25    Zn
H        0.426   0.9078   0.0823     H
C      0.43049  0.05258   0.9117     C
C      0.43147  0.47094   0.9803     C
C      0.43661  0.34922   0.3648     C
H       0.4372   0.4798   0.4218     H
H       0.4451    0.296   0.9294     H
H       0.4818   0.9078   0.5823     H
H       0.5182   0.0922   0.4177     H
H       0.5549    0.704   0.0706     H
H       0.5628   0.5202   0.5782     H
C      0.56339  0.65078   0.6352     C
C      0.56853  0.52906   0.0197     C
C      0.56951  0.94742   0.0883     C
H        0.574   0.0922   0.9177     H
Zn     0.58053      0.0     0.75    Zn
H       0.5856   0.3624   0.3486     H
C      0.59714  0.81848   0.6999     C
O      0.59734  0.19628  0.78341     O
O      0.59894  0.19628  0.28341     O
N      0.62068  0.99516   0.3433     N
C      0.62209  0.05258   0.4117     C
N      0.62552  0.00484   0.1567     N
C      0.65175   0.5815   0.5916     C
H       0.6629    0.901   0.9791     H
C      0.68951  0.69002   0.0871     C
C      0.69613  0.74106   0.6554     C
C      0.71018  0.94316   0.0264     C
C      0.72879  0.60038   0.0667     C
O      0.73098  0.89896  0.71438     O
H       0.7619    0.099   0.5209     H
C      0.76702  0.05684   0.4736     C
C      0.77039  0.93998   0.3365     C
H       0.7715   0.8986   0.2885     H
H       0.7768   0.3624   0.8486     H
C      0.77866  0.18152   0.8001     C
H        0.819   0.8206   0.1462     H
C      0.83041  0.06002   0.1635     C
O      0.83202  0.10104  0.78562     O
C      0.84761  0.75962   0.1318     C
H       0.8509    0.296   0.4294     H
C      0.87159  0.60038   0.5667     C
H       0.8729   0.1014   0.2115     H
H        0.878    0.901   0.8866     H
C      0.91201  0.75962   0.6318     C
C      0.91261  0.34922   0.8648     C
C       0.9195   0.9406   0.3947     C
C      0.92111  0.99982   0.4671     C
C      0.92129  0.00018   0.0329     C
C      0.92975   0.5815   0.0916     C
C      0.95507  0.25894   0.8446     C
H       0.9574   0.5202   0.0782     H
C      0.96053  0.52906   0.5197     C
H        0.977    0.099   0.6134     H
C       0.9789   0.0594   0.1053     C
H       0.9984   0.1794   0.3538     H
C      0.99949  0.30998   0.4129     C
