data_I
_chemical_name_common  '/home/zhangsd/repos/MofS-CGCNN/ML/data/TSD/clean_cifs/AFOTOF_clean'
_cell_length_a  8.65500
_cell_length_b 14.10500
_cell_length_c 15.10560
_cell_angle_alpha 115.14400
_cell_angle_beta  106.64700
_cell_angle_gamma 90.00000
_space_group_name_H-M_alt      'P 1'


loop_
_space_group_symop_operation_xyz
  'x, y, z' 

loop_
_atom_site_label
_atom_site_fract_x
_atom_site_fract_y
_atom_site_fract_z
_atom_site_type_symbol
C       0.0188   0.6887   0.1858     C
C       0.0328   0.4509   0.9536     C
H       0.0475   0.3949     0.48     H
O       0.0604   0.9019   0.5538     O
C       0.0646   0.7028   0.5532     C
H       0.0665   0.2334   0.4852     H
C       0.0716   0.6074   0.5592     C
C       0.0792   0.5491   0.0464     C
C       0.0954   0.3126   0.8078     C
O       0.1062   0.8768   0.3616     O
C       0.1269   0.3897   0.5336     C
C       0.1417   0.2923   0.5346     C
C       0.1559   0.4038   0.9038     C
H       0.1684    0.284    0.772     H
C       0.1755   0.7358   0.2354     C
C       0.1998   0.8724   0.5746     C
C       0.2016    0.772   0.5894     C
C       0.2196    0.584   0.6066     C
C       0.2218   0.8336   0.3328     C
C       0.2285   0.4784    0.611     C
O       0.2295    0.094   0.5192     O
C       0.2521   0.5962   0.0962     C
H       0.2655    0.432   0.9332     H
C       0.2686   0.2828   0.6094     C
C       0.2876   0.6874   0.1922     C
C       0.3088   0.1731   0.5984     C
O       0.3287   0.9178    0.583     O
H       0.3323    0.568   0.0668     H
C       0.3512   0.7539   0.6396     C
C       0.3537   0.6582    0.651     C
C       0.3542   0.4712    0.692     C
O       0.3676   0.8716    0.378     O
C       0.3722   0.3702   0.6864     C
H       0.3964    0.716    0.228     H
H       0.4214   0.5311   0.7464     H
O       0.4347   0.1691    0.664     O
H       0.4404   0.2805    0.476     H
H       0.4452   0.8016   0.6646     H
H       0.4454   0.4408   0.4682     H
H       0.4497   0.6464   0.6896     H
H       0.4574   0.3626    0.736     H
Eu     0.50507  0.00551  0.54554    Eu
O       0.5066   0.0981   0.4462     O
C       0.5114   0.2972   0.4468     C
C       0.5124   0.3926   0.4408     C
H       0.5675   0.6051     0.52     H
H       0.5813   0.7666   0.5148     H
C       0.5933   0.6103   0.4664     C
C       0.6071   0.7077   0.4654     C
C       0.6122    0.228   0.4106     C
C        0.613    0.416   0.3934     C
C       0.6175   0.5216    0.389     C
C       0.6252   0.1276   0.4254     C
C       0.6592   0.7172   0.3906     C
C       0.6622   0.5288    0.308     C
H        0.675   0.4689   0.2536     H
C       0.6858   0.6298   0.3136     C
C       0.7027   0.3418    0.349     C
O       0.7103    0.906   0.4808     O
C       0.7104   0.8269   0.4016     C
C       0.7116   0.2461   0.3604     C
H       0.7214   0.6374    0.264     H
H       0.7229   0.2846    0.782     H
O       0.7446   0.1232   0.6384     O
O       0.7457   0.0822    0.417     O
H       0.7601   0.3536   0.3104     H
O       0.7707   0.8309    0.336     O
H       0.7806   0.1984   0.3354     H
H       0.8059   0.4194   0.9472     H
C        0.833   0.3113   0.8142     C
H       0.8587   0.5806   0.0528     H
C       0.8804   0.3978   0.9112     C
C        0.889   0.1664   0.6672     C
C       0.9401   0.2642   0.7646     C
H       0.9409   0.7154    0.218     H
Eu     0.95953  0.99449  0.45446    Eu
H       0.9644   0.7195    0.524     H
C       0.9692   0.6022   0.0888     C
H       0.9772   0.5592   0.5318     H
O       0.9896   0.1284    0.622     O
