data_I
_chemical_name_common  '/home/zhangsd/repos/MofS-CGCNN/ML/data/TSD/clean_cifs/AFOVAT_clean'
_cell_length_a  8.84200
_cell_length_b 14.31800
_cell_length_c 14.49800
_cell_angle_alpha 113.08400
_cell_angle_beta  107.75400
_cell_angle_gamma 90.00000
_space_group_name_H-M_alt      'P 1'


loop_
_space_group_symop_operation_xyz
  'x, y, z' 

loop_
_atom_site_label
_atom_site_fract_x
_atom_site_fract_y
_atom_site_fract_z
_atom_site_type_symbol
C       0.0071   0.6918   0.1796     C
C       0.0278   0.4505   0.9536     C
H       0.0438   0.3918   0.4802     H
O       0.0544     0.89     0.55     O
C       0.0618   0.6932   0.5502     C
C       0.0693      0.6   0.5586     C
C       0.0742   0.5495   0.0464     C
H       0.0811   0.2335   0.4818     H
C       0.0907   0.3118   0.8154     C
O       0.1084   0.8807   0.3572     O
C       0.1283   0.3861   0.5338     C
C       0.1346   0.4031   0.9012     C
C        0.151    0.291    0.535     C
C       0.1662   0.7387   0.2262     C
H       0.1666    0.283   0.7842     H
C       0.1883   0.8622   0.5746     C
C       0.1997   0.7614   0.5876     C
C       0.2111   0.8378    0.324     C
C       0.2189   0.5745   0.6058     C
O       0.2288   0.0958   0.5238     O
C       0.2319   0.4739    0.613     C
C       0.2334   0.5969   0.0988     C
H       0.2388   0.4355    0.926     H
C       0.2712   0.2795    0.611     C
C       0.2753   0.6882   0.1846     C
C       0.3107   0.1736   0.6038     C
H       0.3128   0.5645    0.074     H
O       0.3214   0.9101   0.5892     O
C       0.3469   0.4626   0.6946     C
C       0.3485   0.7383   0.6406     C
C       0.3535   0.6476   0.6474     C
O       0.3611   0.8715   0.3696     O
C       0.3744   0.3653    0.693     C
H       0.3824    0.717   0.2158     H
H       0.4082   0.5207   0.7524     H
O       0.4282   0.1677   0.6752     O
H       0.4409   0.7853     0.67     H
H       0.4437   0.4456    0.467     H
H        0.444     0.29   0.4808     H
H       0.4516   0.6327   0.6816     H
H       0.4595   0.3583   0.7454     H
La     0.50159  0.00353  0.54858    La
O       0.5044     0.11     0.45     O
C       0.5107      0.4   0.4414     C
C       0.5116   0.3068   0.4498     C
H       0.5636   0.6082   0.5198     H
C       0.5945   0.6139   0.4662     C
H       0.5993   0.7665   0.5182     H
C       0.6121   0.2386   0.4124     C
C       0.6131   0.4255   0.3942     C
C       0.6137   0.1378   0.4254     C
C        0.616    0.709    0.465     C
C       0.6189   0.5261    0.387     C
C       0.6523   0.5374   0.3054     C
H       0.6558   0.4793   0.2476     H
C       0.6602   0.7205    0.389     C
C       0.6814   0.6347    0.307     C
O        0.705   0.9042   0.4762     O
C       0.7061   0.3524   0.3526     C
C       0.7069   0.8264   0.3962     C
C       0.7079   0.2617   0.3594     C
H       0.7141   0.6417   0.2546     H
H       0.7235   0.2745   0.7936     H
O       0.7322   0.0899   0.4108     O
O       0.7512   0.1193   0.6428     O
O        0.753   0.8323   0.3248     O
H         0.77   0.3673   0.3184     H
H       0.7709   0.2147     0.33     H
H       0.7868   0.4353   0.9302     H
C       0.8275   0.3082   0.8204     C
H       0.8566   0.5647   0.0698     H
C       0.8666   0.4029   0.9052     C
C       0.8871   0.1622    0.676     C
H       0.9299   0.7255   0.2064     H
C         0.94   0.2613   0.7738     C
La     0.95301  0.99647  0.45142    La
C       0.9614   0.5971   0.0948     C
H       0.9632     0.71   0.5192     H
H       0.9767   0.5544    0.533     H
O       0.9915   0.1285   0.6304     O
