data_I
_chemical_name_common  '/home/zhangsd/repos/MofS-CGCNN/ML/data/TSD/clean_cifs/AGONAM_clean'
_cell_length_a  7.91050
_cell_length_b 11.12800
_cell_length_c 19.44100
_cell_angle_alpha 90.00000
_cell_angle_beta  101.06100
_cell_angle_gamma 90.00000
_space_group_name_H-M_alt      'P 1'


loop_
_space_group_symop_operation_xyz
  'x, y, z' 

loop_
_atom_site_label
_atom_site_fract_x
_atom_site_fract_y
_atom_site_fract_z
_atom_site_type_symbol
C       0.0135   0.7559  0.70861     C
C       0.0193   0.1116  0.19232     C
O       0.0237  0.00053  0.19297     O
O       0.0443  0.88465   0.0337     O
O       0.0464   0.4082  0.78457     O
C       0.0469   0.3084   0.3522     C
H       0.0479   0.7471   0.1352     H
O       0.0566  0.82876  0.86038     O
H       0.0607   0.5705    0.331     H
C       0.0846   0.6192  0.61855     C
C       0.0914   0.6216  0.24847     C
O       0.0941  0.50751   0.6301     O
C       0.0985   0.1818   0.2568     C
H       0.1311   0.7576   0.7267     H
O       0.1367   0.6071  0.31636     O
Cd     0.14755  0.00372  0.92303    Cd
C       0.1653   0.7464  0.15392     C
O       0.1888  0.67278   0.5883     O
O       0.1915  0.41011  0.48444     O
C       0.2045   0.8732  0.05246     C
C       0.2235   0.3088  0.38044     C
C       0.2239   0.6832  0.21526     C
C       0.2761   0.1832  0.28474     C
C       0.2765   0.8088  0.11956     C
C       0.2955   0.3732  0.44754     C
O       0.3085  0.91011  0.01556     O
O       0.3112  0.17278   0.9117     O
C       0.3347   0.2464  0.34608     C
Cd     0.35245  0.50372  0.57697    Cd
O       0.3633   0.1071  0.18364     O
H       0.3689   0.2576   0.7733     H
C       0.4015   0.6818   0.2432     C
O       0.4059  0.00751   0.8699     O
C       0.4086   0.1216  0.25153     C
C       0.4154   0.1192  0.88145     C
H       0.4393   0.0705    0.169     H
O       0.4434  0.32876  0.63962     O
H       0.4521   0.2471   0.3648     H
C       0.4531   0.8084   0.1478     C
O       0.4536   0.9082  0.71543     O
O       0.4557  0.38465   0.4663     O
O       0.4763  0.50053  0.30703     O
C       0.4807   0.6116  0.30768     C
C       0.4865   0.2559  0.79139     C
C       0.5135   0.7441  0.20861     C
C       0.5193   0.3884  0.69232     C
O       0.5237  0.49947  0.69297     O
O       0.5443  0.61535   0.5337     O
O       0.5464   0.0918  0.28457     O
C       0.5469   0.1916   0.8522     C
H       0.5479   0.7529   0.6352     H
O       0.5566  0.67124  0.36038     O
H       0.5607   0.9295    0.831     H
C       0.5846   0.8808  0.11855     C
C       0.5914   0.8784  0.74847     C
O       0.5941  0.99249   0.1301     O
C       0.5985   0.3182   0.7568     C
H       0.6311   0.7424   0.2267     H
O       0.6367   0.8929  0.81636     O
Cd     0.64755  0.49628  0.42303    Cd
C       0.6653   0.7536  0.65392     C
O       0.6888  0.82722   0.0883     O
O       0.6915  0.08989  0.98444     O
C       0.7045   0.6268  0.55246     C
C       0.7235   0.1912  0.88044     C
C       0.7239   0.8168  0.71526     C
C       0.7761   0.3168  0.78474     C
C       0.7765   0.6912  0.61956     C
C       0.7955   0.1268  0.94754     C
O       0.8085  0.58989  0.51556     O
O       0.8112  0.32722   0.4117     O
C       0.8347   0.2536  0.84608     C
Cd     0.85245  0.99628  0.07697    Cd
O       0.8633   0.3929  0.68364     O
H       0.8689   0.2424   0.2733     H
C       0.9015   0.8182   0.7432     C
O       0.9059  0.49249   0.3699     O
C       0.9086   0.3784  0.75153     C
C       0.9154   0.3808  0.38145     C
H       0.9393   0.4295    0.669     H
O       0.9434  0.17124  0.13962     O
H       0.9521   0.2529   0.8648     H
C       0.9531   0.6916   0.6478     C
O       0.9536   0.5918  0.21543     O
O       0.9557  0.11535   0.9663     O
O       0.9763  0.99947  0.80703     O
C       0.9807   0.8884  0.80768     C
C       0.9865   0.2441  0.29139     C
