data_I
_chemical_name_common  '/home/zhangsd/repos/MofS-CGCNN/ML/data/TSD/clean_cifs/AGUWUV_clean'
_cell_length_a  8.19330
_cell_length_b  8.86460
_cell_length_c 12.20280
_cell_angle_alpha 110.05700
_cell_angle_beta  92.89700
_cell_angle_gamma 105.74100
_space_group_name_H-M_alt      'P 1'


loop_
_space_group_symop_operation_xyz
  'x, y, z' 

loop_
_atom_site_label
_atom_site_fract_x
_atom_site_fract_y
_atom_site_fract_z
_atom_site_type_symbol
Ni     0.02606  0.05655  0.17948    Ni
H       0.0327   0.7816   0.5495     H
C       0.1125   0.7582   0.5929     C
N       0.1266   0.8153  0.71027     N
N       0.1359   0.9141  0.94404     N
O       0.1567   0.0238   0.3125     O
N       0.1661   0.9434  0.05926     N
H       0.1985   0.6245   0.4519     H
C        0.214   0.6647    0.534     C
C       0.2446   0.7787   0.7686     C
C       0.2474   0.8367   0.8968     C
C       0.2737   0.1334   0.3942     C
N       0.2917   0.8859   0.0802     N
O       0.2942    0.289  0.42789     O
N       0.3332   0.6311  0.59203     N
N        0.345   0.8171   0.9777     N
C       0.3488   0.6894   0.7101     C
O        0.358   0.3137    0.727     O
H       0.3757   0.8692   0.3037     H
C       0.3919   0.0678   0.4517     C
C       0.4257   0.9219   0.3828     C
H       0.4315   0.6693   0.7535     H
C       0.4516   0.3127   0.6528     C
O       0.4533   0.5552  0.35668     O
C       0.4677   0.1475   0.5712     C
Ni         0.5      0.5      0.5    Ni
C       0.5323   0.8525   0.4288     C
O       0.5467   0.4448  0.64332     O
C       0.5484   0.6873   0.3472     C
H       0.5685   0.3307   0.2465     H
C       0.5743   0.0781   0.6172     C
C       0.6081   0.9322   0.5483     C
H       0.6243   0.1308   0.6963     H
O        0.642   0.6863    0.273     O
C       0.6512   0.3106   0.2899     C
N        0.655   0.1829   0.0223     N
N       0.6668   0.3689  0.40797     N
O       0.7058    0.711  0.57211     O
N       0.7083   0.1141   0.9198     N
C       0.7263   0.8666   0.6058     C
C       0.7526   0.1633   0.1032     C
C       0.7554   0.2213   0.2314     C
C        0.786   0.3353    0.466     C
H       0.8015   0.3755   0.5481     H
N       0.8339   0.0566  0.94074     N
O       0.8433   0.9762   0.6875     O
N       0.8641   0.0859  0.05596     N
N       0.8734   0.1847  0.28973     N
C       0.8875   0.2418   0.4071     C
H       0.9673   0.2184   0.4505     H
Ni     0.97394  0.94345  0.82052    Ni
