data_I
_chemical_name_common  '/home/zhangsd/repos/MofS-CGCNN/ML/data/TSD/clean_cifs/AHAMAY_clean'
_cell_length_a 10.24920
_cell_length_b 11.07160
_cell_length_c 12.89910
_cell_angle_alpha 92.51800
_cell_angle_beta  95.25500
_cell_angle_gamma 107.33100
_space_group_name_H-M_alt      'P 1'


loop_
_space_group_symop_operation_xyz
  'x, y, z' 

loop_
_atom_site_label
_atom_site_fract_x
_atom_site_fract_y
_atom_site_fract_z
_atom_site_type_symbol
C          0.0   0.0426   0.1881     C
C          0.0   0.9574   0.8119     C
H       0.0034    0.096   0.7335     H
H       0.0035    0.406   0.2709     H
C       0.0052   0.5409   0.1877     C
O       0.0144   0.9804  0.28114     O
O       0.0211   0.4828  0.28328     O
Zn     0.02123  0.28143  0.01049    Zn
C       0.0287    0.337   0.7857     C
O       0.0295   0.3042   0.6914     O
O       0.0349   0.8069  0.68765     O
C       0.0358   0.8371   0.7825     C
O       0.0555   0.2725  0.85752     O
O        0.064   0.7717   0.8531     O
H       0.0734   0.5164   0.8568     H
H       0.0757   0.0135   0.8598     H
Zn     0.07575  0.44018  0.58725    Zn
Zn     0.08008  0.94119  0.58357    Zn
O       0.1018   0.6058  0.51359     O
O       0.1019   0.1065  0.51336     O
O       0.1302   0.1556  0.02977     O
O        0.133   0.6454  0.02454     O
P      0.15643  0.08365  0.12223     P
P      0.15804  0.56979  0.11577     P
O       0.1672   0.4395  0.07985     O
O       0.1694   0.9529   0.0821     O
O       0.1779   0.3458   0.5048     O
O       0.1791   0.8444   0.5008     O
P      0.22315  0.72693    0.518     P
P      0.22323   0.2288  0.52085     P
H        0.236   0.7475   0.7006     H
H       0.2368   0.2453   0.7047     H
H       0.2488   0.9522   0.0959     H
O       0.2769   0.5276  0.68005     O
O       0.2778   0.1562  0.19744     O
O       0.2822   0.0267  0.67449     O
O        0.284   0.6443  0.18836     O
C       0.3046   0.7448   0.6532     C
C        0.305   0.2453   0.6562     C
O       0.3309   0.7165   0.4496     O
O       0.3327   0.2215  0.45265     O
C       0.3605   0.6367   0.6785     C
C       0.3645   0.1372   0.6766     C
Zn     0.38259  0.64828  0.32538    Zn
Zn      0.3845  0.15091   0.3302    Zn
H        0.386   0.9205   0.6739     H
H       0.4112   0.3972   0.7295     H
O       0.4151   0.3613   0.6734     O
O       0.4163   0.8599   0.6714     O
O       0.4887   0.6614  0.69856     O
O       0.4927   0.1635  0.69473     O
O       0.5073   0.8365  0.30527     O
O       0.5113   0.3386  0.30144     O
O       0.5837   0.1401   0.3286     O
O       0.5849   0.6387   0.3266     O
H       0.5888   0.6028   0.2705     H
H        0.614   0.0795   0.3261     H
Zn      0.6155  0.84909   0.6698    Zn
Zn     0.61741  0.35172  0.67462    Zn
C       0.6355   0.8628   0.3234     C
C       0.6395   0.3633   0.3215     C
O       0.6673   0.7785  0.54735     O
O       0.6691   0.2835   0.5504     O
C        0.695   0.7547   0.3438     C
C       0.6954   0.2552   0.3468     C
O        0.716   0.3557  0.81164     O
O       0.7178   0.9733  0.32551     O
O       0.7222   0.8438  0.80256     O
O       0.7231   0.4724  0.31995     O
H       0.7512   0.0478   0.9041     H
H       0.7632   0.7547   0.2953     H
H        0.764   0.2525   0.2994     H
P      0.77677   0.7712  0.47915     P
P      0.77685  0.27307    0.482     P
O       0.8209   0.1556   0.4992     O
O       0.8221   0.6542   0.4952     O
O       0.8306   0.0471   0.9179     O
O       0.8328   0.5605  0.92015     O
P      0.84196  0.43021  0.88423     P
P      0.84357  0.91635  0.87777     P
O        0.867   0.3546  0.97546     O
O       0.8698   0.8444  0.97023     O
O       0.8981   0.8935  0.48664     O
O       0.8982   0.3942  0.48641     O
Zn     0.91992  0.05881  0.41643    Zn
Zn     0.92425  0.55982  0.41275    Zn
H       0.9243   0.9865   0.1402     H
H       0.9266   0.4836   0.1432     H
O        0.936   0.2283   0.1469     O
O       0.9445   0.7275  0.14248     O
C       0.9642   0.1629   0.2175     C
O       0.9651   0.1931  0.31235     O
O       0.9705   0.6958   0.3086     O
C       0.9713    0.663   0.2143     C
Zn     0.97877  0.71857  0.98951    Zn
O       0.9789   0.5172  0.71672     O
O       0.9856   0.0196  0.71886     O
C       0.9948   0.4591   0.8123     C
H       0.9965    0.594   0.7291     H
H       0.9966    0.904   0.2665     H
