data_I
_chemical_name_common  '/home/zhangsd/repos/MofS-CGCNN/ML/data/TSD/clean_cifs/AHOBEG_clean'
_cell_length_a 10.55300
_cell_length_b 12.78900
_cell_length_c 14.44300
_cell_angle_alpha 112.20600
_cell_angle_beta  90.40100
_cell_angle_gamma 94.83900
_space_group_name_H-M_alt      'P 1'


loop_
_space_group_symop_operation_xyz
  'x, y, z' 

loop_
_atom_site_label
_atom_site_fract_x
_atom_site_fract_y
_atom_site_fract_z
_atom_site_type_symbol
C       0.0057   0.5068    0.227     C
H       0.0059   0.6392   0.6182     H
H       0.0274   0.6478   0.9551     H
H       0.0285   0.5752   0.4378     H
O       0.0334   0.6104  0.24667     O
C       0.0449   0.6809   0.5839     C
C        0.058   0.6464   0.4843     C
O       0.0691   0.4423  0.25269     O
N        0.101   0.7908   0.6245     N
C       0.1055    0.621   0.9336     C
H       0.1059    0.742   0.7846     H
C       0.1157   0.5432   0.8357     C
C       0.1181   0.8632   0.7278     C
C       0.1189     0.82   0.8016     C
N       0.1214   0.7315   0.4611     N
O       0.1248   0.8102   0.1262     O
H       0.1288   0.0088   0.7033     H
C       0.1332    0.979   0.7527     C
C        0.139   0.8919   0.9015     C
H       0.1401   0.8623   0.9512     H
C       0.1453    0.817   0.5472     C
C       0.1551   0.0501    0.852     C
C       0.1575   0.0075   0.9262     C
H       0.1668   0.9898   0.1168     H
H       0.1683    0.128   0.8689     H
N       0.1793   0.0842   0.0281     N
C       0.1808   0.0608   0.1129     C
Co     0.18213  0.72886  0.32167    Co
H       0.1871   0.8867   0.5542     H
C       0.1939   0.7307   0.1078     C
C        0.204   0.1978   0.0577     C
C        0.207   0.1622   0.1908     C
H       0.2079   0.2362   0.0143     H
C       0.2121   0.6584   0.9987     C
H       0.2137   0.1718   0.2578     H
H       0.2177   0.2814   0.7086     H
N        0.222   0.2476   0.1556     N
O       0.2327   0.0594   0.4393     O
C       0.2336   0.5086   0.8001     C
C       0.2369   0.3144   0.6624     C
O       0.2451   0.7012  0.17203     O
C       0.2481   0.4318   0.6929     C
C       0.2487   0.1174   0.5301     C
C       0.2544   0.2457   0.5628     C
Co     0.26373  0.42354  0.22962    Co
O       0.2686   0.0779   0.5944     O
C       0.2782   0.4806   0.6237     C
C       0.2805   0.2958   0.4945     C
H       0.2876   0.5592   0.6441     H
H        0.289   0.2503   0.4276     H
C       0.2944   0.4125   0.5241     C
O       0.2989   0.3987   0.3582     O
O       0.3129   0.6063  0.31175     O
C       0.3204   0.4646   0.4478     C
C       0.3297   0.6248   0.9647     C
H        0.337    0.602    0.366     H
C       0.3417   0.5531   0.8655     C
O       0.3607   0.5676  0.47621     O
H        0.376    0.612    0.278     H
H       0.4011     0.65   0.0082     H
O       0.4559   0.4056   0.1871     O
C       0.4702   0.5193   0.8262     C
O        0.494   0.4191   0.8079     O
O        0.506   0.5809   0.1921     O
C       0.5298   0.4807   0.1738     C
O       0.5441   0.5944   0.8129     O
H       0.5989     0.35   0.9918     H
H        0.624    0.388    0.722     H
O       0.6393   0.4324  0.52379     O
C       0.6583   0.4469   0.1345     C
H        0.663    0.398    0.634     H
C       0.6703   0.3752   0.0353     C
C       0.6796   0.5354   0.5522     C
O       0.6871   0.3937  0.68825     O
O       0.7011   0.6013   0.6418     O
C       0.7056   0.5875   0.4759     C
H        0.711   0.7497   0.5724     H
H       0.7124   0.4408   0.3559     H
C       0.7195   0.7042   0.5055     C
C       0.7218   0.5194   0.3763     C
O       0.7314   0.9221   0.4056     O
Co     0.73627  0.57646  0.77038    Co
C       0.7456   0.7543   0.4372     C
C       0.7513   0.8826   0.4699     C
C       0.7519   0.5682   0.3071     C
O       0.7549   0.2988  0.82797     O
C       0.7631   0.6856   0.3376     C
C       0.7664   0.4914   0.1999     C
O       0.7673   0.9406   0.5607     O
N        0.778   0.7524   0.8444     N
H       0.7823   0.7186   0.2914     H
H       0.7863   0.8282   0.7422     H
C       0.7879   0.3416   0.0013     C
H       0.7921   0.7638   0.9857     H
C        0.793   0.8378   0.8092     C
C        0.796   0.8022   0.9423     C
C       0.8061   0.2693   0.8922     C
H       0.8129   0.1133   0.4458     H
Co     0.81787  0.27114  0.67833    Co
C       0.8192   0.9392   0.8871     C
N       0.8207   0.9158   0.9719     N
H       0.8317    0.872   0.1311     H
H       0.8332   0.0102   0.8832     H
C       0.8425   0.9925   0.0738     C
C       0.8449   0.9499    0.148     C
C       0.8547    0.183   0.4528     C
H       0.8599   0.1377   0.0488     H
C        0.861   0.1081   0.0985     C
C       0.8668    0.021   0.2473     C
H       0.8712   0.9912   0.2967     H
O       0.8752   0.1898   0.8738     O
N       0.8786   0.2685   0.5389     N
C       0.8811     0.18   0.1984     C
C       0.8819   0.1368   0.2722     C
C       0.8843   0.4568   0.1643     C
H       0.8941    0.258   0.2154     H
C       0.8945    0.379   0.0664     C
N        0.899   0.2092   0.3755     N
O       0.9309   0.5577  0.74731     O
C        0.942   0.3536   0.5157     C
C       0.9551   0.3191   0.4161     C
O       0.9666   0.3896  0.75333     O
H       0.9715   0.4248   0.5622     H
H       0.9726   0.3522   0.0449     H
H       0.9941   0.3608   0.3818     H
C       0.9943   0.4932    0.773     C
