data_I
_chemical_name_common  '/home/zhangsd/repos/MofS-CGCNN/ML/data/TSD/clean_cifs/AHOKIR_clean'
_cell_length_a 20.03050
_cell_length_b  6.67130
_cell_length_c  4.39960
_cell_angle_alpha 90.00000
_cell_angle_beta  91.37900
_cell_angle_gamma 90.00000
_space_group_name_H-M_alt      'P 1'


loop_
_space_group_symop_operation_xyz
  'x, y, z' 

loop_
_atom_site_label
_atom_site_fract_x
_atom_site_fract_y
_atom_site_fract_z
_atom_site_type_symbol
C       0.0369      0.5    0.438     C
C       0.0961      0.5    0.667     C
P        0.175      0.5   0.4788     P
O       0.1815    0.304   0.3008     O
O       0.1815    0.696   0.3008     O
O       0.2277      0.5    0.747     O
Cu        0.25     0.25      0.0    Cu
Cu        0.25     0.75      0.0    Cu
O       0.2723      0.0    0.253     O
O       0.3185    0.196   0.6992     O
O       0.3185    0.804   0.6992     O
P        0.325      0.0   0.5212     P
C       0.4039      0.0    0.333     C
C       0.4631      0.0    0.562     C
C       0.5369      0.0    0.438     C
C       0.5961      0.0    0.667     C
P        0.675      0.0   0.4788     P
O       0.6815    0.196   0.3008     O
O       0.6815    0.804   0.3008     O
O       0.7277      0.0    0.747     O
Cu        0.75     0.25      0.0    Cu
Cu        0.75     0.75      0.0    Cu
O       0.7723      0.5    0.253     O
O       0.8185    0.304   0.6992     O
O       0.8185    0.696   0.6992     O
P        0.825      0.5   0.5212     P
C       0.9039      0.5    0.333     C
C       0.9631      0.5    0.562     C
