data_I
_chemical_name_common  '/home/zhangsd/repos/MofS-CGCNN/ML/data/TSD/clean_cifs/AJINOY_clean'
_cell_length_a  9.99830
_cell_length_b 11.01590
_cell_length_c 12.37460
_cell_angle_alpha 90.95500
_cell_angle_beta  110.69400
_cell_angle_gamma 95.11600
_space_group_name_H-M_alt      'P 1'


loop_
_space_group_symop_operation_xyz
  'x, y, z' 

loop_
_atom_site_label
_atom_site_fract_x
_atom_site_fract_y
_atom_site_fract_z
_atom_site_type_symbol
C       0.0081   0.5271   0.2957     C
H       0.0163   0.0602    0.824     H
C       0.0179    0.373   0.6465     C
C        0.018   0.9829   0.1197     C
H       0.0184   0.1741   0.9841     H
H       0.0285   0.8167   0.3666     H
H       0.0475    0.652   0.7529     H
C       0.0612   0.8915   0.0489     C
C       0.0668   0.5857   0.7124     C
H       0.0674   0.8837   0.7107     H
C       0.0724   0.7435   0.3678     C
H       0.0791   0.5372   0.2611     H
O       0.0801   0.2061   0.4824     O
N       0.0959   0.9491   0.9552     N
H       0.1026   0.0405   0.1635     H
H       0.1242   0.9458    0.553     H
C       0.1298   0.3898   0.6018     C
H       0.1459   0.8538   0.0998     H
C       0.1517   0.9372   0.7221     C
C       0.1694   0.6032   0.6625     C
C       0.1709   0.2864   0.5437     C
C       0.1857   0.9754   0.6284     C
C       0.2027   0.5051   0.6093     C
H       0.2057   0.3962   0.1687     H
O       0.2106   0.2808   0.9401     O
C        0.211   0.7532   0.3823     C
H        0.216   0.3275   0.3458     H
C       0.2168   0.9287   0.9373     C
H       0.2171   0.6823   0.6644     H
C       0.2412   0.9775   0.8327     C
O       0.2455   0.9667    0.411     O
H        0.253   0.6802   0.3775     H
C       0.2605   0.3306      0.2     C
C       0.2661   0.2883   0.3049     C
H       0.2763   0.5164   0.5775     H
N       0.3015   0.0522   0.6392     N
C        0.305   0.8699   0.4054     C
O       0.3061   0.2857   0.5619     O
O       0.3095   0.8697   0.0021     O
H       0.3136   0.4084   0.8392     H
C        0.319   0.3166   0.0213     C
Cu     0.32465  0.12301  0.49653    Cu
C       0.3349   0.2773   0.1401     C
N       0.3383   0.1951   0.3524     N
H       0.3611    0.607   0.9122     H
C       0.3625   0.0566   0.8449     C
C       0.3869    0.092   0.7465     C
C        0.407   0.1416    0.293     C
C       0.4093   0.1805   0.1889     C
C       0.4112   0.4339   0.8953     C
N       0.4226   0.3911    0.009     N
H       0.4273   0.0856   0.9193     H
O       0.4327   0.8667   0.4171     O
C       0.4397   0.5684   0.8983     C
H       0.4431   0.5938   0.8229     H
H       0.4567   0.0734   0.3242     H
H       0.4619   0.1409   0.1505     H
H       0.4687   0.1477   0.7552     H
H        0.481   0.3959   0.8687     H
H        0.519   0.6041   0.1313     H
H       0.5313   0.8523   0.2448     H
H       0.5381   0.8591   0.8495     H
H       0.5433   0.9266   0.6758     H
H       0.5569   0.4062   0.1771     H
C       0.5603   0.4316   0.1017     C
O       0.5673   0.1333   0.5829     O
H       0.5727   0.9144   0.0807     H
N       0.5774   0.6089    0.991     N
C       0.5888   0.5661   0.1047     C
C       0.5907   0.8195   0.8111     C
C        0.593   0.8584    0.707     C
C       0.6131    0.908   0.2535     C
C       0.6375   0.9434   0.1551     C
H       0.6389    0.393   0.0878     H
N       0.6617   0.8049   0.6476     N
C       0.6651   0.7227   0.8599     C
Cu     0.67535  0.87699  0.50347    Cu
C        0.681   0.6834   0.9787     C
H       0.6864   0.5916   0.1608     H
O       0.6905   0.1303   0.9979     O
O       0.6939   0.7143   0.4381     O
C        0.695   0.1301   0.5946     C
N       0.6985   0.9478   0.3608     N
H       0.7237   0.4836   0.4225     H
C       0.7339   0.7117   0.6951     C
C       0.7395   0.6694      0.8     C
H        0.747   0.3198   0.6225     H
O       0.7545   0.0333    0.589     O
C       0.7588   0.0225   0.1673     C
H       0.7829   0.3177   0.3356     H
C       0.7832   0.0713   0.0627     C
H        0.784   0.6725   0.6542     H
C        0.789   0.2468   0.6177     C
O       0.7894   0.7192   0.0599     O
H       0.7943   0.6038   0.8313     H
C       0.7973   0.4949   0.3907     C
C       0.8143   0.0246   0.3716     C
C       0.8291   0.7136   0.4563     C
C       0.8306   0.3968   0.3375     C
C       0.8483   0.0628   0.2779     C
H       0.8541   0.1462   0.9002     H
C       0.8702   0.6102   0.3982     C
H       0.8758   0.0542    0.447     H
H       0.8974   0.9595   0.8365     H
N       0.9041   0.0509   0.0448     N
O       0.9199   0.7939   0.5176     O
H       0.9209   0.4628   0.7389     H
C       0.9276   0.2565   0.6322     C
H       0.9326   0.1163   0.2893     H
C       0.9332   0.4143   0.2876     C
C       0.9388   0.1085   0.9511     C
H       0.9525    0.348   0.2471     H
H       0.9715   0.1833   0.6334     H
H       0.9816   0.8259   0.0159     H
C        0.982   0.0171   0.8803     C
C       0.9821    0.627   0.3535     C
H       0.9837   0.9398    0.176     H
C       0.9919   0.4729   0.7043     C
