data_I
_chemical_name_common  '/home/zhangsd/repos/MofS-CGCNN/ML/data/TSD/clean_cifs/ALATAK_clean'
_cell_length_a 14.16000
_cell_length_b  7.27100
_cell_length_c  8.98200
_cell_angle_alpha 90.00000
_cell_angle_beta  108.85100
_cell_angle_gamma 90.00000
_space_group_name_H-M_alt      'P 1'


loop_
_space_group_symop_operation_xyz
  'x, y, z' 

loop_
_atom_site_label
_atom_site_fract_x
_atom_site_fract_y
_atom_site_fract_z
_atom_site_type_symbol
H          0.0   0.1512      0.0     H
H          0.0   0.1516      0.5     H
C          0.0   0.3001      0.0     C
C          0.0   0.3007      0.5     C
C          0.0   0.6993      0.5     C
C          0.0   0.6999      0.0     C
H          0.0   0.8484      0.5     H
H          0.0   0.8488      0.0     H
C      0.07923   0.3944   0.6055     C
C      0.07923   0.6056   0.6055     C
C      0.08899   0.3945   0.0231     C
C      0.08899   0.6055   0.0231     C
O      0.15303   0.3195   0.7065     O
O      0.15303   0.6805   0.7065     O
O       0.1726   0.3197   0.0432     O
O       0.1726   0.6803   0.0432     O
Ca     0.22726      0.0  0.08784    Ca
Ca     0.27274      0.5  0.91216    Ca
O       0.3274   0.1803   0.9568     O
O       0.3274   0.8197   0.9568     O
O      0.34697   0.1805   0.2935     O
O      0.34697   0.8195   0.2935     O
C      0.41101   0.1055   0.9769     C
C      0.41101   0.8945   0.9769     C
C      0.42077   0.1056   0.3945     C
C      0.42077   0.8944   0.3945     C
C          0.5   0.1993      0.5     C
C          0.5   0.1999      0.0     C
H          0.5   0.3484      0.5     H
H          0.5   0.3488      0.0     H
H          0.5   0.6512      0.0     H
H          0.5   0.6516      0.5     H
C          0.5   0.8001      0.0     C
C          0.5   0.8007      0.5     C
C      0.57923   0.1056   0.6055     C
C      0.57923   0.8944   0.6055     C
C      0.58899   0.1055   0.0231     C
C      0.58899   0.8945   0.0231     C
O      0.65303   0.1805   0.7065     O
O      0.65303   0.8195   0.7065     O
O       0.6726   0.1803   0.0432     O
O       0.6726   0.8197   0.0432     O
Ca     0.72726      0.5  0.08784    Ca
Ca     0.77274      0.0  0.91216    Ca
O       0.8274   0.3197   0.9568     O
O       0.8274   0.6803   0.9568     O
O      0.84697   0.3195   0.2935     O
O      0.84697   0.6805   0.2935     O
C      0.91101   0.3945   0.9769     C
C      0.91101   0.6055   0.9769     C
C      0.92077   0.3944   0.3945     C
C      0.92077   0.6056   0.3945     C
