data_I
_chemical_name_common  '/home/zhangsd/repos/MofS-CGCNN/ML/data/TSD/clean_cifs/ALUJUN_clean'
_cell_length_a  8.61300
_cell_length_b 10.12200
_cell_length_c 11.09500
_cell_angle_alpha 65.20500
_cell_angle_beta  71.60900
_cell_angle_gamma 78.61700
_space_group_name_H-M_alt      'P 1'


loop_
_space_group_symop_operation_xyz
  'x, y, z' 

loop_
_atom_site_label
_atom_site_fract_x
_atom_site_fract_y
_atom_site_fract_z
_atom_site_type_symbol
C       0.0233   0.9101   0.9314     C
H       0.0416   0.8489   0.8842     H
C       0.0804    0.578   0.8619     C
C       0.0834   0.3913   0.0884     C
O        0.105   0.1968   0.3058     O
C       0.1325   0.0698   0.9916     C
H       0.1342   0.6292   0.7708     H
C       0.1566   0.9792   0.9213     C
C       0.1644   0.4699    0.949     C
C       0.1769   0.2705   0.1798     C
H        0.219   0.1157   0.9868     H
H       0.2758    0.448   0.9161     H
C       0.3259   0.9542    0.839     C
O       0.3263   0.2449   0.1268     O
O       0.3446   0.8775   0.7703     O
Y      0.36688  0.06328  0.33869     Y
O       0.3777   0.2797   0.3614     O
C       0.4431    0.255   0.4563     C
H       0.4462   0.2773    0.686     H
O       0.4474   0.0115   0.8356     O
C       0.4678   0.3659    0.612     C
C       0.4716   0.3812   0.4804     C
O       0.4816   0.1278   0.5316     O
H       0.4948   0.4752   0.7184     H
C       0.4966   0.4844    0.631     C
C       0.5034   0.5156    0.369     C
H       0.5052   0.5248   0.2816     H
O       0.5184   0.8722   0.4684     O
C       0.5284   0.6188   0.5196     C
C       0.5322   0.6341    0.388     C
O       0.5526   0.9885   0.1644     O
H       0.5538   0.7227    0.314     H
C       0.5569    0.745   0.5437     C
O       0.6223   0.7203   0.6386     O
Y      0.63312  0.93672  0.66131     Y
O       0.6554   0.1225   0.2297     O
O       0.6737   0.7551   0.8732     O
C       0.6741   0.0458    0.161     C
H       0.7242    0.552   0.0839     H
H        0.781   0.8843   0.0132     H
C       0.8231   0.7295   0.8202     C
C       0.8356   0.5301    0.051     C
C       0.8434   0.0208   0.0787     C
H       0.8658   0.3708   0.2292     H
C       0.8675   0.9302   0.0084     C
O        0.895   0.8032   0.6942     O
C       0.9166   0.6087   0.9116     C
C       0.9196    0.422   0.1381     C
H       0.9584   0.1511   0.1158     H
C       0.9767   0.0899   0.0686     C
