data_I
_chemical_name_common  '/home/zhangsd/repos/MofS-CGCNN/ML/data/TSD/clean_cifs/ALUKIC_clean'
_cell_length_a 16.10350
_cell_length_b 16.10350
_cell_length_c 28.12800
_cell_angle_alpha 79.39080
_cell_angle_beta  79.39080
_cell_angle_gamma 63.17720
_space_group_name_H-M_alt      'P 1'


loop_
_space_group_symop_operation_xyz
  'x, y, z' 

loop_
_atom_site_label
_atom_site_fract_x
_atom_site_fract_y
_atom_site_fract_z
_atom_site_type_symbol
O      0.03648  0.53072   0.4138     O
O      0.04176  0.59068  0.62603     O
N      0.04442  0.48464  0.00526     N
H       0.0508   0.3536   0.9574     H
H       0.0644   0.6338   0.7034     H
Ce     0.06662  0.53122   0.5461    Ce
H       0.0686   0.5696   0.3295     H
C      0.07615  0.57895  0.42302     C
C      0.07657  0.64537  0.60996     C
O      0.07936  0.32504  0.45394     O
O      0.08465  0.59245  0.46481     O
C      0.08659  0.67819  0.68993     C
C       0.0929   0.7047  0.63889     C
C      0.10117  0.60377  0.33147     C
O       0.1035  0.40294  0.50286     O
O      0.10362  0.65646  0.56344     O
C      0.10521  0.33541  0.97146     C
H       0.1057   0.7069   0.7535     H
C      0.11042  0.39782  0.00089     C
C       0.1132   0.6186  0.37694     C
C      0.11437  0.71977  0.71978     C
C       0.1293   0.3351  0.48088     C
H        0.134   0.6338   0.2578     H
C      0.13994  0.64194  0.28869     C
C      0.14346  0.75586  0.61917     C
C       0.1546     0.78  0.69905     C
H       0.1578   0.8062   0.8665     H
H       0.1611   0.7603   0.5857     H
C      0.16339  0.66719  0.37959     C
C      0.16858  0.80038  0.64755     C
H       0.1723   0.6747     0.41     H
H       0.1761   0.2117    0.944     H
C      0.17888  0.25028  0.96397     C
N      0.17997  0.80957  0.77491     N
C      0.18724  0.69244  0.29527     C
C      0.18872  0.37072  0.02099     C
N      0.19043  0.82003  0.72509     N
H       0.1925   0.4115   0.0391     H
H       0.1938   0.8422   0.6335     H
C      0.19962  0.83142  0.85245     C
C      0.20068  0.70468  0.33871     C
H       0.2117   0.1761    0.444     H
C         0.22   0.8454  0.80095     C
C      0.22268  0.25908  0.48744     C
N      0.22604  0.72404  0.25082     N
H       0.2343   0.7377   0.3409     H
H       0.2397   0.8389   0.9143     H
C      0.24414  0.85654  0.88083     C
C      0.25028  0.17888  0.46397     C
C      0.25908  0.22268  0.98744     C
H       0.2623   0.7657   0.1591     H
C      0.26438  0.28498  0.01621     C
H       0.2678   0.3176   0.5312     H
N      0.27596  0.77396  0.24918     N
C      0.28023  0.88563  0.78022     C
C      0.28498  0.26438  0.51621     C
H       0.2931   0.8943   0.7465     H
C       0.2953   0.9071  0.86111     C
C      0.29532  0.79932  0.16129     C
C      0.30756  0.81276  0.20473     C
H       0.3176   0.2678   0.0312     H
C      0.32181  0.91341  0.81007     C
O      0.32504  0.07936  0.95394     O
H       0.3253   0.8277     0.09     H
C      0.33281  0.83661  0.12041     C
C       0.3351   0.1293  0.98088     C
C      0.33541  0.10521  0.47146     C
O      0.34354  0.89638  0.93656     O
H       0.3536   0.0508   0.4574     H
C      0.35463  0.92343  0.89004     C
C      0.35806  0.86006  0.21131     C
H       0.3662    0.866   0.2422     H
H       0.3662   0.9356   0.7966     H
C      0.37072  0.18872  0.52099     C
C       0.3814   0.8868  0.12306     C
C      0.39623  0.89883  0.16853     C
C      0.39782  0.11042  0.50089     C
O      0.40294   0.1035  0.00286     O
O      0.40755  0.91535  0.03519     O
O      0.40932  0.95824  0.87397     O
H       0.4115   0.1925   0.5391     H
C      0.42105  0.92385  0.07698     C
H       0.4304   0.9314   0.1705     H
Ce     0.46878  0.93338   0.9539    Ce
O      0.46928  0.96352   0.0862     O
N      0.48464  0.04442  0.50526     N
N      0.51536  0.95558  0.49474     N
O      0.53072  0.03648   0.9138     O
Ce     0.53122  0.06662   0.0461    Ce
H       0.5696   0.0686   0.8295     H
C      0.57895  0.07615  0.92302     C
H       0.5885   0.8075   0.4609     H
O      0.59068  0.04176  0.12603     O
O      0.59245  0.08465  0.96481     O
O      0.59706   0.8965  0.99714     O
C      0.60218  0.88958  0.49911     C
C      0.60377  0.10117  0.83147     C
C       0.6186   0.1132  0.87694     C
C      0.62928  0.81128  0.47901     C
H       0.6338   0.0644   0.2034     H
H       0.6338    0.134   0.7578     H
C      0.64194  0.13994  0.78869     C
C      0.64537  0.07657  0.10996     C
H       0.6464   0.9492   0.5426     H
O      0.65646  0.10362  0.06344     O
C      0.66459  0.89479  0.52854     C
C       0.6649   0.8707  0.01912     C
C      0.66719  0.16339  0.87959     C
H       0.6747   0.1723     0.91     H
O      0.67496  0.92064  0.04606     O
C      0.67819  0.08659  0.18993     C
H       0.6824   0.7322   0.9688     H
C      0.69244  0.18724  0.79527     C
C      0.70468  0.20068  0.83871     C
C       0.7047   0.0929  0.13889     C
H       0.7069   0.1057   0.2535     H
C      0.71502  0.73562  0.48379     C
C      0.71977  0.11437  0.21978     C
N      0.72404  0.22604  0.75082     N
H       0.7322   0.6824   0.4688     H
C      0.73562  0.71502  0.98379     C
H       0.7377   0.2343   0.8409     H
C      0.74092  0.77732  0.01256     C
C      0.74972  0.82112  0.53603     C
C      0.75586  0.14346  0.11917     C
H       0.7603   0.1611   0.0857     H
H       0.7657   0.2623   0.6591     H
N      0.77396  0.27596  0.74918     N
C      0.77732  0.74092  0.51256     C
C         0.78   0.1546  0.19905     C
H       0.7883   0.8239    0.556     H
C      0.79932  0.29532  0.66129     C
C      0.80038  0.16858  0.14755     C
H       0.8062   0.1578   0.3665     H
H       0.8075   0.5885   0.9609     H
N      0.80957  0.17997  0.27491     N
C      0.81128  0.62928  0.97901     C
C      0.81276  0.30756  0.70473     C
N      0.82003  0.19043  0.22509     N
C      0.82112  0.74972  0.03603     C
H       0.8239   0.7883    0.056     H
H       0.8277   0.3253     0.59     H
C      0.83142  0.19962  0.35245     C
C      0.83661  0.33281  0.62041     C
H       0.8389   0.2397   0.4143     H
H       0.8422   0.1938   0.1335     H
C       0.8454     0.22  0.30095     C
C      0.85654  0.24414  0.38083     C
C      0.86006  0.35806  0.71131     C
H        0.866   0.3662   0.7422     H
C       0.8707   0.6649  0.51912     C
C      0.88563  0.28023  0.28022     C
C       0.8868   0.3814  0.62306     C
C      0.88958  0.60218  0.99911     C
H       0.8943   0.2931   0.2465     H
C      0.89479  0.66459  0.02854     C
O      0.89638  0.34354  0.43656     O
O       0.8965  0.59706  0.49714     O
C      0.89883  0.39623  0.66853     C
C       0.9071   0.2953  0.36111     C
C      0.91341  0.32181  0.31007     C
O      0.91535  0.40755  0.53519     O
O      0.92064  0.67496  0.54606     O
C      0.92343  0.35463  0.39004     C
C      0.92385  0.42105  0.57698     C
H       0.9314   0.4304   0.6705     H
Ce     0.93338  0.46878   0.4539    Ce
H       0.9356   0.3662   0.2966     H
H       0.9492   0.6464   0.0426     H
N      0.95558  0.51536  0.99474     N
O      0.95824  0.40932  0.37397     O
O      0.96352  0.46928   0.5862     O
