data_I
_chemical_name_common  '/home/zhangsd/repos/MofS-CGCNN/ML/data/TSD/clean_cifs/ALURAB_clean'
_cell_length_a 11.40000
_cell_length_b 18.65700
_cell_length_c 24.38000
_cell_angle_alpha 90.00000
_cell_angle_beta  90.00000
_cell_angle_gamma 90.00000
_space_group_name_H-M_alt      'P 1'


loop_
_space_group_symop_operation_xyz
  'x, y, z' 

loop_
_atom_site_label
_atom_site_fract_x
_atom_site_fract_y
_atom_site_fract_z
_atom_site_type_symbol
C       0.0252      0.0      0.0     C
C       0.0264   0.3165   0.8309     C
C       0.0264   0.6835   0.1691     C
C         0.03   0.2063   0.0207     C
C         0.03   0.7937   0.9793     C
O       0.0509   0.2989   0.8789     O
O       0.0509   0.7011   0.1211     O
H       0.0522   0.0168   0.0811     H
H       0.0522   0.9832   0.9189     H
H       0.0527   0.1787   0.9405     H
H       0.0527   0.8213   0.0595     H
H       0.0561   0.2342   0.0998     H
H       0.0561   0.7658   0.9002     H
H       0.0824    0.361   0.7663     H
H       0.0824    0.639   0.2337     H
C        0.091     0.01   0.0475     C
C        0.091     0.99   0.9525     C
H       0.0924   0.1112   0.2564     H
C       0.0924   0.1885   0.9735     C
C       0.0924   0.8115   0.0265     C
H       0.0924   0.8888   0.7436     H
C        0.093   0.1952   0.3076     C
C        0.093   0.8048   0.6924     C
C       0.0946   0.2218   0.0671     C
C       0.0946   0.7782   0.9329     C
C          0.1   0.2939   0.5203     C
C          0.1   0.7061   0.4797     C
C       0.1036      0.5      0.5     C
N       0.1045   0.3493   0.7993     N
N       0.1045   0.6507   0.2007     N
H       0.1215   0.3421    0.594     H
H       0.1215   0.6579    0.406     H
H       0.1275   0.2407   0.4486     H
H       0.1275   0.7593   0.5514     H
H       0.1276   0.2842   0.3532     H
H       0.1276   0.7158   0.6468     H
H       0.1283   0.4415   0.4306     H
H       0.1283   0.5585   0.5694     H
C       0.1376   0.1502   0.2686     C
C       0.1376   0.8498   0.7314     C
C       0.1595   0.2524   0.3272     C
C       0.1595   0.7476   0.6728     C
C       0.1616   0.3232   0.5636     C
C       0.1616   0.6768   0.4364     C
C       0.1654   0.2632   0.4782     C
C       0.1654   0.7368   0.5218     C
C       0.1672   0.4656   0.4592     C
C       0.1672   0.5344   0.5408     C
H       0.1908   0.4709   0.8387     H
H       0.1908   0.5291   0.1613     H
C         0.21   0.0103   0.0463     C
C         0.21   0.9897   0.9537     C
C       0.2116   0.1856   0.9758     C
C       0.2116   0.8144   0.0242     C
C       0.2164    0.219   0.0656     C
C       0.2164    0.781   0.9344     C
C       0.2254   0.3675   0.8153     C
C       0.2254   0.6325   0.1847     C
H       0.2255   0.4645    0.776     H
H       0.2255   0.5355    0.224     H
O       0.2264   0.0869   0.1676     O
O       0.2264   0.9131   0.8324     O
H       0.2364   0.3524   0.8539     H
H       0.2364   0.6476   0.1461     H
C       0.2429   0.4477   0.8127     C
C       0.2429   0.5523   0.1873     C
C       0.2479   0.1612    0.247     C
C       0.2479   0.8388    0.753     C
H       0.2509    0.018   0.0792     H
H       0.2509    0.982   0.9208     H
H       0.2519   0.1725   0.9437     H
H       0.2519   0.8275   0.0563     H
H       0.2589    0.231   0.0974     H
H       0.2589    0.769   0.9026     H
N       0.2719      0.0      0.0     N
C       0.2744   0.2622   0.3079     C
C       0.2744   0.7378   0.6921     C
N        0.275      0.2   0.0203     N
N        0.275      0.8   0.9797     N
O       0.2801   0.2937   0.7398     O
O       0.2801   0.7063   0.2602     O
H       0.2811   0.1104   0.8427     H
H       0.2811   0.8896   0.1573     H
C       0.2819   0.3245   0.5618     C
C       0.2819   0.6755   0.4382     C
C       0.2859    0.266   0.4802     C
C       0.2859    0.734   0.5198     C
C        0.288   0.4671   0.4611     C
C        0.288   0.5329   0.5389     C
C       0.2942   0.1146   0.2017     C
C       0.2942   0.8854   0.7983     C
O       0.3042   0.3739   0.3517     O
O       0.3042   0.6261   0.6483     O
H       0.3088   0.1936    0.843     H
H       0.3088   0.8064    0.157     H
C       0.3149   0.3279   0.7807     C
C       0.3149   0.6721   0.2193     C
C       0.3171   0.2171   0.2659     C
C       0.3171   0.7829   0.7341     C
H       0.3214   0.3461   0.5913     H
H       0.3214   0.6539   0.4087     H
H       0.3236   0.4591   0.8218     H
H       0.3236   0.5409   0.1782     H
H       0.3282    0.245   0.4513     H
H       0.3282    0.755   0.5487     H
H       0.3291   0.4433    0.433     H
H       0.3291   0.5567    0.567     H
H       0.3299    0.148   0.7891     H
H       0.3299    0.852   0.2109     H
C       0.3331   0.1473   0.8289     C
C       0.3331   0.8527   0.1711     C
N       0.3473   0.2972   0.5211     N
N       0.3473   0.7028   0.4789     N
C       0.3478   0.3208   0.3311     C
C       0.3478   0.6792   0.6689     C
N       0.3511      0.5      0.5     N
H        0.366   0.4661   0.6361     H
H        0.366   0.5339   0.3639     H
H       0.3671   0.4046   0.6809     H
H       0.3671   0.5954   0.3191     H
H       0.3919    0.225   0.2509     H
H       0.3919    0.775   0.7491     H
H       0.4061   0.4834   0.6968     H
H       0.4061   0.5166   0.3032     H
C       0.4065   0.4475    0.668     C
C       0.4065   0.5525    0.332     C
N        0.409   0.1064   0.1983     N
N        0.409   0.8936   0.8017     N
H       0.4097   0.4362   0.9237     H
H       0.4097   0.5638   0.0763     H
H       0.4175   0.3146   0.9338     H
H       0.4175   0.6854   0.0662     H
O       0.4213   0.3345   0.7946     O
O       0.4213   0.6655   0.2054     O
H       0.4244   0.0254    0.145     H
H       0.4244   0.9746    0.855     H
C       0.4278   0.4164   0.9581     C
C       0.4278   0.5836   0.0419     C
C       0.4333   0.3435   0.9646     C
C       0.4333   0.6565   0.0354     C
C       0.4491   0.4604   0.0024     C
C       0.4491   0.5396   0.9976     C
H       0.4524   0.1232   0.2247     H
H       0.4524   0.8768   0.7753     H
O       0.4529   0.0637  0.93018     O
O       0.4529   0.9363  0.06982     O
C        0.459   0.1316   0.8475     C
C        0.459   0.8684   0.1525     C
N       0.4591   0.3114  0.01096     N
N       0.4591   0.6886  0.98904     N
Co     0.45986      0.0      0.0    Co
O       0.4617   0.1857   0.1064     O
O       0.4617   0.8143   0.8936     O
C       0.4622   0.1175   0.1015     C
C       0.4622   0.8825   0.8985     C
C       0.4633   0.1259   0.9102     C
C       0.4633   0.8741   0.0898     C
O       0.4644  0.09072  0.05372     O
O       0.4644  0.90928  0.94628     O
Co     0.46481  0.19972  0.01869    Co
Co     0.46481  0.80028  0.98131    Co
N       0.4654   0.3115  0.32809     N
N       0.4654   0.6885  0.67191     N
C       0.4666   0.0706   0.1527     C
C       0.4666   0.9294   0.8473     C
O       0.4713   0.1832  0.93724     O
O       0.4713   0.8168  0.06276     O
C       0.4773   0.4275   0.0509     C
C       0.4773   0.5725   0.9491     C
C       0.4812   0.3544   0.0528     C
C       0.4812   0.6456   0.9472     C
H        0.485   0.0856   0.8313     H
H        0.485   0.9144   0.1687     H
H       0.4938   0.4548   0.0824     H
H       0.4938   0.5452   0.9176     H
H       0.4949   0.2721   0.3148     H
H       0.4949   0.7279   0.6852     H
H       0.4988   0.1671   0.5864     H
H       0.4988   0.8329   0.4136     H
H       0.5012   0.3329   0.0864     H
H       0.5012   0.6671   0.9136     H
H       0.5051   0.2279   0.8148     H
H       0.5051   0.7721   0.1852     H
H       0.5062   0.0452   0.5824     H
H       0.5062   0.9548   0.4176     H
H        0.515   0.4144   0.3313     H
H        0.515   0.5856   0.6687     H
C       0.5188   0.1456   0.5528     C
C       0.5188   0.8544   0.4472     C
C       0.5227   0.0725   0.5509     C
C       0.5227   0.9275   0.4491     C
O       0.5287   0.3168  0.43724     O
O       0.5287   0.6832  0.56276     O
C       0.5334   0.4294   0.6527     C
C       0.5334   0.5706   0.3473     C
N       0.5346   0.1885  0.82809     N
N       0.5346   0.8115  0.17191     N
Co     0.53519  0.30028  0.51869    Co
Co     0.53519  0.69972  0.48131    Co
O       0.5356  0.40928  0.55372     O
O       0.5356  0.59072  0.44628     O
C       0.5367   0.3741   0.4102     C
C       0.5367   0.6259   0.5898     C
C       0.5378   0.3825   0.6015     C
C       0.5378   0.6175   0.3985     C
O       0.5383   0.3143   0.6064     O
O       0.5383   0.6857   0.3936     O
Co     0.54014      0.5      0.5    Co
N       0.5409   0.1886  0.51096     N
N       0.5409   0.8114  0.48904     N
C        0.541   0.3684   0.3475     C
C        0.541   0.6316   0.6525     C
O       0.5471   0.4363  0.43018     O
O       0.5471   0.5637  0.56982     O
H       0.5476   0.3768   0.7247     H
H       0.5476   0.6232   0.2753     H
C       0.5509   0.0396   0.5024     C
C       0.5509   0.9604   0.4976     C
C       0.5667   0.1565   0.4646     C
C       0.5667   0.8435   0.5354     C
C       0.5722   0.0836   0.4581     C
C       0.5722   0.9164   0.5419     C
H       0.5756   0.4746    0.645     H
H       0.5756   0.5254    0.355     H
O       0.5787   0.1655   0.2946     O
O       0.5787   0.8345   0.7054     O
H       0.5825   0.1854   0.4338     H
H       0.5825   0.8146   0.5662     H
H       0.5903   0.0638   0.4237     H
H       0.5903   0.9362   0.5763     H
N        0.591   0.3936   0.6983     N
N        0.591   0.6064   0.3017     N
C       0.5935   0.0525    0.168     C
C       0.5935   0.9475    0.832     C
H       0.5939   0.0166   0.1968     H
H       0.5939   0.9834   0.8032     H
H       0.6081    0.275   0.7509     H
H       0.6081    0.725   0.2491     H
H       0.6329   0.0954   0.1809     H
H       0.6329   0.9046   0.8191     H
H        0.634   0.0339   0.1361     H
H        0.634   0.9661   0.8639     H
N       0.6489      0.0      0.0     N
C       0.6522   0.1792   0.8311     C
C       0.6522   0.8208   0.1689     C
N       0.6527   0.2028   0.0211     N
N       0.6527   0.7972   0.9789     N
C       0.6669   0.3527   0.3289     C
C       0.6669   0.6473   0.6711     C
H       0.6701    0.352   0.2891     H
H       0.6701    0.648   0.7109     H
H       0.6709   0.0567    0.933     H
H       0.6709   0.9433    0.067     H
H       0.6718    0.255   0.9513     H
H       0.6718    0.745   0.0487     H
H       0.6764   0.0409   0.3218     H
H       0.6764   0.9591   0.6782     H
H       0.6786   0.1539   0.0913     H
H       0.6786   0.8461   0.9087     H
C       0.6829   0.2829   0.7659     C
C       0.6829   0.7171   0.2341     C
C       0.6851   0.1721   0.2807     C
C       0.6851   0.8279   0.7193     C
H       0.6912   0.3064    0.343     H
H       0.6912   0.6936    0.657     H
O       0.6958   0.1261   0.8517     O
O       0.6958   0.8739   0.1483     O
C       0.7058   0.3854   0.7017     C
C       0.7058   0.6146   0.2983     C
C        0.712   0.0329   0.9611     C
C        0.712   0.9671   0.0389     C
C       0.7141    0.234   0.9802     C
C       0.7141    0.766   0.0198     C
C       0.7181   0.1755   0.0618     C
C       0.7181   0.8245   0.9382     C
H       0.7189   0.3896   0.3427     H
H       0.7189   0.6104   0.6573     H
O       0.7199   0.2063   0.2398     O
O       0.7199   0.7937   0.7602     O
N        0.725      0.3   0.5203     N
N        0.725      0.7   0.4797     N
C       0.7256   0.2378   0.8079     C
C       0.7256   0.7622   0.1921     C
N       0.7281      0.5      0.5     N
H       0.7411    0.269   0.5974     H
H       0.7411    0.731   0.4026     H
H       0.7481   0.3275   0.4437     H
H       0.7481   0.6725   0.5563     H
H       0.7491    0.482   0.5792     H
H       0.7491    0.518   0.4208     H
C       0.7521   0.3388    0.747     C
C       0.7521   0.6612    0.253     C
C       0.7571   0.0523   0.3127     C
C       0.7571   0.9477   0.6873     C
H       0.7636   0.1476   0.3539     H
H       0.7636   0.8524   0.6461     H
O       0.7736   0.4131   0.6676     O
O       0.7736   0.5869   0.3324     O
H       0.7745   0.0355    0.276     H
H       0.7745   0.9645    0.724     H
C       0.7746   0.1325   0.3153     C
C       0.7746   0.8675   0.6847     C
C       0.7836    0.281   0.5656     C
C       0.7836    0.719   0.4344     C
C       0.7884   0.3144   0.4758     C
C       0.7884   0.6856   0.5242     C
C         0.79   0.4897   0.5463     C
C         0.79   0.5103   0.4537     C
H       0.8092   0.0291   0.3387     H
H       0.8092   0.9709   0.6613     H
C       0.8328   0.0344   0.9592     C
C       0.8328   0.9656   0.0408     C
C       0.8346   0.2368   0.9782     C
C       0.8346   0.7632   0.0218     C
C       0.8384   0.1768   0.0636     C
C       0.8384   0.8232   0.9364     C
C       0.8405   0.2476   0.8272     C
C       0.8405   0.7524   0.1728     C
C       0.8624   0.3498   0.7686     C
C       0.8624   0.6502   0.2314     C
H       0.8717   0.0585   0.9306     H
H       0.8717   0.9415   0.0694     H
H       0.8724   0.2158   0.8532     H
H       0.8724   0.7842   0.1468     H
H       0.8725   0.2593   0.9486     H
H       0.8725   0.7407   0.0514     H
H       0.8785   0.1579    0.094     H
H       0.8785   0.8421    0.906     H
N       0.8955   0.1507   0.2993     N
N       0.8955   0.8493   0.7007     N
C       0.8964      0.0      0.0     C
C          0.9   0.2061   0.0203     C
C          0.9   0.7939   0.9797     C
C       0.9054   0.2782   0.5671     C
C       0.9054   0.7218   0.4329     C
C        0.907   0.3048   0.8076     C
C        0.907   0.6952   0.1924     C
C       0.9076   0.3115   0.4735     C
H       0.9076   0.3888   0.7564     H
H       0.9076   0.6112   0.2436     H
C       0.9076   0.6885   0.5265     C
C        0.909     0.49   0.5475     C
C        0.909     0.51   0.4525     C
H       0.9176    0.139   0.2663     H
H       0.9176    0.861   0.7337     H
H       0.9439   0.2658   0.5998     H
H       0.9439   0.7342   0.4002     H
H       0.9473   0.3213   0.4405     H
H       0.9473   0.6787   0.5595     H
H       0.9478   0.4832   0.5811     H
H       0.9478   0.5168   0.4189     H
O       0.9491   0.2011   0.3789     O
O       0.9491   0.7989   0.6211     O
C         0.97   0.2937   0.5207     C
C         0.97   0.7063   0.4793     C
C       0.9736   0.1835   0.3309     C
C       0.9736   0.8165   0.6691     C
C       0.9748      0.5      0.5     C
