data_I
_chemical_name_common  '/home/zhangsd/repos/MofS-CGCNN/ML/data/TSD/clean_cifs/AMAFOK_clean'
_cell_length_a  7.77190
_cell_length_b 12.66130
_cell_length_c 12.66130
_cell_angle_alpha 64.07450
_cell_angle_beta  78.19330
_cell_angle_gamma 101.80700
_space_group_name_H-M_alt      'P 1'


loop_
_space_group_symop_operation_xyz
  'x, y, z' 

loop_
_atom_site_label
_atom_site_fract_x
_atom_site_fract_y
_atom_site_fract_z
_atom_site_type_symbol
Cu         0.0      0.5      0.5    Cu
N      0.03068  0.67404   0.4663     N
O      0.04939  0.48799  0.73342     O
C      0.05888  0.91034   0.4134     C
C      0.06034  0.71776  0.82254     C
H        0.075    0.992    0.393     H
H        0.083    0.615    0.992     H
C      0.11712  0.17746   0.5403     C
H         0.12    0.842     0.64     H
C      0.12384  0.29528  0.51646     C
C       0.1463  0.33056  0.15186     C
C      0.14854  0.67626  0.91034     C
C      0.17144  0.81174  0.70472     C
C      0.18426  0.48242  0.66944     C
C      0.19443  0.76426  0.42467     C
O      0.20782  0.49446    0.561     O
N      0.21571  0.88118  0.39615     N
O      0.21719  0.26658  0.22141     O
O      0.23118    0.439  0.05546     O
H         0.24     0.36    0.482     H
H        0.278    0.518    0.842     H
H        0.282    0.583    0.157     H
O      0.28664  0.05546  0.50554     O
C      0.29816  0.15186  0.51758     C
H        0.301     0.74    0.417     H
N      0.33453  0.72267  0.88118     N
C      0.34258   0.4597  0.71776     C
N      0.35664  0.85966  0.67404     N
C       0.3597  0.48354  0.81174     C
C       0.3809  0.57533  0.18893     C
N      0.38814  0.60385  0.27733     N
C      0.43017  0.81107  0.76426     C
O       0.4386  0.22141  0.51201     O
H        0.439    0.157     0.26     H
H        0.468    0.393    0.615     H
C      0.47228   0.4134  0.67626     C
N      0.49698   0.4663  0.85966     N
Cu         0.5      0.0      0.5    Cu
Cu         0.5      0.5      0.0    Cu
N      0.50302   0.5337  0.14034     N
C      0.52772   0.5866  0.32374     C
H        0.532    0.607    0.385     H
H        0.561    0.843     0.74     H
O       0.5614  0.77859  0.48799     O
C      0.56983  0.18893  0.23574     C
N      0.61186  0.39615  0.72267     N
C       0.6191  0.42467  0.81107     C
C       0.6403  0.51646  0.18826     C
N      0.64336  0.14034  0.32596     N
C      0.65742   0.5403  0.28224     C
N      0.66547  0.27733  0.11882     N
H        0.699     0.26    0.583     H
C      0.70184  0.84814  0.48242     C
O      0.71336  0.94454  0.49446     O
H        0.718    0.417    0.843     H
H        0.722    0.482    0.158     H
H         0.76     0.64    0.518     H
O      0.76882    0.561  0.94454     O
O      0.78281  0.73342  0.77859     O
N      0.78429  0.11882  0.60385     N
O      0.79218  0.50554    0.439     O
C      0.80557  0.23574  0.57533     C
C      0.81574  0.51758  0.33056     C
C      0.82856  0.18826  0.29528     C
C      0.85146  0.32374  0.08966     C
C       0.8537  0.66944  0.84814     C
C      0.87616  0.70472  0.48354     C
H         0.88    0.158     0.36     H
C      0.88288  0.82254   0.4597     C
H        0.917    0.385    0.008     H
H        0.925    0.008    0.607     H
C      0.93966  0.28224  0.17746     C
C      0.94112  0.08966   0.5866     C
O      0.95061  0.51201  0.26658     O
N      0.96932  0.32596   0.5337     N
