data_I
_chemical_name_common  '/home/zhangsd/repos/MofS-CGCNN/ML/data/TSD/clean_cifs/APAYIB_clean'
_cell_length_a 33.02000
_cell_length_b 13.31700
_cell_length_c 14.22000
_cell_angle_alpha 90.00000
_cell_angle_beta  101.73900
_cell_angle_gamma 90.00000
_space_group_name_H-M_alt      'P 1'


loop_
_space_group_symop_operation_xyz
  'x, y, z' 

loop_
_atom_site_label
_atom_site_fract_x
_atom_site_fract_y
_atom_site_fract_z
_atom_site_type_symbol
C       0.0043   0.1781    0.101     C
C       0.0043   0.8219    0.601     C
H       0.0068   0.3195   0.4174     H
H       0.0068   0.6805   0.9174     H
C       0.0128   0.2703   0.0786     C
C       0.0128   0.7297   0.5786     C
H       0.0293   0.0441   0.1175     H
H       0.0293   0.9559   0.6175     H
C       0.0336    0.109   0.0974     C
C       0.0336    0.891   0.5974     C
H       0.0351   0.0045   0.3984     H
C       0.0351    0.151   0.3709     C
C       0.0351    0.849   0.8709     C
H       0.0351   0.9955   0.8984     H
C       0.0495   0.3012   0.0488     C
C       0.0495   0.6988   0.5488     C
H       0.0496   0.2924   0.3328     H
H       0.0496   0.7076   0.8328     H
C       0.0508    0.056   0.3798     C
C       0.0508    0.944   0.8798     C
H       0.0542   0.3681   0.0355     H
H       0.0542   0.6319   0.5355     H
C       0.0592   0.2266   0.3394     C
C       0.0592   0.7734   0.8394     C
C       0.0697   0.1288   0.0654     C
C       0.0697   0.8712   0.5654     C
C       0.0781   0.2261   0.0405     C
C       0.0781   0.7739   0.5405     C
H       0.0882   0.0772   0.0608     H
H       0.0882   0.9228   0.5608     H
C       0.0894   0.0345   0.3618     C
C       0.0894   0.9655   0.8618     C
C       0.0967   0.2024   0.3186     C
C       0.0967   0.7976   0.8186     C
H       0.0996   0.0307   0.8709     H
H       0.0996   0.9693   0.3709     H
H       0.1118   0.2523   0.2954     H
H       0.1118   0.7477   0.7954     H
C       0.1131   0.1068   0.3307     C
C       0.1131   0.8932   0.8307     C
C       0.1168   0.2495   0.0039     C
C       0.1168   0.7505   0.5039     C
O       0.1274   0.3405   0.0036     O
O       0.1274   0.6595   0.5036     O
O       0.1376   0.1789   0.9812     O
O       0.1376   0.8211   0.4812     O
C       0.1556   0.0864   0.3173     C
C       0.1556   0.9136   0.8173     C
H       0.1563   0.1891   0.2122     H
H       0.1563   0.8109   0.7122     H
H       0.1689   0.0253   0.9143     H
H       0.1689   0.9747   0.4143     H
C       0.1722   0.1407     0.25     C
C       0.1722   0.8593     0.75     C
C         0.18   0.0147   0.3723     C
C         0.18   0.9853   0.8723     C
Eu     0.19208  0.29668  0.95242    Eu
Eu     0.19208  0.70332  0.45242    Eu
O       0.2056   0.2456   0.1156     O
O       0.2056   0.7544   0.6156     O
C       0.2121   0.1225   0.2396     C
C       0.2121   0.8775   0.7396     C
O      0.21548   0.4462   0.0496     O
O      0.21548   0.5538   0.5496     O
C       0.2209    0.002   0.3654     C
C       0.2209    0.998   0.8654     C
C       0.2294   0.1843   0.1644     C
C       0.2294   0.8157   0.6644     C
O      0.23132   0.1495   0.9578     O
O      0.23132   0.8505   0.4578     O
O      0.23498    0.339   0.8436     O
O      0.23498    0.661   0.3436     O
H       0.2357   0.4491   0.7055     H
H       0.2357   0.5509   0.2055     H
C       0.2367    0.058   0.2986     C
C       0.2367    0.942   0.7986     C
C        0.247   0.0709   0.9285     C
C        0.247   0.9291   0.4285     C
C        0.253   0.4291   0.0715     C
C        0.253   0.5709   0.5715     C
C       0.2633    0.442   0.7014     C
C       0.2633    0.558   0.2014     C
H       0.2643   0.0509   0.2945     H
H       0.2643   0.9491   0.7945     H
O      0.26502    0.161   0.1564     O
O      0.26502    0.839   0.6564     O
O      0.26868   0.3505   0.0422     O
O      0.26868   0.6495   0.5422     O
C       0.2706   0.3157   0.8356     C
C       0.2706   0.6843   0.3356     C
C       0.2791    0.498   0.6346     C
C       0.2791    0.502   0.1346     C
O      0.28452   0.0538   0.9504     O
O      0.28452   0.9462   0.4504     O
C       0.2879   0.3775   0.7604     C
C       0.2879   0.6225   0.2604     C
O       0.2944   0.2544   0.8844     O
O       0.2944   0.7456   0.3844     O
Eu     0.30792  0.20332  0.04758    Eu
Eu     0.30792  0.79668  0.54758    Eu
C         0.32   0.4853   0.6277     C
C         0.32   0.5147   0.1277     C
C       0.3278   0.3593     0.75     C
C       0.3278   0.6407     0.25     C
H       0.3311   0.4747   0.0857     H
H       0.3311   0.5253   0.5857     H
H       0.3437   0.3109   0.7878     H
H       0.3437   0.6891   0.2878     H
C       0.3444   0.4136   0.6827     C
C       0.3444   0.5864   0.1827     C
O       0.3624   0.3211   0.0188     O
O       0.3624   0.6789   0.5188     O
O       0.3726   0.1595   0.9964     O
O       0.3726   0.8405   0.4964     O
C       0.3832   0.2505   0.9961     C
C       0.3832   0.7495   0.4961     C
C       0.3869   0.3932   0.6693     C
C       0.3869   0.6068   0.1693     C
H       0.3882   0.2477   0.7046     H
H       0.3882   0.7523   0.2046     H
H       0.4004   0.4693   0.1291     H
H       0.4004   0.5307   0.6291     H
C       0.4033   0.2976   0.6814     C
C       0.4033   0.7024   0.1814     C
C       0.4106   0.4655   0.6382     C
C       0.4106   0.5345   0.1382     C
H       0.4118   0.4228   0.9392     H
H       0.4118   0.5772   0.4392     H
C       0.4219   0.2739   0.9595     C
C       0.4219   0.7261   0.4595     C
C       0.4303   0.3712   0.9346     C
C       0.4303   0.6288   0.4346     C
C       0.4408   0.2734   0.6606     C
C       0.4408   0.7266   0.1606     C
H       0.4458   0.1319   0.9645     H
H       0.4458   0.8681   0.4645     H
C       0.4492    0.444   0.6202     C
C       0.4492    0.556   0.1202     C
H       0.4504   0.2076   0.6672     H
H       0.4504   0.7924   0.1672     H
C       0.4505   0.1988   0.9512     C
C       0.4505   0.8012   0.4512     C
C       0.4649    0.349   0.6291     C
H       0.4649   0.4955   0.6016     H
H       0.4649   0.5045   0.1016     H
C       0.4649    0.651   0.1291     C
C       0.4664    0.391   0.9026     C
C       0.4664    0.609   0.4026     C
H       0.4707   0.4559   0.8825     H
H       0.4707   0.5441   0.3825     H
C       0.4872   0.2297   0.9214     C
C       0.4872   0.7703   0.4214     C
H       0.4932   0.1805   0.5826     H
H       0.4932   0.8195   0.0826     H
C       0.4957   0.3219    0.899     C
C       0.4957   0.6781    0.399     C
C       0.5043   0.3219    0.601     C
C       0.5043   0.6781    0.101     C
H       0.5068   0.1805   0.9174     H
H       0.5068   0.8195   0.4174     H
C       0.5128   0.2297   0.5786     C
C       0.5128   0.7703   0.0786     C
H       0.5293   0.4559   0.6175     H
H       0.5293   0.5441   0.1175     H
C       0.5336    0.391   0.5974     C
C       0.5336    0.609   0.0974     C
C       0.5351    0.349   0.8709     C
H       0.5351   0.4955   0.8984     H
H       0.5351   0.5045   0.3984     H
C       0.5351    0.651   0.3709     C
C       0.5495   0.1988   0.5488     C
C       0.5495   0.8012   0.0488     C
H       0.5496   0.2076   0.8328     H
H       0.5496   0.7924   0.3328     H
C       0.5508    0.444   0.8798     C
C       0.5508    0.556   0.3798     C
H       0.5542   0.1319   0.5355     H
H       0.5542   0.8681   0.0355     H
C       0.5592   0.2734   0.8394     C
C       0.5592   0.7266   0.3394     C
C       0.5697   0.3712   0.5654     C
C       0.5697   0.6288   0.0654     C
C       0.5781   0.2739   0.5405     C
C       0.5781   0.7261   0.0405     C
H       0.5882   0.4228   0.5608     H
H       0.5882   0.5772   0.0608     H
C       0.5894   0.4655   0.8618     C
C       0.5894   0.5345   0.3618     C
C       0.5967   0.2976   0.8186     C
C       0.5967   0.7024   0.3186     C
H       0.5996   0.4693   0.3709     H
H       0.5996   0.5307   0.8709     H
H       0.6118   0.2477   0.7954     H
H       0.6118   0.7523   0.2954     H
C       0.6131   0.3932   0.8307     C
C       0.6131   0.6068   0.3307     C
C       0.6168   0.2505   0.5039     C
C       0.6168   0.7495   0.0039     C
O       0.6274   0.1595   0.5036     O
O       0.6274   0.8405   0.0036     O
O       0.6376   0.3211   0.4812     O
O       0.6376   0.6789   0.9812     O
C       0.6556   0.4136   0.8173     C
C       0.6556   0.5864   0.3173     C
H       0.6563   0.3109   0.7122     H
H       0.6563   0.6891   0.2122     H
H       0.6689   0.4747   0.4143     H
H       0.6689   0.5253   0.9143     H
C       0.6722   0.3593     0.75     C
C       0.6722   0.6407     0.25     C
C         0.68   0.4853   0.8723     C
C         0.68   0.5147   0.3723     C
Eu     0.69208  0.20332  0.45242    Eu
Eu     0.69208  0.79668  0.95242    Eu
O       0.7056   0.2544   0.6156     O
O       0.7056   0.7456   0.1156     O
C       0.7121   0.3775   0.7396     C
C       0.7121   0.6225   0.2396     C
O      0.71548   0.0538   0.5496     O
O      0.71548   0.9462   0.0496     O
C       0.7209    0.498   0.8654     C
C       0.7209    0.502   0.3654     C
C       0.7294   0.3157   0.6644     C
C       0.7294   0.6843   0.1644     C
O      0.73132   0.3505   0.4578     O
O      0.73132   0.6495   0.9578     O
O      0.73498    0.161   0.3436     O
O      0.73498    0.839   0.8436     O
H       0.7357   0.0509   0.2055     H
H       0.7357   0.9491   0.7055     H
C       0.7367    0.442   0.7986     C
C       0.7367    0.558   0.2986     C
C        0.747   0.4291   0.4285     C
C        0.747   0.5709   0.9285     C
C        0.753   0.0709   0.5715     C
C        0.753   0.9291   0.0715     C
C       0.7633    0.058   0.2014     C
C       0.7633    0.942   0.7014     C
H       0.7643   0.4491   0.7945     H
H       0.7643   0.5509   0.2945     H
O      0.76502    0.339   0.6564     O
O      0.76502    0.661   0.1564     O
O      0.76868   0.1495   0.5422     O
O      0.76868   0.8505   0.0422     O
C       0.7706   0.1843   0.3356     C
C       0.7706   0.8157   0.8356     C
C       0.7791    0.002   0.1346     C
C       0.7791    0.998   0.6346     C
O      0.78452   0.4462   0.4504     O
O      0.78452   0.5538   0.9504     O
C       0.7879   0.1225   0.2604     C
C       0.7879   0.8775   0.7604     C
O       0.7944   0.2456   0.3844     O
O       0.7944   0.7544   0.8844     O
Eu     0.80792  0.29668  0.54758    Eu
Eu     0.80792  0.70332  0.04758    Eu
C         0.82   0.0147   0.1277     C
C         0.82   0.9853   0.6277     C
C       0.8278   0.1407     0.25     C
C       0.8278   0.8593     0.75     C
H       0.8311   0.0253   0.5857     H
H       0.8311   0.9747   0.0857     H
H       0.8437   0.1891   0.2878     H
H       0.8437   0.8109   0.7878     H
C       0.8444   0.0864   0.1827     C
C       0.8444   0.9136   0.6827     C
O       0.8624   0.1789   0.5188     O
O       0.8624   0.8211   0.0188     O
O       0.8726   0.3405   0.4964     O
O       0.8726   0.6595   0.9964     O
C       0.8832   0.2495   0.4961     C
C       0.8832   0.7505   0.9961     C
C       0.8869   0.1068   0.1693     C
C       0.8869   0.8932   0.6693     C
H       0.8882   0.2523   0.2046     H
H       0.8882   0.7477   0.7046     H
H       0.9004   0.0307   0.6291     H
H       0.9004   0.9693   0.1291     H
C       0.9033   0.2024   0.1814     C
C       0.9033   0.7976   0.6814     C
C       0.9106   0.0345   0.1382     C
C       0.9106   0.9655   0.6382     C
H       0.9118   0.0772   0.4392     H
H       0.9118   0.9228   0.9392     H
C       0.9219   0.2261   0.4595     C
C       0.9219   0.7739   0.9595     C
C       0.9303   0.1288   0.4346     C
C       0.9303   0.8712   0.9346     C
C       0.9408   0.2266   0.1606     C
C       0.9408   0.7734   0.6606     C
H       0.9458   0.3681   0.4645     H
H       0.9458   0.6319   0.9645     H
C       0.9492    0.056   0.1202     C
C       0.9492    0.944   0.6202     C
H       0.9504   0.2924   0.1672     H
H       0.9504   0.7076   0.6672     H
C       0.9505   0.3012   0.4512     C
C       0.9505   0.6988   0.9512     C
H       0.9649   0.0045   0.1016     H
C       0.9649    0.151   0.1291     C
C       0.9649    0.849   0.6291     C
H       0.9649   0.9955   0.6016     H
C       0.9664    0.109   0.4026     C
C       0.9664    0.891   0.9026     C
H       0.9707   0.0441   0.3825     H
H       0.9707   0.9559   0.8825     H
C       0.9872   0.2703   0.4214     C
C       0.9872   0.7297   0.9214     C
H       0.9932   0.3195   0.0826     H
H       0.9932   0.6805   0.5826     H
C       0.9957   0.1781    0.399     C
C       0.9957   0.8219    0.899     C
