data_I
_chemical_name_common  '/home/zhangsd/repos/MofS-CGCNN/ML/data/TSD/clean_cifs/APAYUN_clean'
_cell_length_a 33.69000
_cell_length_b 12.97000
_cell_length_c 14.77100
_cell_angle_alpha 90.00000
_cell_angle_beta  101.57200
_cell_angle_gamma 90.00000
_space_group_name_H-M_alt      'P 1'


loop_
_space_group_symop_operation_xyz
  'x, y, z' 

loop_
_atom_site_label
_atom_site_fract_x
_atom_site_fract_y
_atom_site_fract_z
_atom_site_type_symbol
C      0.00388   0.1819   0.1026     C
C      0.00388   0.8181   0.6026     C
H       0.0057    0.335   0.4156     H
H       0.0057    0.665   0.9156     H
C       0.0126   0.2824   0.0801     C
C       0.0126   0.7176   0.5801     C
H       0.0282   0.0409   0.1149     H
H       0.0282   0.9591   0.6149     H
C       0.0324   0.1081    0.097     C
C       0.0324   0.8919    0.597     C
C      0.03521   0.1571   0.3689     C
C      0.03521   0.8429   0.8689     C
H       0.0366   0.0059   0.3982     H
H       0.0366   0.9941   0.8982     H
H       0.0472   0.2994   0.3256     H
H       0.0472   0.7006   0.8256     H
C      0.04834   0.3047   0.0512     C
C      0.04834   0.6953   0.5512     C
C      0.05151   0.0588   0.3786     C
C      0.05151   0.9412   0.8786     C
H        0.054   0.3728   0.0387     H
H        0.054   0.6272   0.5387     H
C       0.0575   0.2328   0.3348     C
C       0.0575   0.7672   0.8348     C
C      0.06777   0.1316    0.065     C
C      0.06777   0.8684    0.565     C
C      0.07573   0.2289   0.0403     C
C      0.07573   0.7711   0.5403     C
H       0.0862   0.0793   0.0606     H
H       0.0862   0.9207   0.5606     H
C       0.0894   0.0367     0.36     C
C       0.0894   0.9633     0.86     C
C      0.09536   0.2096   0.3143     C
C      0.09536   0.7904   0.8143     C
H       0.0995     0.03   0.8692     H
H       0.0995     0.97   0.3692     H
H       0.1096   0.2611   0.2906     H
H       0.1096   0.7389   0.7906     H
C      0.11237   0.1113   0.3283     C
C      0.11237   0.8887   0.8283     C
C      0.11325   0.2534   0.0039     C
C      0.11325   0.7466   0.5039     C
O      0.12353   0.3465   0.9971     O
O      0.12353   0.6535   0.4971     O
O      0.13314   0.1795   0.9787     O
O      0.13314   0.8205   0.4787     O
H       0.1545   0.1908   0.2087     H
H       0.1545   0.8092   0.7087     H
C      0.15454   0.0916   0.3148     C
C      0.15454   0.9084   0.8148     C
H       0.1691   0.0179   0.9141     H
H       0.1691   0.9821   0.4141     H
C      0.17077   0.1451   0.2483     C
C      0.17077   0.8549   0.7483     C
C      0.17969   0.0212   0.3717     C
C      0.17969   0.9788   0.8717     C
La     0.19087  0.30023  0.94889    La
La     0.19087  0.69977  0.44889    La
O      0.20398     0.25   0.1157     O
O      0.20398     0.75   0.6157     O
C      0.21107   0.1307   0.2407     C
C      0.21107   0.8693   0.7407     C
O      0.21521    0.458   0.0493     O
O      0.21521    0.542   0.5493     O
C      0.21992   0.0092   0.3658     C
C      0.21992   0.9908   0.8658     C
C      0.22753   0.1887   0.1663     C
C      0.22753   0.8113   0.6663     C
O      0.23214   0.1395   0.9636     O
O      0.23214   0.8605   0.4636     O
O      0.23578   0.3287   0.8365     O
O      0.23578   0.6713   0.3365     O
C       0.2358   0.0647      0.3     C
C       0.2358   0.9353      0.8     C
H       0.2371   0.4429   0.7037     H
H       0.2371   0.5571   0.2037     H
C      0.24744   0.0621   0.9308     C
C      0.24744   0.9379   0.4308     C
C      0.25256   0.4379   0.0692     C
C      0.25256   0.5621   0.5692     C
H       0.2629   0.0571   0.2963     H
H       0.2629   0.9429   0.7963     H
C       0.2642   0.4353      0.7     C
C       0.2642   0.5647      0.2     C
O      0.26422   0.1713   0.1635     O
O      0.26422   0.8287   0.6635     O
O      0.26786   0.3605   0.0364     O
O      0.26786   0.6395   0.5364     O
C      0.27247   0.3113   0.8337     C
C      0.27247   0.6887   0.3337     C
C      0.28008   0.4908   0.6342     C
C      0.28008   0.5092   0.1342     C
O      0.28479    0.042   0.9507     O
O      0.28479    0.958   0.4507     O
C      0.28893   0.3693   0.7593     C
C      0.28893   0.6307   0.2593     C
O      0.29602     0.25   0.8843     O
O      0.29602     0.75   0.3843     O
La     0.30913  0.19977  0.05111    La
La     0.30913  0.80023  0.55111    La
C      0.32031   0.4788   0.6283     C
C      0.32031   0.5212   0.1283     C
C      0.32923   0.3549   0.7517     C
C      0.32923   0.6451   0.2517     C
H       0.3309   0.4821   0.0859     H
H       0.3309   0.5179   0.5859     H
C      0.34546   0.4084   0.6852     C
C      0.34546   0.5916   0.1852     C
H       0.3455   0.3092   0.7913     H
H       0.3455   0.6908   0.2913     H
O      0.36686   0.3205   0.0213     O
O      0.36686   0.6795   0.5213     O
O      0.37647   0.1535   0.0029     O
O      0.37647   0.8465   0.5029     O
C      0.38675   0.2466   0.9961     C
C      0.38675   0.7534   0.4961     C
C      0.38763   0.3887   0.6717     C
C      0.38763   0.6113   0.1717     C
H       0.3904   0.2389   0.7094     H
H       0.3904   0.7611   0.2094     H
H       0.4005     0.47   0.1308     H
H       0.4005     0.53   0.6308     H
C      0.40464   0.2904   0.6857     C
C      0.40464   0.7096   0.1857     C
C       0.4106   0.4633     0.64     C
C       0.4106   0.5367     0.14     C
H       0.4138   0.4207   0.9394     H
H       0.4138   0.5793   0.4394     H
C      0.42427   0.2711   0.9597     C
C      0.42427   0.7289   0.4597     C
C      0.43223   0.3684    0.935     C
C      0.43223   0.6316    0.435     C
C       0.4425   0.2672   0.6652     C
C       0.4425   0.7328   0.1652     C
H        0.446   0.1272   0.9613     H
H        0.446   0.8728   0.4613     H
C      0.44849   0.4412   0.6214     C
C      0.44849   0.5588   0.1214     C
C      0.45166   0.1953   0.9488     C
C      0.45166   0.8047   0.4488     C
H       0.4528   0.2006   0.6744     H
H       0.4528   0.7994   0.1744     H
H       0.4634   0.4941   0.6018     H
H       0.4634   0.5059   0.1018     H
C      0.46479   0.3429   0.6311     C
C      0.46479   0.6571   0.1311     C
C       0.4676   0.3919    0.903     C
C       0.4676   0.6081    0.403     C
H       0.4718   0.4591   0.8851     H
H       0.4718   0.5409   0.3851     H
C       0.4874   0.2176   0.9199     C
C       0.4874   0.7824   0.4199     C
H       0.4943    0.165   0.5844     H
H       0.4943    0.835   0.0844     H
C      0.49612   0.3181   0.8974     C
C      0.49612   0.6819   0.3974     C
C      0.50388   0.3181   0.6026     C
C      0.50388   0.6819   0.1026     C
H       0.5057    0.165   0.9156     H
H       0.5057    0.835   0.4156     H
C       0.5126   0.2176   0.5801     C
C       0.5126   0.7824   0.0801     C
H       0.5282   0.4591   0.6149     H
H       0.5282   0.5409   0.1149     H
C       0.5324   0.3919    0.597     C
C       0.5324   0.6081    0.097     C
C      0.53521   0.3429   0.8689     C
C      0.53521   0.6571   0.3689     C
H       0.5366   0.4941   0.8982     H
H       0.5366   0.5059   0.3982     H
H       0.5472   0.2006   0.8256     H
H       0.5472   0.7994   0.3256     H
C      0.54834   0.1953   0.5512     C
C      0.54834   0.8047   0.0512     C
C      0.55151   0.4412   0.8786     C
C      0.55151   0.5588   0.3786     C
H        0.554   0.1272   0.5387     H
H        0.554   0.8728   0.0387     H
C       0.5575   0.2672   0.8348     C
C       0.5575   0.7328   0.3348     C
C      0.56777   0.3684    0.565     C
C      0.56777   0.6316    0.065     C
C      0.57573   0.2711   0.5403     C
C      0.57573   0.7289   0.0403     C
H       0.5862   0.4207   0.5606     H
H       0.5862   0.5793   0.0606     H
C       0.5894   0.4633     0.86     C
C       0.5894   0.5367     0.36     C
C      0.59536   0.2904   0.8143     C
C      0.59536   0.7096   0.3143     C
H       0.5995     0.47   0.3692     H
H       0.5995     0.53   0.8692     H
H       0.6096   0.2389   0.7906     H
H       0.6096   0.7611   0.2906     H
C      0.61237   0.3887   0.8283     C
C      0.61237   0.6113   0.3283     C
C      0.61325   0.2466   0.5039     C
C      0.61325   0.7534   0.0039     C
O      0.62353   0.1535   0.4971     O
O      0.62353   0.8465   0.9971     O
O      0.63314   0.3205   0.4787     O
O      0.63314   0.6795   0.9787     O
H       0.6545   0.3092   0.7087     H
H       0.6545   0.6908   0.2087     H
C      0.65454   0.4084   0.8148     C
C      0.65454   0.5916   0.3148     C
H       0.6691   0.4821   0.4141     H
H       0.6691   0.5179   0.9141     H
C      0.67077   0.3549   0.7483     C
C      0.67077   0.6451   0.2483     C
C      0.67969   0.4788   0.8717     C
C      0.67969   0.5212   0.3717     C
La     0.69087  0.19977  0.44889    La
La     0.69087  0.80023  0.94889    La
O      0.70398     0.25   0.6157     O
O      0.70398     0.75   0.1157     O
C      0.71107   0.3693   0.7407     C
C      0.71107   0.6307   0.2407     C
O      0.71521    0.042   0.5493     O
O      0.71521    0.958   0.0493     O
C      0.71992   0.4908   0.8658     C
C      0.71992   0.5092   0.3658     C
C      0.72753   0.3113   0.6663     C
C      0.72753   0.6887   0.1663     C
O      0.73214   0.3605   0.4636     O
O      0.73214   0.6395   0.9636     O
O      0.73578   0.1713   0.3365     O
O      0.73578   0.8287   0.8365     O
C       0.7358   0.4353      0.8     C
C       0.7358   0.5647      0.3     C
H       0.7371   0.0571   0.2037     H
H       0.7371   0.9429   0.7037     H
C      0.74744   0.4379   0.4308     C
C      0.74744   0.5621   0.9308     C
C      0.75256   0.0621   0.5692     C
C      0.75256   0.9379   0.0692     C
H       0.7629   0.4429   0.7963     H
H       0.7629   0.5571   0.2963     H
C       0.7642   0.0647      0.2     C
C       0.7642   0.9353      0.7     C
O      0.76422   0.3287   0.6635     O
O      0.76422   0.6713   0.1635     O
O      0.76786   0.1395   0.5364     O
O      0.76786   0.8605   0.0364     O
C      0.77247   0.1887   0.3337     C
C      0.77247   0.8113   0.8337     C
C      0.78008   0.0092   0.1342     C
C      0.78008   0.9908   0.6342     C
O      0.78479    0.458   0.4507     O
O      0.78479    0.542   0.9507     O
C      0.78893   0.1307   0.2593     C
C      0.78893   0.8693   0.7593     C
O      0.79602     0.25   0.3843     O
O      0.79602     0.75   0.8843     O
La     0.80913  0.30023  0.55111    La
La     0.80913  0.69977  0.05111    La
C      0.82031   0.0212   0.1283     C
C      0.82031   0.9788   0.6283     C
C      0.82923   0.1451   0.2517     C
C      0.82923   0.8549   0.7517     C
H       0.8309   0.0179   0.5859     H
H       0.8309   0.9821   0.0859     H
C      0.84546   0.0916   0.1852     C
C      0.84546   0.9084   0.6852     C
H       0.8455   0.1908   0.2913     H
H       0.8455   0.8092   0.7913     H
O      0.86686   0.1795   0.5213     O
O      0.86686   0.8205   0.0213     O
O      0.87647   0.3465   0.5029     O
O      0.87647   0.6535   0.0029     O
C      0.88675   0.2534   0.4961     C
C      0.88675   0.7466   0.9961     C
C      0.88763   0.1113   0.1717     C
C      0.88763   0.8887   0.6717     C
H       0.8904   0.2611   0.2094     H
H       0.8904   0.7389   0.7094     H
H       0.9005     0.03   0.6308     H
H       0.9005     0.97   0.1308     H
C      0.90464   0.2096   0.1857     C
C      0.90464   0.7904   0.6857     C
C       0.9106   0.0367     0.14     C
C       0.9106   0.9633     0.64     C
H       0.9138   0.0793   0.4394     H
H       0.9138   0.9207   0.9394     H
C      0.92427   0.2289   0.4597     C
C      0.92427   0.7711   0.9597     C
C      0.93223   0.1316    0.435     C
C      0.93223   0.8684    0.935     C
C       0.9425   0.2328   0.1652     C
C       0.9425   0.7672   0.6652     C
H        0.946   0.3728   0.4613     H
H        0.946   0.6272   0.9613     H
C      0.94849   0.0588   0.1214     C
C      0.94849   0.9412   0.6214     C
C      0.95166   0.3047   0.4488     C
C      0.95166   0.6953   0.9488     C
H       0.9528   0.2994   0.1744     H
H       0.9528   0.7006   0.6744     H
H       0.9634   0.0059   0.1018     H
H       0.9634   0.9941   0.6018     H
C      0.96479   0.1571   0.1311     C
C      0.96479   0.8429   0.6311     C
C       0.9676   0.1081    0.403     C
C       0.9676   0.8919    0.903     C
H       0.9718   0.0409   0.3851     H
H       0.9718   0.9591   0.8851     H
C       0.9874   0.2824   0.4199     C
C       0.9874   0.7176   0.9199     C
H       0.9943    0.335   0.0844     H
H       0.9943    0.665   0.5844     H
C      0.99612   0.1819   0.3974     C
C      0.99612   0.8181   0.8974     C
