data_I
_chemical_name_common  '/home/zhangsd/repos/MofS-CGCNN/ML/data/TSD/clean_cifs/ARAFOP_clean'
_cell_length_a 24.56100
_cell_length_b  6.98600
_cell_length_c  9.13330
_cell_angle_alpha 90.00000
_cell_angle_beta  90.00000
_cell_angle_gamma 90.00000
_space_group_name_H-M_alt      'P 1'


loop_
_space_group_symop_operation_xyz
  'x, y, z' 

loop_
_atom_site_label
_atom_site_fract_x
_atom_site_fract_y
_atom_site_fract_z
_atom_site_type_symbol
Cu         0.0      0.0      0.0    Cu
Cu         0.0      0.5      0.0    Cu
N      0.05766   0.1543   0.9018     N
N      0.05766   0.3457   0.9018     N
N      0.05766   0.6543   0.0982     N
N      0.05766   0.8457   0.0982     N
C      0.10583   0.0941   0.8527     C
N      0.10583   0.4059   0.8527     N
N      0.10583   0.5941   0.1473     N
C      0.10583   0.9059   0.1473     C
H       0.1168   0.0354   0.1591     H
H       0.1168   0.4646   0.1591     H
H       0.1168   0.5354   0.8409     H
H       0.1168   0.9646   0.8409     H
C       0.1361     0.25   0.8228     C
C       0.1361     0.75   0.1772     C
C        0.194     0.25   0.7826     C
C        0.194     0.75   0.2174     C
H        0.204   0.0329   0.2239     H
H        0.204   0.4671   0.2239     H
H        0.204   0.5329   0.7761     H
H        0.204   0.9671   0.7761     H
C       0.2223    0.086   0.7659     C
C       0.2223    0.414   0.7659     C
C       0.2223    0.586   0.2341     C
C       0.2223    0.914   0.2341     C
C       0.2777    0.086   0.7341     C
C       0.2777    0.414   0.7341     C
C       0.2777    0.586   0.2659     C
C       0.2777    0.914   0.2659     C
H        0.296   0.0329   0.2761     H
H        0.296   0.4671   0.2761     H
H        0.296   0.5329   0.7239     H
H        0.296   0.9671   0.7239     H
C        0.306     0.25   0.7174     C
C        0.306     0.75   0.2826     C
C       0.3639     0.25   0.6772     C
C       0.3639     0.75   0.3228     C
H       0.3832   0.0354   0.3409     H
H       0.3832   0.4646   0.3409     H
H       0.3832   0.5354   0.6591     H
H       0.3832   0.9646   0.6591     H
C      0.39417   0.0941   0.6473     C
N      0.39417   0.4059   0.6473     N
N      0.39417   0.5941   0.3527     N
C      0.39417   0.9059   0.3527     C
N      0.44234   0.1543   0.5982     N
N      0.44234   0.3457   0.5982     N
N      0.44234   0.6543   0.4018     N
N      0.44234   0.8457   0.4018     N
Cu         0.5      0.0      0.5    Cu
Cu         0.5      0.5      0.5    Cu
N      0.55766   0.1543   0.5982     N
N      0.55766   0.3457   0.5982     N
N      0.55766   0.6543   0.4018     N
N      0.55766   0.8457   0.4018     N
N      0.60583   0.0941   0.6473     N
C      0.60583   0.4059   0.6473     C
C      0.60583   0.5941   0.3527     C
N      0.60583   0.9059   0.3527     N
H       0.6168   0.0354   0.3409     H
H       0.6168   0.4646   0.3409     H
H       0.6168   0.5354   0.6591     H
H       0.6168   0.9646   0.6591     H
C       0.6361     0.25   0.6772     C
C       0.6361     0.75   0.3228     C
C        0.694     0.25   0.7174     C
C        0.694     0.75   0.2826     C
H        0.704   0.0329   0.2761     H
H        0.704   0.4671   0.2761     H
H        0.704   0.5329   0.7239     H
H        0.704   0.9671   0.7239     H
C       0.7223    0.086   0.7341     C
C       0.7223    0.414   0.7341     C
C       0.7223    0.586   0.2659     C
C       0.7223    0.914   0.2659     C
C       0.7777    0.086   0.7659     C
C       0.7777    0.414   0.7659     C
C       0.7777    0.586   0.2341     C
C       0.7777    0.914   0.2341     C
H        0.796   0.0329   0.2239     H
H        0.796   0.4671   0.2239     H
H        0.796   0.5329   0.7761     H
H        0.796   0.9671   0.7761     H
C        0.806     0.25   0.7826     C
C        0.806     0.75   0.2174     C
C       0.8639     0.25   0.8228     C
C       0.8639     0.75   0.1772     C
H       0.8832   0.0354   0.1591     H
H       0.8832   0.4646   0.1591     H
H       0.8832   0.5354   0.8409     H
H       0.8832   0.9646   0.8409     H
N      0.89417   0.0941   0.8527     N
C      0.89417   0.4059   0.8527     C
C      0.89417   0.5941   0.1473     C
N      0.89417   0.9059   0.1473     N
N      0.94234   0.1543   0.9018     N
N      0.94234   0.3457   0.9018     N
N      0.94234   0.6543   0.0982     N
N      0.94234   0.8457   0.0982     N
