data_I
_chemical_name_common  '/home/zhangsd/repos/MofS-CGCNN/ML/data/TSD/clean_cifs/ARAFEF_clean'
_cell_length_a 22.53800
_cell_length_b  7.04400
_cell_length_c 13.77200
_cell_angle_alpha 90.00000
_cell_angle_beta  90.00000
_cell_angle_gamma 90.00000
_space_group_name_H-M_alt      'P 1'


loop_
_space_group_symop_operation_xyz
  'x, y, z' 

loop_
_atom_site_label
_atom_site_fract_x
_atom_site_fract_y
_atom_site_fract_z
_atom_site_type_symbol
Cu         0.0      0.0      0.0    Cu
Cu         0.0      0.5      0.0    Cu
N      0.06242   0.1557   0.9361     N
N      0.06242   0.3443   0.9361     N
N      0.06242   0.6557   0.0639     N
N      0.06242   0.8443   0.0639     N
C      0.11063   0.0954   0.8887     C
N      0.11063   0.4046   0.8887     N
N      0.11063   0.5954   0.1113     N
C      0.11063   0.9046   0.1113     C
H       0.1217   0.0331   0.1218     H
H       0.1217   0.4669   0.1218     H
H       0.1217   0.5331   0.8782     H
H       0.1217   0.9669   0.8782     H
C       0.1407     0.25   0.8584     C
C       0.1407     0.75   0.1416     C
C       0.1965     0.25   0.8038     C
C       0.1965     0.75   0.1962     C
H       0.2066   0.0304    0.204     H
H       0.2066   0.4696    0.204     H
H       0.2066   0.5304    0.796     H
H       0.2066   0.9696    0.796     H
C       0.2236   0.0875   0.7773     C
C       0.2236   0.4125   0.7773     C
C       0.2236   0.5875   0.2227     C
C       0.2236   0.9125   0.2227     C
C       0.2764   0.0875   0.7227     C
C       0.2764   0.4125   0.7227     C
C       0.2764   0.5875   0.2773     C
C       0.2764   0.9125   0.2773     C
H       0.2934   0.0304    0.296     H
H       0.2934   0.4696    0.296     H
H       0.2934   0.5304    0.704     H
H       0.2934   0.9696    0.704     H
C       0.3035     0.25   0.6962     C
C       0.3035     0.75   0.3038     C
C       0.3593     0.25   0.6416     C
C       0.3593     0.75   0.3584     C
H       0.3783   0.0331   0.3782     H
H       0.3783   0.4669   0.3782     H
H       0.3783   0.5331   0.6218     H
H       0.3783   0.9669   0.6218     H
C      0.38937   0.0954   0.6113     C
N      0.38937   0.4046   0.6113     N
N      0.38937   0.5954   0.3887     N
C      0.38937   0.9046   0.3887     C
N      0.43758   0.1557   0.5639     N
N      0.43758   0.3443   0.5639     N
N      0.43758   0.6557   0.4361     N
N      0.43758   0.8443   0.4361     N
Cu         0.5      0.0      0.5    Cu
Cu         0.5      0.5      0.5    Cu
N      0.56242   0.1557   0.5639     N
N      0.56242   0.3443   0.5639     N
N      0.56242   0.6557   0.4361     N
N      0.56242   0.8443   0.4361     N
N      0.61063   0.0954   0.6113     N
C      0.61063   0.4046   0.6113     C
C      0.61063   0.5954   0.3887     C
N      0.61063   0.9046   0.3887     N
H       0.6217   0.0331   0.3782     H
H       0.6217   0.4669   0.3782     H
H       0.6217   0.5331   0.6218     H
H       0.6217   0.9669   0.6218     H
C       0.6407     0.25   0.6416     C
C       0.6407     0.75   0.3584     C
C       0.6965     0.25   0.6962     C
C       0.6965     0.75   0.3038     C
H       0.7066   0.0304    0.296     H
H       0.7066   0.4696    0.296     H
H       0.7066   0.5304    0.704     H
H       0.7066   0.9696    0.704     H
C       0.7236   0.0875   0.7227     C
C       0.7236   0.4125   0.7227     C
C       0.7236   0.5875   0.2773     C
C       0.7236   0.9125   0.2773     C
C       0.7764   0.0875   0.7773     C
C       0.7764   0.4125   0.7773     C
C       0.7764   0.5875   0.2227     C
C       0.7764   0.9125   0.2227     C
H       0.7934   0.0304    0.204     H
H       0.7934   0.4696    0.204     H
H       0.7934   0.5304    0.796     H
H       0.7934   0.9696    0.796     H
C       0.8035     0.25   0.8038     C
C       0.8035     0.75   0.1962     C
C       0.8593     0.25   0.8584     C
C       0.8593     0.75   0.1416     C
H       0.8783   0.0331   0.1218     H
H       0.8783   0.4669   0.1218     H
H       0.8783   0.5331   0.8782     H
H       0.8783   0.9669   0.8782     H
N      0.88937   0.0954   0.8887     N
C      0.88937   0.4046   0.8887     C
C      0.88937   0.5954   0.1113     C
N      0.88937   0.9046   0.1113     N
N      0.93758   0.1557   0.9361     N
N      0.93758   0.3443   0.9361     N
N      0.93758   0.6557   0.0639     N
N      0.93758   0.8443   0.0639     N
