data_I
_chemical_name_common  '/home/zhangsd/repos/MofS-CGCNN/ML/data/TSD/clean_cifs/ASEJOZ_clean'
_cell_length_a 14.56100
_cell_length_b 18.07800
_cell_length_c 12.84500
_cell_angle_alpha 90.00000
_cell_angle_beta  116.60200
_cell_angle_gamma 90.00000
_space_group_name_H-M_alt      'P 1'


loop_
_space_group_symop_operation_xyz
  'x, y, z' 

loop_
_atom_site_label
_atom_site_fract_x
_atom_site_fract_y
_atom_site_fract_z
_atom_site_type_symbol
Cd         0.0  0.25333     0.25    Cd
Cd         0.0  0.74667     0.75    Cd
N       0.0602  0.28548   0.1169     N
N       0.0602  0.71452   0.6169     N
N       0.0719  0.24861   0.0326     N
N       0.0719  0.75139   0.5326     N
N       0.0822  0.35572   0.1159     N
N       0.0822  0.64428   0.6159     N
C       0.1026  0.29947   0.9805     C
C       0.1026  0.70053   0.4805     C
N       0.1099  0.36604     0.03     N
N       0.1099  0.63396     0.53     N
H       0.1209   0.3917   0.8322     H
H       0.1209   0.6083   0.3322     H
C       0.1252  0.28556   0.8811     C
C       0.1252  0.71444   0.3811     C
C       0.1327   0.3436   0.8154     C
C       0.1327   0.6564   0.3154     C
H       0.1329   0.1739   0.8958     H
H       0.1329   0.8261   0.3958     H
O      0.13597  0.45747   0.6674     O
O      0.13597  0.54253   0.1674     O
C       0.1389  0.21324   0.8526     C
C       0.1389  0.78676   0.3526     C
C       0.1577  0.33055    0.724     C
C       0.1577  0.66945    0.224     C
C       0.1615  0.19962   0.7602     C
C       0.1615  0.80038   0.2602     C
C       0.1681  0.39508   0.6566     C
C       0.1681  0.60492   0.1566     C
O      0.17023  0.06998    0.794     O
O      0.17023  0.93002    0.294     O
C       0.1716  0.25858   0.6966     C
C       0.1716  0.74142   0.1966     C
C       0.1789  0.12139   0.7318     C
C       0.1789  0.87861   0.2318     C
H       0.1876   0.2497   0.6353     H
H       0.1876   0.7503   0.1353     H
Cd     0.19277  0.47865  0.05232    Cd
Cd     0.19277  0.52135  0.55232    Cd
O       0.2014  0.11211   0.6498     O
O       0.2014  0.88789   0.1498     O
O      0.21194  0.38581  0.59195     O
O      0.21194  0.61419  0.09195     O
O      0.28806  0.11419  0.40805     O
O      0.28806  0.88581  0.90805     O
O       0.2986  0.38789   0.3502     O
O       0.2986  0.61211   0.8502     O
Cd     0.30723  0.02135  0.94768    Cd
Cd     0.30723  0.97865  0.44768    Cd
H       0.3124   0.2503   0.3647     H
H       0.3124   0.7497   0.8647     H
C       0.3211  0.37861   0.2682     C
C       0.3211  0.62139   0.7682     C
C       0.3284  0.24142   0.3034     C
C       0.3284  0.75858   0.8034     C
O      0.32977  0.43002    0.206     O
O      0.32977  0.56998    0.706     O
C       0.3319  0.10492   0.3434     C
C       0.3319  0.89508   0.8434     C
C       0.3385  0.30038   0.2398     C
C       0.3385  0.69962   0.7398     C
C       0.3423  0.16945    0.276     C
C       0.3423  0.83055    0.776     C
C       0.3611  0.28676   0.1474     C
C       0.3611  0.71324   0.6474     C
O      0.36403  0.04253   0.3326     O
O      0.36403  0.95747   0.8326     O
H       0.3671   0.3261   0.1042     H
H       0.3671   0.6739   0.6042     H
C       0.3673   0.1564   0.1846     C
C       0.3673   0.8436   0.6846     C
C       0.3748  0.21444   0.1189     C
C       0.3748  0.78556   0.6189     C
H       0.3791   0.1083   0.1678     H
H       0.3791   0.8917   0.6678     H
N       0.3901  0.13396     0.97     N
N       0.3901  0.86604     0.47     N
C       0.3974  0.20053   0.0195     C
C       0.3974  0.79947   0.5195     C
N       0.4178  0.14428   0.8841     N
N       0.4178  0.85572   0.3841     N
N       0.4281  0.25139   0.9674     N
N       0.4281  0.74861   0.4674     N
N       0.4398  0.21452   0.8831     N
N       0.4398  0.78548   0.3831     N
Cd         0.5  0.24667     0.75    Cd
Cd         0.5  0.75333     0.25    Cd
N       0.5602  0.21452   0.6169     N
N       0.5602  0.78548   0.1169     N
N       0.5719  0.25139   0.5326     N
N       0.5719  0.74861   0.0326     N
N       0.5822  0.14428   0.6159     N
N       0.5822  0.85572   0.1159     N
C       0.6026  0.20053   0.4805     C
C       0.6026  0.79947   0.9805     C
N       0.6099  0.13396     0.53     N
N       0.6099  0.86604     0.03     N
H       0.6209   0.1083   0.3322     H
H       0.6209   0.8917   0.8322     H
C       0.6252  0.21444   0.3811     C
C       0.6252  0.78556   0.8811     C
C       0.6327   0.1564   0.3154     C
C       0.6327   0.8436   0.8154     C
H       0.6329   0.3261   0.3958     H
H       0.6329   0.6739   0.8958     H
O      0.63597  0.04253   0.1674     O
O      0.63597  0.95747   0.6674     O
C       0.6389  0.28676   0.3526     C
C       0.6389  0.71324   0.8526     C
C       0.6577  0.16945    0.224     C
C       0.6577  0.83055    0.724     C
C       0.6615  0.30038   0.2602     C
C       0.6615  0.69962   0.7602     C
C       0.6681  0.10492   0.1566     C
C       0.6681  0.89508   0.6566     C
O      0.67023  0.43002    0.294     O
O      0.67023  0.56998    0.794     O
C       0.6716  0.24142   0.1966     C
C       0.6716  0.75858   0.6966     C
C       0.6789  0.37861   0.2318     C
C       0.6789  0.62139   0.7318     C
H       0.6876   0.2503   0.1353     H
H       0.6876   0.7497   0.6353     H
Cd     0.69277  0.02135  0.55232    Cd
Cd     0.69277  0.97865  0.05232    Cd
O       0.7014  0.38789   0.1498     O
O       0.7014  0.61211   0.6498     O
O      0.71194  0.11419  0.09195     O
O      0.71194  0.88581  0.59195     O
O      0.78806  0.38581  0.90805     O
O      0.78806  0.61419  0.40805     O
O       0.7986  0.11211   0.8502     O
O       0.7986  0.88789   0.3502     O
Cd     0.80723  0.47865  0.44768    Cd
Cd     0.80723  0.52135  0.94768    Cd
H       0.8124   0.2497   0.8647     H
H       0.8124   0.7503   0.3647     H
C       0.8211  0.12139   0.7682     C
C       0.8211  0.87861   0.2682     C
C       0.8284  0.25858   0.8034     C
C       0.8284  0.74142   0.3034     C
O      0.82977  0.06998    0.706     O
O      0.82977  0.93002    0.206     O
C       0.8319  0.39508   0.8434     C
C       0.8319  0.60492   0.3434     C
C       0.8385  0.19962   0.7398     C
C       0.8385  0.80038   0.2398     C
C       0.8423  0.33055    0.776     C
C       0.8423  0.66945    0.276     C
C       0.8611  0.21324   0.6474     C
C       0.8611  0.78676   0.1474     C
O      0.86403  0.45747   0.8326     O
O      0.86403  0.54253   0.3326     O
H       0.8671   0.1739   0.6042     H
H       0.8671   0.8261   0.1042     H
C       0.8673   0.3436   0.6846     C
C       0.8673   0.6564   0.1846     C
C       0.8748  0.28556   0.6189     C
C       0.8748  0.71444   0.1189     C
H       0.8791   0.3917   0.6678     H
H       0.8791   0.6083   0.1678     H
N       0.8901  0.36604     0.47     N
N       0.8901  0.63396     0.97     N
C       0.8974  0.29947   0.5195     C
C       0.8974  0.70053   0.0195     C
N       0.9178  0.35572   0.3841     N
N       0.9178  0.64428   0.8841     N
N       0.9281  0.24861   0.4674     N
N       0.9281  0.75139   0.9674     N
N       0.9398  0.28548   0.3831     N
N       0.9398  0.71452   0.8831     N
