data_I
_chemical_name_common  '/home/zhangsd/repos/MofS-CGCNN/ML/data/TSD/clean_cifs/ASIQEA_clean'
_cell_length_a 18.00100
_cell_length_b 18.00100
_cell_length_c 12.94600
_cell_angle_alpha 90.00000
_cell_angle_beta  90.00000
_cell_angle_gamma 90.00000
_space_group_name_H-M_alt      'P 1'


loop_
_space_group_symop_operation_xyz
  'x, y, z' 

loop_
_atom_site_label
_atom_site_fract_x
_atom_site_fract_y
_atom_site_fract_z
_atom_site_type_symbol
Cu         0.0      0.0      0.5    Cu
Cu         0.0      0.5      0.0    Cu
H       0.0001    0.033   0.1131     H
O       0.0003   0.3012   0.6279     O
H       0.0011   0.3247   0.9781     H
C       0.0084   0.0099   0.1763     C
C       0.0099   0.4916   0.3237     C
N       0.0112    0.986   0.3461     N
C       0.0116   0.9647   0.7299     C
N        0.014   0.5112   0.8461     N
H       0.0147   0.6218   0.5375     H
H        0.033   0.4999   0.3869     H
C       0.0353   0.5116   0.2299     C
H        0.037   0.9205   0.7179     H
H        0.043   0.8295   0.5431     H
N       0.0437   0.9426   0.1925     N
C       0.0438   0.9314   0.2954     C
H       0.0465   0.7974   0.1697     H
C       0.0472   0.6579   0.0291     C
N       0.0574   0.5437   0.6925     N
H       0.0645   0.8899   0.3272     H
N       0.0661   0.5871   0.0258     N
C       0.0662   0.6176   0.5376     C
C       0.0686   0.5438   0.7954     C
C       0.0718   0.6961   0.3765     C
C       0.0728   0.8212   0.1175     C
C       0.0778   0.8987   0.1145     C
H       0.0795    0.537   0.2179     H
C       0.0857   0.8585   0.5408     C
N       0.0871   0.9339   0.5258     N
C       0.1013   0.5778   0.6145     C
N       0.1065   0.7015    0.044     N
C       0.1076   0.6512   0.4604     C
C        0.108   0.7812   0.0411     C
O       0.1098   0.7345   0.3191     O
H       0.1101   0.5645   0.8272     H
C       0.1176   0.9338   0.0376     C
H       0.1218   0.9853   0.0375     H
C       0.1415   0.5857   0.0408     C
C       0.1462   0.8149   0.9626     C
C       0.1512   0.8924   0.9604     C
C       0.1553   0.8328   0.5516     C
C       0.1579   0.9528   0.5291     C
C       0.1672   0.6553   0.0516     C
H       0.1686   0.7866   0.9112     H
H       0.1694   0.7837   0.5622     H
H       0.1705    0.543   0.0431     H
H       0.1753   0.0011   0.5219     H
C       0.1788   0.5728   0.6175     C
C       0.1851   0.6462   0.4626     C
C       0.1961   0.9282   0.8765     C
O       0.1988   0.0003   0.8721     O
N       0.2015   0.8935    0.544     N
H       0.2026   0.5465   0.6697     H
H       0.2134   0.6686   0.4112     H
H       0.2163   0.6694   0.0622     H
C       0.2188    0.608   0.5411     C
O       0.2345   0.8902   0.8191     O
O       0.2655   0.6098   0.8191     O
C       0.2812    0.892   0.5411     C
H       0.2837   0.8306   0.0622     H
H       0.2866   0.8314   0.4112     H
H       0.2974   0.9535   0.6697     H
N       0.2985   0.6065    0.544     N
O       0.3012   0.4997   0.8721     O
C       0.3039   0.5718   0.8765     C
C       0.3149   0.8538   0.4626     C
C       0.3212   0.9272   0.6175     C
H       0.3247   0.4989   0.5219     H
H       0.3295    0.957   0.0431     H
H       0.3306   0.7163   0.5622     H
H       0.3314   0.7134   0.9112     H
C       0.3328   0.8447   0.0516     C
C       0.3421   0.5472   0.5291     C
C       0.3447   0.6672   0.5516     C
C       0.3488   0.6076   0.9604     C
C       0.3538   0.6851   0.9626     C
C       0.3585   0.9143   0.0408     C
H       0.3782   0.5147   0.0375     H
C       0.3824   0.5662   0.0376     C
H       0.3899   0.9355   0.8272     H
O       0.3902   0.7655   0.3191     O
C        0.392   0.7188   0.0411     C
C       0.3924   0.8488   0.4604     C
N       0.3935   0.7985    0.044     N
C       0.3987   0.9222   0.6145     C
N       0.4129   0.5661   0.5258     N
C       0.4143   0.6415   0.5408     C
H       0.4205    0.963   0.2179     H
C       0.4222   0.6013   0.1145     C
C       0.4272   0.6788   0.1175     C
C       0.4282   0.8039   0.3765     C
C       0.4314   0.9562   0.7954     C
C       0.4338   0.8824   0.5376     C
N       0.4339   0.9129   0.0258     N
H       0.4355   0.6101   0.3272     H
N       0.4426   0.9563   0.6925     N
C       0.4528   0.8421   0.0291     C
H       0.4535   0.7026   0.1697     H
C       0.4562   0.5686   0.2954     C
N       0.4563   0.5574   0.1925     N
H        0.457   0.6705   0.5431     H
H        0.463   0.5795   0.7179     H
C       0.4647   0.9884   0.2299     C
H        0.467   0.0001   0.3869     H
H       0.4853   0.8782   0.5375     H
N        0.486   0.9888   0.8461     N
C       0.4884   0.5353   0.7299     C
N       0.4888    0.514   0.3461     N
C       0.4901   0.0084   0.3237     C
C       0.4916   0.4901   0.1763     C
H       0.4989   0.1753   0.9781     H
O       0.4997   0.1988   0.6279     O
H       0.4999    0.467   0.1131     H
Cu         0.5      0.0      0.0    Cu
Cu         0.5      0.5      0.5    Cu
H       0.5001    0.533   0.8869     H
O       0.5003   0.8012   0.3721     O
H       0.5011   0.8247   0.0219     H
C       0.5084   0.5099   0.8237     C
C       0.5099   0.9916   0.6763     C
N       0.5112    0.486   0.6539     N
C       0.5116   0.4647   0.2701     C
N        0.514   0.0112   0.1539     N
H       0.5147   0.1218   0.4625     H
H        0.533   0.9999   0.6131     H
C       0.5353   0.0116   0.7701     C
H        0.537   0.4205   0.2821     H
H        0.543   0.3295   0.4569     H
N       0.5437   0.4426   0.8075     N
C       0.5438   0.4314   0.7046     C
H       0.5465   0.2974   0.8303     H
C       0.5472   0.1579   0.9709     C
N       0.5574   0.0437   0.3075     N
H       0.5645   0.3899   0.6728     H
N       0.5661   0.0871   0.9742     N
C       0.5662   0.1176   0.4624     C
C       0.5686   0.0438   0.2046     C
C       0.5718   0.1961   0.6235     C
C       0.5728   0.3212   0.8825     C
C       0.5778   0.3987   0.8855     C
H       0.5795    0.037   0.7821     H
C       0.5857   0.3585   0.4592     C
N       0.5871   0.4339   0.4742     N
C       0.6013   0.0778   0.3855     C
N       0.6065   0.2015    0.956     N
C       0.6076   0.1512   0.5396     C
C        0.608   0.2812   0.9589     C
O       0.6098   0.2345   0.6809     O
H       0.6101   0.0645   0.1728     H
C       0.6176   0.4338   0.9624     C
H       0.6218   0.4853   0.9625     H
C       0.6415   0.0857   0.9592     C
C       0.6462   0.3149   0.0374     C
C       0.6512   0.3924   0.0396     C
C       0.6553   0.3328   0.4484     C
C       0.6579   0.4528   0.4709     C
C       0.6672   0.1553   0.9484     C
H       0.6686   0.2866   0.0888     H
H       0.6694   0.2837   0.4378     H
H       0.6705    0.043   0.9569     H
H       0.6753   0.5011   0.4781     H
C       0.6788   0.0728   0.3825     C
C       0.6851   0.1462   0.5374     C
C       0.6961   0.4282   0.1235     C
O       0.6988   0.5003   0.1279     O
N       0.7015   0.3935    0.456     N
H       0.7026   0.0465   0.3303     H
H       0.7134   0.1686   0.5888     H
H       0.7163   0.1694   0.9378     H
C       0.7188    0.108   0.4589     C
O       0.7345   0.3902   0.1809     O
O       0.7655   0.1098   0.1809     O
C       0.7812    0.392   0.4589     C
H       0.7837   0.3306   0.9378     H
H       0.7866   0.3314   0.5888     H
H       0.7974   0.4535   0.3303     H
N       0.7985   0.1065    0.456     N
O       0.8012   0.9997   0.1279     O
C       0.8039   0.0718   0.1235     C
C       0.8149   0.3538   0.5374     C
C       0.8212   0.4272   0.3825     C
H       0.8247   0.9989   0.4781     H
H       0.8295    0.457   0.9569     H
H       0.8306   0.2163   0.4378     H
H       0.8314   0.2134   0.0888     H
C       0.8328   0.3447   0.9484     C
C       0.8421   0.0472   0.4709     C
C       0.8447   0.1672   0.4484     C
C       0.8488   0.1076   0.0396     C
C       0.8538   0.1851   0.0374     C
C       0.8585   0.4143   0.9592     C
H       0.8782   0.0147   0.9625     H
C       0.8824   0.0662   0.9624     C
H       0.8899   0.4355   0.1728     H
O       0.8902   0.2655   0.6809     O
C        0.892   0.2188   0.9589     C
C       0.8924   0.3488   0.5396     C
N       0.8935   0.2985    0.956     N
C       0.8987   0.4222   0.3855     C
N       0.9129   0.0661   0.4742     N
C       0.9143   0.1415   0.4592     C
H       0.9205    0.463   0.7821     H
C       0.9222   0.1013   0.8855     C
C       0.9272   0.1788   0.8825     C
C       0.9282   0.3039   0.6235     C
C       0.9314   0.4562   0.2046     C
C       0.9338   0.3824   0.4624     C
N       0.9339   0.4129   0.9742     N
H       0.9355   0.1101   0.6728     H
N       0.9426   0.4563   0.3075     N
C       0.9528   0.3421   0.9709     C
H       0.9535   0.2026   0.8303     H
C       0.9562   0.0686   0.7046     C
N       0.9563   0.0574   0.8075     N
H        0.957   0.1705   0.4569     H
H        0.963   0.0795   0.2821     H
C       0.9647   0.4884   0.7701     C
H        0.967   0.5001   0.6131     H
H       0.9853   0.3782   0.4625     H
N        0.986   0.4888   0.1539     N
C       0.9884   0.0353   0.2701     C
N       0.9888    0.014   0.6539     N
C       0.9901   0.5084   0.6763     C
C       0.9916   0.9901   0.8237     C
H       0.9989   0.6753   0.0219     H
O       0.9997   0.6988   0.3721     O
H       0.9999    0.967   0.8869     H
