data_I
_chemical_name_common  '/home/zhangsd/repos/MofS-CGCNN/ML/data/TSD/clean_cifs/ASUJIJ_clean'
_cell_length_a 19.37700
_cell_length_b 16.27700
_cell_length_c 10.72000
_cell_angle_alpha 90.00000
_cell_angle_beta  101.38400
_cell_angle_gamma 90.00000
_space_group_name_H-M_alt      'P 1'


loop_
_space_group_symop_operation_xyz
  'x, y, z' 

loop_
_atom_site_label
_atom_site_fract_x
_atom_site_fract_y
_atom_site_fract_z
_atom_site_type_symbol
H        0.002   0.1479   0.8664     H
H        0.002   0.3521   0.3664     H
H       0.0069   0.1045   0.7383     H
H       0.0069   0.3955   0.2383     H
Zn     0.01063  0.65856  0.04794    Zn
Zn     0.01063  0.84144  0.54794    Zn
C       0.0215   0.6415   0.7217     C
C       0.0215   0.8585   0.2217     C
N      0.02197   0.7361   0.9071     N
N      0.02197   0.7639   0.4071     N
N       0.0229   0.6818   0.4232     N
N       0.0229   0.8182   0.9232     N
C      0.02362   0.7228   0.7855     C
C      0.02362   0.7772   0.2855     C
N        0.024   0.6463   0.3149     N
N        0.024   0.8537   0.8149     N
N      0.02418   0.7052   0.2254     N
N      0.02418   0.7948   0.7254     N
H       0.0591   0.0085   0.2642     H
H       0.0591   0.4915   0.7642     H
O      0.08056  0.57541   0.0347     O
O      0.08056  0.92459   0.5347     O
O      0.08095  0.11012   0.4488     O
O      0.08095  0.38988   0.9488     O
N       0.0913  0.60237   0.7247     N
N       0.0913  0.89763   0.2247     N
C       0.0969   0.5204   0.7445     C
C       0.0969   0.9796   0.2445     C
O      0.10026   0.0908   0.6566     O
O      0.10026   0.4092   0.1566     O
C       0.1166   0.0833   0.5517     C
C       0.1166   0.4167   0.0517     C
H       0.1418   0.7014   0.6862     H
H       0.1418   0.7986   0.1862     H
C       0.1431   0.5983   0.0791     C
C       0.1431   0.9017   0.5791     C
C       0.1459    0.645   0.6989     C
C       0.1459    0.855   0.1989     C
C       0.1577   0.0208   0.2358     C
C       0.1577   0.4792   0.7358     C
O      0.15801   0.6657   0.1268     O
O      0.15801   0.8343   0.6268     O
H       0.1606   0.0772    0.249     H
H       0.1606   0.4228    0.749     H
C      0.18726   0.0449   0.5452     C
C      0.18726   0.4551   0.0452     C
C      0.20042   0.5387   0.0658     C
C      0.20042   0.9613   0.5658     C
C       0.2077   0.6061   0.6911     C
C       0.2077   0.8939   0.1911     C
C       0.2152   0.5217   0.7073     C
C       0.2152   0.9783   0.2073     C
H       0.2322   0.1519   0.5098     H
H       0.2322   0.3481   0.0098     H
H       0.2407   0.1364   0.1715     H
H       0.2407   0.3636   0.6715     H
C      0.24103   0.0962   0.5238     C
C      0.24103   0.4038   0.0238     C
H       0.2454   0.6368   0.6745     H
H       0.2454   0.8632   0.1745     H
C       0.2678   0.5693   0.0685     C
C       0.2678   0.9307   0.5685     C
H       0.2766   0.6249   0.0833     H
H       0.2766   0.8751   0.5833     H
C       0.2815   0.0223   0.1947     C
C       0.2815   0.1061   0.1729     C
C       0.2815   0.3939   0.6729     C
C       0.2815   0.4777   0.6947     C
C      0.30835   0.0652   0.5231     C
C      0.30835   0.4348   0.0231     C
C      0.32242   0.5179   0.0492     C
C      0.32242   0.9821   0.5492     C
H       0.3402   0.2007   0.1346     H
H       0.3402   0.2993   0.6346     H
C       0.3414   0.1448   0.1531     C
C       0.3414   0.3552   0.6531     C
C       0.3453   0.5188   0.7075     C
C       0.3453   0.9812   0.2075     C
H       0.3481   0.5744   0.7279     H
H       0.3481   0.9256   0.2279     H
O      0.35537  0.19669   0.4912     O
O      0.35537  0.30331   0.9912     O
C      0.36405   0.1217   0.4933     C
C      0.36405   0.3783   0.9933     C
C       0.3946   0.5558   0.0659     C
C       0.3946   0.9442   0.5659     C
N      0.40156  0.10276   0.1603     N
N      0.40156  0.39724   0.6603     N
C       0.4042   0.0224   0.1901     C
C       0.4042   0.4776   0.6901     C
O      0.40494  0.60523   0.9787     O
O      0.40494  0.89477   0.4787     O
O      0.41815   0.0857   0.4672     O
O      0.41815   0.4143   0.9672     O
O      0.43799  0.54284   0.1644     O
O      0.43799  0.95716   0.6644     O
H       0.4467   0.5056   0.6989     H
H       0.4467   0.9944   0.1989     H
H       0.4531   0.1588   0.0375     H
H       0.4531   0.3412   0.5375     H
C        0.464   0.1441   0.1269     C
C        0.464   0.3559   0.6269     C
N       0.4736   0.6587    0.749     N
N       0.4736   0.8413    0.249     N
N      0.47776   0.6958   0.6436     N
N      0.47776   0.8042   0.1436     N
C       0.4871   0.2198   0.2034     C
C       0.4871   0.2802   0.7034     C
N      0.49557  0.71078   0.8475     N
N      0.49557  0.78922   0.3475     N
H       0.4972   0.6054   0.3611     H
H       0.4972   0.8946   0.8611     H
N      0.49797  0.22724   0.3294     N
N      0.49797  0.27276   0.8294     N
Zn     0.49905  0.65312  0.01872    Zn
Zn     0.49905  0.84688  0.51872    Zn
Zn     0.50095  0.15312  0.48128    Zn
Zn     0.50095  0.34688  0.98128    Zn
N      0.50203  0.72724   0.1706     N
N      0.50203  0.77276   0.6706     N
H       0.5028   0.1054   0.1389     H
H       0.5028   0.3946   0.6389     H
N      0.50443  0.21078   0.6525     N
N      0.50443  0.28922   0.1525     N
C       0.5129   0.7198   0.2966     C
C       0.5129   0.7802   0.7966     C
N      0.52224   0.1958   0.8564     N
N      0.52224   0.3042   0.3564     N
N       0.5264   0.1587    0.751     N
N       0.5264   0.3413    0.251     N
C        0.536   0.6441   0.3731     C
C        0.536   0.8559   0.8731     C
H       0.5469   0.6588   0.4625     H
H       0.5469   0.8412   0.9625     H
H       0.5533   0.0056   0.8011     H
H       0.5533   0.4944   0.3011     H
O      0.56201  0.04284   0.3356     O
O      0.56201  0.45716   0.8356     O
O      0.58185   0.5857   0.0328     O
O      0.58185   0.9143   0.5328     O
O      0.59506  0.10523   0.5213     O
O      0.59506  0.39477   0.0213     O
C       0.5958   0.5224   0.3099     C
C       0.5958   0.9776   0.8099     C
N      0.59844  0.60276   0.3397     N
N      0.59844  0.89724   0.8397     N
C       0.6054   0.0558   0.4341     C
C       0.6054   0.4442   0.9341     C
C      0.63595   0.6217   0.0067     C
C      0.63595   0.8783   0.5067     C
O      0.64463  0.69669   0.0088     O
O      0.64463  0.80331   0.5088     O
H       0.6519   0.0744   0.7721     H
H       0.6519   0.4256   0.2721     H
C       0.6547   0.0188   0.7925     C
C       0.6547   0.4812   0.2925     C
C       0.6586   0.6448   0.3469     C
C       0.6586   0.8552   0.8469     C
H       0.6598   0.7007   0.3654     H
H       0.6598   0.7993   0.8654     H
C      0.67758   0.0179   0.4508     C
C      0.67758   0.4821   0.9508     C
C      0.69165   0.5652   0.9769     C
C      0.69165   0.9348   0.4769     C
C       0.7185   0.5223   0.3053     C
C       0.7185   0.6061   0.3271     C
C       0.7185   0.8939   0.8271     C
C       0.7185   0.9777   0.8053     C
H       0.7234   0.1249   0.4167     H
H       0.7234   0.3751   0.9167     H
C       0.7322   0.0693   0.4315     C
C       0.7322   0.4307   0.9315     C
H       0.7546   0.1368   0.8255     H
H       0.7546   0.3632   0.3255     H
C      0.75897   0.5962   0.9762     C
C      0.75897   0.9038   0.4762     C
H       0.7593   0.6364   0.3285     H
H       0.7593   0.8636   0.8285     H
H       0.7678   0.6519   0.9902     H
H       0.7678   0.8481   0.4902     H
C       0.7848   0.0217   0.7927     C
C       0.7848   0.4783   0.2927     C
C       0.7923   0.1061   0.8089     C
C       0.7923   0.3939   0.3089     C
C      0.79958   0.0387   0.4342     C
C      0.79958   0.4613   0.9342     C
C      0.81274   0.5449   0.9548     C
C      0.81274   0.9551   0.4548     C
H       0.8394   0.5772    0.251     H
H       0.8394   0.9228    0.751     H
O      0.84199   0.1657   0.3732     O
O      0.84199   0.3343   0.8732     O
C       0.8423   0.5208   0.2642     C
C       0.8423   0.9792   0.7642     C
C       0.8541    0.145   0.8011     C
C       0.8541    0.355   0.3011     C
C       0.8569   0.0983   0.4209     C
C       0.8569   0.4017   0.9209     C
H       0.8582   0.2014   0.8138     H
H       0.8582   0.2986   0.3138     H
C       0.8834   0.5833   0.9483     C
C       0.8834   0.9167   0.4483     C
O      0.89974   0.5908   0.8434     O
O      0.89974   0.9092   0.3434     O
C       0.9031   0.0204   0.7555     C
C       0.9031   0.4796   0.2555     C
N       0.9087  0.10237   0.7753     N
N       0.9087  0.39763   0.2753     N
O      0.91905  0.61012   0.0512     O
O      0.91905  0.88988   0.5512     O
O      0.91944  0.07541   0.4653     O
O      0.91944  0.42459   0.9653     O
H       0.9409   0.5085   0.2358     H
H       0.9409   0.9915   0.7358     H
N      0.97582   0.2052   0.2746     N
N      0.97582   0.2948   0.7746     N
N        0.976   0.1463   0.1851     N
N        0.976   0.3537   0.6851     N
C      0.97638   0.2228   0.7145     C
C      0.97638   0.2772   0.2145     C
N       0.9771   0.1818   0.0768     N
N       0.9771   0.3182   0.5768     N
N      0.97803   0.2361   0.5929     N
N      0.97803   0.2639   0.0929     N
C       0.9785   0.1415   0.7783     C
C       0.9785   0.3585   0.2783     C
Zn     0.98937  0.15856  0.45206    Zn
Zn     0.98937  0.34144  0.95206    Zn
H       0.9931   0.6045   0.7617     H
H       0.9931   0.8955   0.2617     H
H        0.998   0.6479   0.6336     H
H        0.998   0.8521   0.1336     H
