data_I
_chemical_name_common  '/home/zhangsd/repos/MofS-CGCNN/ML/data/TSD/clean_cifs/ATUXIY_clean'
_cell_length_a 23.05990
_cell_length_b 11.00500
_cell_length_c 20.94970
_cell_angle_alpha 90.00000
_cell_angle_beta  106.36900
_cell_angle_gamma 90.00000
_space_group_name_H-M_alt      'P 1'


loop_
_space_group_symop_operation_xyz
  'x, y, z' 

loop_
_atom_site_label
_atom_site_fract_x
_atom_site_fract_y
_atom_site_fract_z
_atom_site_type_symbol
Eu         0.0  0.13879     0.75    Eu
Eu         0.0  0.86121     0.25    Eu
H       0.0093   0.3572   0.0056     H
H       0.0093   0.6428   0.5056     H
O       0.0259   0.3093    0.828     O
O       0.0259   0.6907    0.328     O
C       0.0266   0.3208   0.8893     C
C       0.0266   0.6792   0.3893     C
C       0.0292   0.3541   0.5264     C
C       0.0292   0.6459   0.0264     C
C       0.0311   0.3342   0.5941     C
C       0.0311   0.6658   0.0941     C
O       0.0688   0.0219   0.2923     O
O       0.0688   0.9781   0.7923     O
O        0.076   0.3233   0.9338     O
O        0.076   0.6767   0.4338     O
H       0.0764   0.3799   0.4588     H
H       0.0764   0.6201   0.9588     H
C       0.0794   0.3691   0.5046     C
C       0.0794   0.6309   0.0046     C
C       0.0879   0.3396   0.6403     C
C       0.0879   0.6604   0.1403     C
O       0.0927   0.2319   0.7421     O
O       0.0927   0.7681   0.2421     O
C       0.0997    0.332   0.7147     C
C       0.0997    0.668   0.2147     C
H       0.1025   0.2356   0.3395     H
H       0.1025   0.7644   0.8395     H
C       0.1124   0.0079   0.8423     C
C       0.1124   0.9921   0.3423     C
O       0.1161   0.4644   0.3683     O
O       0.1161   0.5356   0.8683     O
O       0.1197   0.1118   0.8671     O
O       0.1197   0.4215   0.7477     O
O       0.1197   0.5785   0.2477     O
O       0.1197   0.8882   0.3671     O
C       0.1352   0.3677   0.5526     C
C       0.1352   0.6323   0.0526     C
Eu     0.14038  0.32025   0.8582    Eu
Eu     0.14038  0.67975   0.3582    Eu
C       0.1406   0.3555   0.6192     C
C       0.1406   0.6445   0.1192     C
C       0.1428   0.2128   0.3622     C
C       0.1428   0.7872   0.8622     C
C       0.1587   0.0891   0.3715     C
C       0.1587   0.9109   0.8715     C
C       0.1707   0.4299   0.3783     C
C       0.1707   0.5701   0.8783     C
H       0.1793   0.3576   0.6508     H
H       0.1793   0.6424   0.1508     H
O       0.1846   0.3914   0.5297     O
O       0.1846   0.6086   0.0297     O
C       0.1862   0.3008   0.3864     C
C       0.1862   0.6992   0.8864     C
H       0.2088   0.1869   0.0433     H
H       0.2088   0.8131   0.5433     H
O       0.2091   0.2736   0.9606     O
O       0.2091   0.7264   0.4606     O
O       0.2116   0.4916   0.8774     O
O       0.2116   0.5084   0.3774     O
C        0.216    0.055   0.4077     C
C        0.216    0.945   0.9077     C
H       0.2242   0.1765   0.5655     H
H       0.2242   0.8235   0.0655     H
H       0.2259   0.0282   0.9169     H
H       0.2259   0.9718   0.4169     H
C       0.2333   0.2237   0.0184     C
C       0.2333   0.7763   0.5184     C
C       0.2416   0.3557   0.5698     C
C       0.2416   0.6443   0.0698     C
C        0.245   0.2643   0.4194     C
C        0.245   0.7357   0.9194     C
C        0.255   0.2357   0.5806     C
C        0.255   0.7643   0.0806     C
C       0.2584   0.1443   0.4302     C
C       0.2584   0.8557   0.9302     C
C       0.2667   0.2763   0.9816     C
C       0.2667   0.7237   0.4816     C
H       0.2741   0.4718   0.0831     H
H       0.2741   0.5282   0.5831     H
H       0.2758   0.3235   0.4345     H
H       0.2758   0.6765   0.9345     H
C        0.284    0.445   0.5923     C
C        0.284    0.555   0.0923     C
O       0.2884   0.0084   0.1226     O
O       0.2884   0.9916   0.6226     O
O       0.2909   0.2264   0.0394     O
O       0.2909   0.7736   0.5394     O
H       0.2912   0.3131   0.9567     H
H       0.2912   0.6869   0.4567     H
C       0.3138   0.1992   0.6136     C
C       0.3138   0.8008   0.1136     C
O       0.3154   0.1086   0.4703     O
O       0.3154   0.8914   0.9703     O
H       0.3207   0.1424   0.3492     H
H       0.3207   0.8576   0.8492     H
C       0.3293   0.0701   0.6217     C
C       0.3293   0.9299   0.1217     C
C       0.3413   0.4109   0.6285     C
C       0.3413   0.5891   0.1285     C
C       0.3572   0.2872   0.6378     C
C       0.3572   0.7128   0.1378     C
C       0.3594   0.1445   0.3808     C
C       0.3594   0.8555   0.8808     C
Eu     0.35962  0.17975   0.1418    Eu
Eu     0.35962  0.82025   0.6418    Eu
C       0.3648   0.1323   0.4474     C
C       0.3648   0.8677   0.9474     C
O       0.3803   0.0785   0.2523     O
O       0.3803   0.3882   0.1329     O
O       0.3803   0.6118   0.6329     O
O       0.3803   0.9215   0.7523     O
O       0.3839   0.0356   0.6317     O
O       0.3839   0.9644   0.1317     O
C       0.3876   0.4921   0.1577     C
C       0.3876   0.5079   0.6577     C
H       0.3975   0.2644   0.6605     H
H       0.3975   0.7356   0.1605     H
C       0.4003    0.168   0.2853     C
C       0.4003    0.832   0.7853     C
O       0.4073   0.2681   0.2579     O
O       0.4073   0.7319   0.7579     O
C       0.4121   0.1604   0.3597     C
C       0.4121   0.8396   0.8597     C
C       0.4206   0.1309   0.4954     C
C       0.4206   0.8691   0.9954     C
H       0.4236   0.1201   0.5412     H
H       0.4236   0.8799   0.0412     H
O        0.424   0.1767   0.0662     O
O        0.424   0.8233   0.5662     O
O       0.4312   0.4781   0.7077     O
O       0.4312   0.5219   0.2077     O
C       0.4689   0.1658   0.4059     C
C       0.4689   0.8342   0.9059     C
C       0.4708   0.1459   0.4736     C
C       0.4708   0.8541   0.9736     C
C       0.4734   0.1792   0.1107     C
C       0.4734   0.8208   0.6107     C
O       0.4741   0.1907    0.172     O
O       0.4741   0.8093    0.672     O
H       0.4907   0.1428   0.9944     H
H       0.4907   0.8572   0.4944     H
Eu         0.5  0.36121     0.25    Eu
Eu         0.5  0.63879     0.75    Eu
H       0.5093   0.1428   0.5056     H
H       0.5093   0.8572   0.0056     H
O       0.5259   0.1907    0.328     O
O       0.5259   0.8093    0.828     O
C       0.5266   0.1792   0.3893     C
C       0.5266   0.8208   0.8893     C
C       0.5292   0.1459   0.0264     C
C       0.5292   0.8541   0.5264     C
C       0.5311   0.1658   0.0941     C
C       0.5311   0.8342   0.5941     C
O       0.5688   0.4781   0.7923     O
O       0.5688   0.5219   0.2923     O
O        0.576   0.1767   0.4338     O
O        0.576   0.8233   0.9338     O
H       0.5764   0.1201   0.9588     H
H       0.5764   0.8799   0.4588     H
C       0.5794   0.1309   0.0046     C
C       0.5794   0.8691   0.5046     C
C       0.5879   0.1604   0.1403     C
C       0.5879   0.8396   0.6403     C
O       0.5927   0.2681   0.2421     O
O       0.5927   0.7319   0.7421     O
C       0.5997    0.168   0.2147     C
C       0.5997    0.832   0.7147     C
H       0.6025   0.2644   0.8395     H
H       0.6025   0.7356   0.3395     H
C       0.6124   0.4921   0.3423     C
C       0.6124   0.5079   0.8423     C
O       0.6161   0.0356   0.8683     O
O       0.6161   0.9644   0.3683     O
O       0.6197   0.0785   0.2477     O
O       0.6197   0.3882   0.3671     O
O       0.6197   0.6118   0.8671     O
O       0.6197   0.9215   0.7477     O
C       0.6352   0.1323   0.0526     C
C       0.6352   0.8677   0.5526     C
Eu     0.64038  0.17975   0.3582    Eu
Eu     0.64038  0.82025   0.8582    Eu
C       0.6406   0.1445   0.1192     C
C       0.6406   0.8555   0.6192     C
C       0.6428   0.2872   0.8622     C
C       0.6428   0.7128   0.3622     C
C       0.6587   0.4109   0.8715     C
C       0.6587   0.5891   0.3715     C
C       0.6707   0.0701   0.8783     C
C       0.6707   0.9299   0.3783     C
H       0.6793   0.1424   0.1508     H
H       0.6793   0.8576   0.6508     H
O       0.6846   0.1086   0.0297     O
O       0.6846   0.8914   0.5297     O
C       0.6862   0.1992   0.8864     C
C       0.6862   0.8008   0.3864     C
H       0.7088   0.3131   0.5433     H
H       0.7088   0.6869   0.0433     H
O       0.7091   0.2264   0.4606     O
O       0.7091   0.7736   0.9606     O
O       0.7116   0.0084   0.3774     O
O       0.7116   0.9916   0.8774     O
C        0.716    0.445   0.9077     C
C        0.716    0.555   0.4077     C
H       0.7242   0.3235   0.0655     H
H       0.7242   0.6765   0.5655     H
H       0.7259   0.4718   0.4169     H
H       0.7259   0.5282   0.9169     H
C       0.7333   0.2763   0.5184     C
C       0.7333   0.7237   0.0184     C
C       0.7416   0.1443   0.0698     C
C       0.7416   0.8557   0.5698     C
C        0.745   0.2357   0.9194     C
C        0.745   0.7643   0.4194     C
C        0.755   0.2643   0.0806     C
C        0.755   0.7357   0.5806     C
C       0.7584   0.3557   0.9302     C
C       0.7584   0.6443   0.4302     C
C       0.7667   0.2237   0.4816     C
C       0.7667   0.7763   0.9816     C
H       0.7741   0.0282   0.5831     H
H       0.7741   0.9718   0.0831     H
H       0.7758   0.1765   0.9345     H
H       0.7758   0.8235   0.4345     H
C        0.784    0.055   0.0923     C
C        0.784    0.945   0.5923     C
O       0.7884   0.4916   0.6226     O
O       0.7884   0.5084   0.1226     O
O       0.7909   0.2736   0.5394     O
O       0.7909   0.7264   0.0394     O
H       0.7912   0.1869   0.4567     H
H       0.7912   0.8131   0.9567     H
C       0.8138   0.3008   0.1136     C
C       0.8138   0.6992   0.6136     C
O       0.8154   0.3914   0.9703     O
O       0.8154   0.6086   0.4703     O
H       0.8207   0.3576   0.8492     H
H       0.8207   0.6424   0.3492     H
C       0.8293   0.4299   0.1217     C
C       0.8293   0.5701   0.6217     C
C       0.8413   0.0891   0.1285     C
C       0.8413   0.9109   0.6285     C
C       0.8572   0.2128   0.1378     C
C       0.8572   0.7872   0.6378     C
C       0.8594   0.3555   0.8808     C
C       0.8594   0.6445   0.3808     C
Eu     0.85962  0.32025   0.6418    Eu
Eu     0.85962  0.67975   0.1418    Eu
C       0.8648   0.3677   0.9474     C
C       0.8648   0.6323   0.4474     C
O       0.8803   0.1118   0.6329     O
O       0.8803   0.4215   0.7523     O
O       0.8803   0.5785   0.2523     O
O       0.8803   0.8882   0.1329     O
O       0.8839   0.4644   0.1317     O
O       0.8839   0.5356   0.6317     O
C       0.8876   0.0079   0.6577     C
C       0.8876   0.9921   0.1577     C
H       0.8975   0.2356   0.1605     H
H       0.8975   0.7644   0.6605     H
C       0.9003    0.332   0.7853     C
C       0.9003    0.668   0.2853     C
O       0.9073   0.2319   0.7579     O
O       0.9073   0.7681   0.2579     O
C       0.9121   0.3396   0.8597     C
C       0.9121   0.6604   0.3597     C
C       0.9206   0.3691   0.9954     C
C       0.9206   0.6309   0.4954     C
H       0.9236   0.3799   0.0412     H
H       0.9236   0.6201   0.5412     H
O        0.924   0.3233   0.5662     O
O        0.924   0.6767   0.0662     O
O       0.9312   0.0219   0.2077     O
O       0.9312   0.9781   0.7077     O
C       0.9689   0.3342   0.9059     C
C       0.9689   0.6658   0.4059     C
C       0.9708   0.3541   0.9736     C
C       0.9708   0.6459   0.4736     C
C       0.9734   0.3208   0.6107     C
C       0.9734   0.6792   0.1107     C
O       0.9741   0.3093    0.672     O
O       0.9741   0.6907    0.172     O
H       0.9907   0.3572   0.4944     H
H       0.9907   0.6428   0.9944     H
