data_I
_chemical_name_common  '/home/zhangsd/repos/MofS-CGCNN/ML/data/TSD/clean_cifs/AVESOL_clean'
_cell_length_a 16.14750
_cell_length_b 12.51600
_cell_length_c 19.86870
_cell_angle_alpha 90.00000
_cell_angle_beta  93.32100
_cell_angle_gamma 90.00000
_space_group_name_H-M_alt      'P 1'


loop_
_space_group_symop_operation_xyz
  'x, y, z' 

loop_
_atom_site_label
_atom_site_fract_x
_atom_site_fract_y
_atom_site_fract_z
_atom_site_type_symbol
C       0.0169   0.5269   0.2754     C
C       0.0169   0.9731   0.7754     C
O      0.04441   0.0402  0.73531     O
O      0.04441   0.4598  0.23531     O
O       0.0529   0.6138  0.28492     O
O       0.0529   0.8862  0.78492     O
C       0.0597    0.002  0.18889     C
C       0.0597    0.498  0.68889     C
H       0.0702   0.1487   0.1474     H
H       0.0702   0.3513   0.6474     H
H       0.0741   0.6493   0.7207     H
H       0.0741   0.8507   0.2207     H
C       0.0953   0.0819  0.15101     C
C       0.0953   0.4181  0.65101     C
C       0.0968   0.5966  0.69436     C
C       0.0968   0.9034  0.19436     C
Zn     0.14325  0.56476  0.21031    Zn
Zn     0.14325  0.93524  0.71031    Zn
C       0.1682   0.0626  0.11857     C
C       0.1682   0.4374  0.61857     C
C       0.1687    0.618  0.66042     C
C       0.1687    0.882  0.16042     C
H       0.1737   0.2299   0.6401     H
H       0.1737   0.2701   0.1401     H
O       0.1887   0.7137  0.21257     O
O       0.1887   0.7863  0.71257     O
O      0.18929   0.0365  0.64305     O
O      0.18929   0.4635  0.14305     O
C       0.2036   0.5379  0.62298     C
C       0.2036   0.9621  0.12298     C
C       0.2049   0.2453  0.60344     C
C       0.2049   0.2547  0.10344     C
C       0.2088   0.1509  0.08124     C
C       0.2088   0.3491  0.58124     C
C       0.2098   0.7263   0.6672     C
C       0.2098   0.7737   0.1672     C
O      0.22974    0.517  0.28206     O
O      0.22974    0.983  0.78206     O
C       0.2448   0.0546  0.60324     C
C       0.2448   0.4454  0.10324     C
C       0.2456   0.1635  0.57329     C
C       0.2456   0.3365  0.07329     C
H       0.2514    0.552   0.6006     H
H       0.2514    0.948   0.1006     H
C      0.25241   0.1302  0.02433     C
C      0.25241   0.3698  0.52433     C
H       0.2539   0.0766   0.8921     H
H       0.2539   0.4234   0.3921     H
H       0.2547   0.0606   0.0081     H
H       0.2547   0.4394   0.5081     H
O      0.26617  0.74781  0.63141     O
O      0.26617  0.75219  0.13141     O
C       0.2902   0.1861  0.51677     C
C       0.2902   0.3139  0.01677     C
C      0.29254   0.2108  0.99124     C
C      0.29254   0.2892  0.49124     C
O      0.29896  0.51174   0.0884     O
O      0.29896  0.98826   0.5884     O
C       0.3037   0.1099  0.88354     C
C       0.3037   0.3901  0.38354     C
C       0.3046   0.0042  0.77686     C
C       0.3046   0.4958  0.27686     C
H       0.3185   0.1316   0.4961     H
H       0.3185   0.3684   0.9961     H
Zn     0.33419  0.62584  0.15396    Zn
Zn     0.33419  0.87416  0.65396    Zn
C       0.3363   0.1856  0.92866     C
C       0.3363   0.3144  0.42866     C
C       0.3434   0.0827  0.82613     C
C       0.3434   0.4173  0.32613     C
O      0.35017   0.5347  0.23395     O
O      0.35017   0.9653  0.73395     O
C       0.4096   0.2355  0.91407     C
C       0.4096   0.2645  0.41407     C
C       0.4172   0.1326  0.81324     C
C       0.4172   0.3674  0.31324     C
H       0.4322    0.213   0.4435     H
H       0.4322    0.287   0.9435     H
O      0.43417   0.7401  0.70941     O
O      0.43417   0.7599  0.20941     O
O      0.44199    0.665  0.11782     O
O      0.44199    0.835  0.61782     O
H        0.445   0.1138   0.7753     H
H        0.445   0.3862   0.2753     H
C       0.4498   0.2103  0.85676     C
C       0.4498   0.2897  0.35676     C
C       0.4698   0.7353   0.1583     C
C       0.4698   0.7647   0.6583     C
C       0.5302   0.2353   0.3417     C
C       0.5302   0.2647   0.8417     C
C       0.5502   0.7103  0.64324     C
C       0.5502   0.7897  0.14324     C
H        0.555   0.6138   0.7247     H
H        0.555   0.8862   0.2247     H
O      0.55801    0.165  0.38218     O
O      0.55801    0.335  0.88218     O
O      0.56583   0.2401  0.79059     O
O      0.56583   0.2599  0.29059     O
H       0.5678    0.713   0.0565     H
H       0.5678    0.787   0.5565     H
C       0.5828   0.6326  0.68676     C
C       0.5828   0.8674  0.18676     C
C       0.5904   0.7355  0.58593     C
C       0.5904   0.7645  0.08593     C
O      0.64983   0.0347  0.26605     O
O      0.64983   0.4653  0.76605     O
C       0.6566   0.5827  0.67387     C
C       0.6566   0.9173  0.17387     C
C       0.6637   0.6856  0.57134     C
C       0.6637   0.8144  0.07134     C
Zn     0.66581  0.12584  0.34604    Zn
Zn     0.66581  0.37416  0.84604    Zn
H       0.6815   0.6316   0.0039     H
H       0.6815   0.8684   0.5039     H
C       0.6954   0.5042  0.72314     C
C       0.6954   0.9958  0.22314     C
C       0.6963   0.6099  0.61646     C
C       0.6963   0.8901  0.11646     C
O      0.70104  0.01174   0.4116     O
O      0.70104  0.48826   0.9116     O
C      0.70746   0.7108  0.50876     C
C      0.70746   0.7892  0.00876     C
C       0.7098   0.6861  0.98323     C
C       0.7098   0.8139  0.48323     C
O      0.73383  0.24781  0.86859     O
O      0.73383  0.25219  0.36859     O
H       0.7453   0.5606   0.4919     H
H       0.7453   0.9394   0.9919     H
H       0.7461   0.5766   0.6079     H
H       0.7461   0.9234   0.1079     H
C      0.74759   0.6302  0.47567     C
C      0.74759   0.8698  0.97567     C
H       0.7486    0.052   0.8994     H
H       0.7486    0.448   0.3994     H
C       0.7544   0.6635  0.92671     C
C       0.7544   0.8365  0.42671     C
C       0.7552   0.5546  0.89676     C
C       0.7552   0.9454  0.39676     C
O      0.77026    0.017  0.21794     O
O      0.77026    0.483  0.71794     O
C       0.7902   0.2263   0.8328     C
C       0.7902   0.2737   0.3328     C
C       0.7912   0.6509  0.41876     C
C       0.7912   0.8491  0.91876     C
C       0.7951   0.7453  0.89656     C
C       0.7951   0.7547  0.39656     C
C       0.7964   0.0379  0.87702     C
C       0.7964   0.4621  0.37702     C
O      0.81071   0.5365  0.85695     O
O      0.81071   0.9635  0.35695     O
O       0.8113   0.2137  0.28743     O
O       0.8113   0.2863  0.78743     O
H       0.8263   0.7299   0.8599     H
H       0.8263   0.7701   0.3599     H
C       0.8313    0.118  0.83958     C
C       0.8313    0.382  0.33958     C
C       0.8318   0.5626  0.38143     C
C       0.8318   0.9374  0.88143     C
Zn     0.85675  0.06476  0.28969    Zn
Zn     0.85675  0.43524  0.78969    Zn
C       0.9032   0.0966  0.80564     C
C       0.9032   0.4034  0.30564     C
C       0.9047   0.5819  0.34899     C
C       0.9047   0.9181  0.84899     C
H       0.9259   0.1493   0.7793     H
H       0.9259   0.3507   0.2793     H
H       0.9298   0.6487   0.3526     H
H       0.9298   0.8513   0.8526     H
C       0.9403    0.502  0.31111     C
C       0.9403    0.998  0.81111     C
O       0.9471   0.1138  0.21508     O
O       0.9471   0.3862  0.71508     O
O      0.95559   0.5402  0.76469     O
O      0.95559   0.9598  0.26469     O
C       0.9831   0.0269   0.2246     C
C       0.9831   0.4731   0.7246     C
