data_I
_chemical_name_common  '/home/zhangsd/repos/MofS-CGCNN/ML/data/TSD/clean_cifs/AVETEC_clean'
_cell_length_a 29.22000
_cell_length_b 29.22000
_cell_length_c  9.38820
_cell_angle_alpha 90.00000
_cell_angle_beta  90.00000
_cell_angle_gamma 90.00000
_space_group_name_H-M_alt      'P 1'


loop_
_space_group_symop_operation_xyz
  'x, y, z' 

loop_
_atom_site_label
_atom_site_fract_x
_atom_site_fract_y
_atom_site_fract_z
_atom_site_type_symbol
Cd         0.0      0.0      0.0    Cd
Cd         0.0      0.5     0.25    Cd
H        0.008   0.2456   0.9447     H
H        0.008   0.2544   0.3053     H
C       0.0097   0.2233   0.2842     C
C       0.0097   0.2767   0.9658     C
O       0.0123   0.5668   0.1578     O
O       0.0123   0.9332   0.0922     O
C       0.0154   0.1311   0.2179     C
C       0.0154   0.3689   0.0321     C
C       0.0182    0.081   0.1752     C
C       0.0182    0.419   0.0748     C
C       0.0206   0.6563   0.0796     C
C       0.0206   0.8437   0.1704     C
C       0.0237   0.7032   0.0463     C
C       0.0237   0.7968   0.2037     C
H       0.0432   0.6426   0.1344     H
H       0.0432   0.8574   0.1156     H
C       0.0459   0.1974   0.3344     C
C       0.0459   0.3026   0.9156     C
O       0.0474   0.0568   0.2277     O
O       0.0474   0.4432   0.0223     O
C       0.0478   0.1506   0.3009     C
C       0.0478   0.3494   0.9491     C
O       0.0568   0.5474   0.4777     O
O       0.0568   0.9526   0.7723     O
O       0.0668   0.0123   0.9078     O
O       0.0668   0.4877   0.3422     O
C       0.0669   0.7287     0.09     C
C       0.0669   0.7713     0.16     C
H       0.0717   0.1328   0.3362     H
H       0.0717   0.3672   0.9138     H
O       0.0786   0.2393   0.7945     O
O       0.0786   0.2607   0.4555     O
C        0.081   0.2194   0.4319     C
C        0.081   0.2806   0.8181     C
C        0.081   0.5182   0.4252     C
C        0.081   0.9818   0.8248     C
H        0.107   0.6843   0.9973     H
H        0.107   0.8157   0.2527     H
C       0.1071   0.7109   0.0518     C
C       0.1071   0.7891   0.1982     C
O       0.1106  0.19435   0.4856     O
O       0.1106  0.30565   0.7644     O
C       0.1311   0.5154   0.4679     C
C       0.1311   0.9846   0.7821     C
H       0.1328   0.5717   0.5862     H
H       0.1328   0.9283   0.6638     H
H       0.1426   0.0432   0.8844     H
H       0.1426   0.4568   0.3656     H
Cd     0.14437     0.25    0.625    Cd
C       0.1506   0.5478   0.5509     C
C       0.1506   0.9522   0.6991     C
C       0.1508   0.7303   0.0899     C
C       0.1508   0.7697   0.1601     C
C       0.1563   0.0206   0.8296     C
C       0.1563   0.4794   0.4204     C
O       0.1733    0.208    0.831     O
O       0.1733    0.292    0.419     O
O       0.1735   0.1897    0.706     O
O       0.1735   0.3103    0.544     O
H       0.1843    0.107   0.7473     H
H       0.1843    0.393   0.5027     H
C       0.1891   0.7054   0.0307     C
C       0.1891   0.7946   0.2193     C
O       0.1897   0.6735    0.956     O
O       0.1897   0.8265    0.294     O
O      0.19435   0.6106   0.7356     O
O      0.19435   0.8894   0.5144     O
C       0.1974   0.5459   0.5844     C
C       0.1974   0.9541   0.6656     C
C       0.2032   0.0237   0.7963     C
C       0.2032   0.4763   0.4537     C
C       0.2054   0.1891   0.7807     C
C       0.2054   0.3109   0.4693     C
O       0.2064   0.7145    0.906     O
O       0.2064   0.7855    0.344     O
O        0.208   0.6733    0.081     O
O        0.208   0.8267    0.169     O
C       0.2109   0.1071   0.8018     C
C       0.2109   0.3929   0.4482     C
O       0.2145   0.2064    0.656     O
O       0.2145   0.2936    0.594     O
C       0.2194    0.581   0.6819     C
C       0.2194    0.919   0.5681     C
C       0.2233   0.5097   0.5342     C
C       0.2233   0.9903   0.7158     C
O       0.2245   0.2285   0.8252     O
O       0.2245   0.2715   0.4248     O
O       0.2285   0.7245   0.0752     O
O       0.2285   0.7755   0.1748     O
C       0.2287   0.0669     0.84     C
C       0.2287   0.4331     0.41     C
C       0.2303   0.1508   0.8399     C
C       0.2303   0.3492   0.4101     C
O       0.2393   0.5786   0.0445     O
O       0.2393   0.9214   0.2055     O
H       0.2456    0.508   0.1947     H
H       0.2456    0.992   0.0553     H
Cd        0.25  0.64437    0.875    Cd
Cd        0.25  0.85563    0.375    Cd
H       0.2544    0.508   0.5553     H
H       0.2544    0.992   0.6947     H
O       0.2607   0.5786   0.7055     O
O       0.2607   0.9214   0.5445     O
C       0.2697   0.1508   0.9101     C
C       0.2697   0.3492   0.3399     C
C       0.2713   0.0669     0.91     C
C       0.2713   0.4331     0.34     C
O       0.2715   0.7245   0.6748     O
O       0.2715   0.7755   0.5752     O
O       0.2755   0.2285   0.9248     O
O       0.2755   0.2715   0.3252     O
C       0.2767   0.5097   0.2158     C
C       0.2767   0.9903   0.0342     C
C       0.2806    0.581   0.0681     C
C       0.2806    0.919   0.1819     C
O       0.2855   0.2064    0.094     O
O       0.2855   0.2936    0.156     O
C       0.2891   0.1071   0.9482     C
C       0.2891   0.3929   0.3018     C
O        0.292   0.6733    0.669     O
O        0.292   0.8267    0.581     O
O       0.2936   0.7145    0.844     O
O       0.2936   0.7855    0.406     O
C       0.2946   0.1891   0.9693     C
C       0.2946   0.3109   0.2807     C
C       0.2968   0.0237   0.9537     C
C       0.2968   0.4763   0.2963     C
C       0.3026   0.5459   0.1656     C
C       0.3026   0.9541   0.0844     C
O      0.30565   0.6106   0.0144     O
O      0.30565   0.8894   0.2356     O
O       0.3103   0.6735    0.794     O
O       0.3103   0.8265    0.456     O
C       0.3109   0.7054   0.7193     C
C       0.3109   0.7946   0.5307     C
H       0.3157    0.107   0.0027     H
H       0.3157    0.393   0.2473     H
O       0.3265   0.1897    0.044     O
O       0.3265   0.3103    0.206     O
O       0.3267    0.208    0.919     O
O       0.3267    0.292    0.331     O
C       0.3437   0.0206   0.9204     C
C       0.3437   0.4794   0.3296     C
C       0.3492   0.7303   0.6601     C
C       0.3492   0.7697   0.5899     C
C       0.3494   0.5478   0.1991     C
C       0.3494   0.9522   0.0509     C
Cd     0.35563     0.25    0.125    Cd
H       0.3574   0.0432   0.8656     H
H       0.3574   0.4568   0.3844     H
H       0.3672   0.5717   0.1638     H
H       0.3672   0.9283   0.0862     H
C       0.3689   0.5154   0.2821     C
C       0.3689   0.9846   0.9679     C
O       0.3894  0.19435   0.2644     O
O       0.3894  0.30565   0.9856     O
C       0.3929   0.7109   0.6982     C
C       0.3929   0.7891   0.5518     C
H        0.393   0.6843   0.7527     H
H        0.393   0.8157   0.4973     H
C        0.419   0.2194   0.3181     C
C        0.419   0.2806   0.9319     C
C        0.419   0.5182   0.3248     C
C        0.419   0.9818   0.9252     C
O       0.4214   0.2393   0.9555     O
O       0.4214   0.2607   0.2945     O
H       0.4283   0.1328   0.4138     H
H       0.4283   0.3672   0.8362     H
C       0.4331   0.7287     0.66     C
C       0.4331   0.7713     0.59     C
O       0.4332   0.0123   0.8422     O
O       0.4332   0.4877   0.4078     O
O       0.4432   0.5474   0.2723     O
O       0.4432   0.9526   0.9777     O
C       0.4522   0.1506   0.4491     C
C       0.4522   0.3494   0.8009     C
O       0.4526   0.0568   0.5223     O
O       0.4526   0.4432   0.7277     O
C       0.4541   0.1974   0.4156     C
C       0.4541   0.3026   0.8344     C
H       0.4568   0.6426   0.6156     H
H       0.4568   0.8574   0.6344     H
C       0.4763   0.7032   0.7037     C
C       0.4763   0.7968   0.5463     C
C       0.4794   0.6563   0.6704     C
C       0.4794   0.8437   0.5796     C
C       0.4818    0.081   0.5748     C
C       0.4818    0.419   0.6752     C
C       0.4846   0.1311   0.5321     C
C       0.4846   0.3689   0.7179     C
O       0.4877   0.5668   0.5922     O
O       0.4877   0.9332   0.6578     O
C       0.4903   0.2233   0.4658     C
C       0.4903   0.2767   0.7842     C
H        0.492   0.2456   0.8053     H
H        0.492   0.2544   0.4447     H
Cd         0.5      0.0     0.75    Cd
Cd         0.5      0.5      0.5    Cd
H        0.508   0.7456   0.4447     H
H        0.508   0.7544   0.8053     H
C       0.5097   0.7233   0.7842     C
C       0.5097   0.7767   0.4658     C
O       0.5123   0.0668   0.6578     O
O       0.5123   0.4332   0.5922     O
C       0.5154   0.6311   0.7179     C
C       0.5154   0.8689   0.5321     C
C       0.5182    0.581   0.6752     C
C       0.5182    0.919   0.5748     C
C       0.5206   0.1563   0.5796     C
C       0.5206   0.3437   0.6704     C
C       0.5237   0.2032   0.5463     C
C       0.5237   0.2968   0.7037     C
H       0.5432   0.1426   0.6344     H
H       0.5432   0.3574   0.6156     H
C       0.5459   0.6974   0.8344     C
C       0.5459   0.8026   0.4156     C
O       0.5474   0.5568   0.7277     O
O       0.5474   0.9432   0.5223     O
C       0.5478   0.6506   0.8009     C
C       0.5478   0.8494   0.4491     C
O       0.5568   0.0474   0.9777     O
O       0.5568   0.4526   0.2723     O
O       0.5668   0.5123   0.4078     O
O       0.5668   0.9877   0.8422     O
C       0.5669   0.2287     0.59     C
C       0.5669   0.2713     0.66     C
H       0.5717   0.6328   0.8362     H
H       0.5717   0.8672   0.4138     H
O       0.5786   0.7393   0.2945     O
O       0.5786   0.7607   0.9555     O
C        0.581   0.0182   0.9252     C
C        0.581   0.4818   0.3248     C
C        0.581   0.7194   0.9319     C
C        0.581   0.7806   0.3181     C
H        0.607   0.1843   0.4973     H
H        0.607   0.3157   0.7527     H
C       0.6071   0.2109   0.5518     C
C       0.6071   0.2891   0.6982     C
O       0.6106  0.69435   0.9856     O
O       0.6106  0.80565   0.2644     O
C       0.6311   0.0154   0.9679     C
C       0.6311   0.4846   0.2821     C
H       0.6328   0.0717   0.0862     H
H       0.6328   0.4283   0.1638     H
H       0.6426   0.5432   0.3844     H
H       0.6426   0.9568   0.8656     H
Cd     0.64437     0.75    0.125    Cd
C       0.6506   0.0478   0.0509     C
C       0.6506   0.4522   0.1991     C
C       0.6508   0.2303   0.5899     C
C       0.6508   0.2697   0.6601     C
C       0.6563   0.5206   0.3296     C
C       0.6563   0.9794   0.9204     C
O       0.6733    0.708    0.331     O
O       0.6733    0.792    0.919     O
O       0.6735   0.6897    0.206     O
O       0.6735   0.8103    0.044     O
H       0.6843    0.607   0.2473     H
H       0.6843    0.893   0.0027     H
C       0.6891   0.2054   0.5307     C
C       0.6891   0.2946   0.7193     C
O       0.6897   0.1735    0.456     O
O       0.6897   0.3265    0.794     O
O      0.69435   0.1106   0.2356     O
O      0.69435   0.3894   0.0144     O
C       0.6974   0.0459   0.0844     C
C       0.6974   0.4541   0.1656     C
C       0.7032   0.5237   0.2963     C
C       0.7032   0.9763   0.9537     C
C       0.7054   0.6891   0.2807     C
C       0.7054   0.8109   0.9693     C
O       0.7064   0.2145    0.406     O
O       0.7064   0.2855    0.844     O
O        0.708   0.1733    0.581     O
O        0.708   0.3267    0.669     O
C       0.7109   0.6071   0.3018     C
C       0.7109   0.8929   0.9482     C
O       0.7145   0.7064    0.156     O
O       0.7145   0.7936    0.094     O
C       0.7194    0.081   0.1819     C
C       0.7194    0.419   0.0681     C
C       0.7233   0.0097   0.0342     C
C       0.7233   0.4903   0.2158     C
O       0.7245   0.7285   0.3252     O
O       0.7245   0.7715   0.9248     O
O       0.7285   0.2245   0.5752     O
O       0.7285   0.2755   0.6748     O
C       0.7287   0.5669     0.34     C
C       0.7287   0.9331     0.91     C
C       0.7303   0.6508   0.3399     C
C       0.7303   0.8492   0.9101     C
O       0.7393   0.0786   0.5445     O
O       0.7393   0.4214   0.7055     O
H       0.7456    0.008   0.6947     H
H       0.7456    0.492   0.5553     H
Cd        0.75  0.14437    0.375    Cd
Cd        0.75  0.35563    0.875    Cd
H       0.7544    0.008   0.0553     H
H       0.7544    0.492   0.1947     H
O       0.7607   0.0786   0.2055     O
O       0.7607   0.4214   0.0445     O
C       0.7697   0.6508   0.4101     C
C       0.7697   0.8492   0.8399     C
C       0.7713   0.5669     0.41     C
C       0.7713   0.9331     0.84     C
O       0.7715   0.2245   0.1748     O
O       0.7715   0.2755   0.0752     O
O       0.7755   0.7285   0.4248     O
O       0.7755   0.7715   0.8252     O
C       0.7767   0.0097   0.7158     C
C       0.7767   0.4903   0.5342     C
C       0.7806    0.081   0.5681     C
C       0.7806    0.419   0.6819     C
O       0.7855   0.7064    0.594     O
O       0.7855   0.7936    0.656     O
C       0.7891   0.6071   0.4482     C
C       0.7891   0.8929   0.8018     C
O        0.792   0.1733    0.169     O
O        0.792   0.3267    0.081     O
O       0.7936   0.2145    0.344     O
O       0.7936   0.2855    0.906     O
C       0.7946   0.6891   0.4693     C
C       0.7946   0.8109   0.7807     C
C       0.7968   0.5237   0.4537     C
C       0.7968   0.9763   0.7963     C
C       0.8026   0.0459   0.6656     C
C       0.8026   0.4541   0.5844     C
O      0.80565   0.1106   0.5144     O
O      0.80565   0.3894   0.7356     O
O       0.8103   0.1735    0.294     O
O       0.8103   0.3265    0.956     O
C       0.8109   0.2054   0.2193     C
C       0.8109   0.2946   0.0307     C
H       0.8157    0.607   0.5027     H
H       0.8157    0.893   0.7473     H
O       0.8265   0.6897    0.544     O
O       0.8265   0.8103    0.706     O
O       0.8267    0.708    0.419     O
O       0.8267    0.792    0.831     O
C       0.8437   0.5206   0.4204     C
C       0.8437   0.9794   0.8296     C
C       0.8492   0.2303   0.1601     C
C       0.8492   0.2697   0.0899     C
C       0.8494   0.0478   0.6991     C
C       0.8494   0.4522   0.5509     C
Cd     0.85563     0.75    0.625    Cd
H       0.8574   0.5432   0.3656     H
H       0.8574   0.9568   0.8844     H
H       0.8672   0.0717   0.6638     H
H       0.8672   0.4283   0.5862     H
C       0.8689   0.0154   0.7821     C
C       0.8689   0.4846   0.4679     C
O       0.8894  0.69435   0.7644     O
O       0.8894  0.80565   0.4856     O
C       0.8929   0.2109   0.1982     C
C       0.8929   0.2891   0.0518     C
H        0.893   0.1843   0.2527     H
H        0.893   0.3157   0.9973     H
C        0.919   0.0182   0.8248     C
C        0.919   0.4818   0.4252     C
C        0.919   0.7194   0.8181     C
C        0.919   0.7806   0.4319     C
O       0.9214   0.7393   0.4555     O
O       0.9214   0.7607   0.7945     O
H       0.9283   0.6328   0.9138     H
H       0.9283   0.8672   0.3362     H
C       0.9331   0.2287     0.16     C
C       0.9331   0.2713     0.09     C
O       0.9332   0.5123   0.3422     O
O       0.9332   0.9877   0.9078     O
O       0.9432   0.0474   0.7723     O
O       0.9432   0.4526   0.4777     O
C       0.9522   0.6506   0.9491     C
C       0.9522   0.8494   0.3009     C
O       0.9526   0.5568   0.0223     O
O       0.9526   0.9432   0.2277     O
C       0.9541   0.6974   0.9156     C
C       0.9541   0.8026   0.3344     C
H       0.9568   0.1426   0.1156     H
H       0.9568   0.3574   0.1344     H
C       0.9763   0.2032   0.2037     C
C       0.9763   0.2968   0.0463     C
C       0.9794   0.1563   0.1704     C
C       0.9794   0.3437   0.0796     C
C       0.9818    0.581   0.0748     C
C       0.9818    0.919   0.1752     C
C       0.9846   0.6311   0.0321     C
C       0.9846   0.8689   0.2179     C
O       0.9877   0.0668   0.0922     O
O       0.9877   0.4332   0.1578     O
C       0.9903   0.7233   0.9658     C
C       0.9903   0.7767   0.2842     C
H        0.992   0.7456   0.3053     H
H        0.992   0.7544   0.9447     H
