data_I
_chemical_name_common  '/home/zhangsd/repos/MofS-CGCNN/ML/data/TSD/clean_cifs/AWARIZ_clean'
_cell_length_a 18.54860
_cell_length_b 18.54860
_cell_length_c  9.85380
_cell_angle_alpha 90.00000
_cell_angle_beta  90.00000
_cell_angle_gamma 120.00000
_space_group_name_H-M_alt      'P 1'


loop_
_space_group_symop_operation_xyz
  'x, y, z' 

loop_
_atom_site_label
_atom_site_fract_x
_atom_site_fract_y
_atom_site_fract_z
_atom_site_type_symbol
F          0.0  0.25453     0.25     F
Zn         0.0  0.37641     0.75    Zn
N          0.0  0.48404     0.75     N
N          0.0  0.51596     0.25     N
Zn         0.0  0.62359     0.25    Zn
F          0.0  0.74547     0.75     F
N      0.02614  0.41539  0.19356     N
N      0.02614  0.61074  0.69356     N
C      0.03966  0.49054   0.1644     C
C      0.03966  0.54911   0.6644     C
Zn     0.04308  0.33333  0.08333    Zn
Zn     0.04308  0.70975  0.58333    Zn
N      0.05592   0.3072   0.5269     N
N      0.05592  0.74873   0.0269     N
H      0.06873  0.20707  0.35667     H
H      0.06873  0.86167  0.85667     H
H      0.07217  0.52233  0.09223     H
H      0.07217  0.54983  0.59223     H
H      0.07423  0.23107  0.88747     H
H      0.07423  0.84317  0.38747     H
F       0.0788  0.41214  0.91667     F
F       0.0788  0.66667  0.41667     F
N      0.08206  0.35947  0.63977     N
N      0.08206  0.72259  0.13977     N
N      0.09677  0.54403  0.06843     N
N      0.09677  0.55273  0.56843     N
H      0.10227  0.50983  0.55413     H
H      0.10227  0.59243  0.05413     H
N      0.11393  0.23657  0.40177     N
N      0.11393  0.87737  0.90177     N
H      0.11683  0.26117  0.42557     H
H      0.11683  0.85567  0.92557     H
C      0.11755  0.29368  0.49774     C
C      0.11755  0.82388  0.99774     C
N      0.12263  0.23657  0.90177     N
N      0.12263  0.88607  0.40177     N
H      0.12627  0.52833  0.02333     H
H      0.12627  0.59793  0.52333     H
H      0.13833  0.20707  0.85667     H
H      0.13833  0.93127  0.35667     H
H      0.14433  0.26117  0.92557     H
H      0.14433  0.88317  0.42557     H
N      0.15071  0.33333  0.08333     N
N      0.15071  0.81737  0.58333     N
H      0.15683  0.23107  0.38747     H
H      0.15683  0.92577  0.88747     H
C      0.15721  0.37299  0.66893     C
C      0.15721  0.78422  0.16893     C
C      0.17612  0.29368  0.99774     C
C      0.17612  0.88245  0.49774     C
H       0.1765   0.4356   0.2792     H
H       0.1765   0.7409   0.7792     H
N      0.18263  0.33333  0.58333     N
N      0.18263  0.84929  0.08333     N
H        0.189   0.4055   0.7411     H
H        0.189   0.7835   0.2411     H
H        0.195   0.4596     0.81     H
H        0.195   0.7354     0.31     H
H      0.20707  0.06873  0.14333     H
H      0.20707  0.13833  0.64333     H
N       0.2107   0.4301   0.7649     N
N       0.2107   0.7806   0.2649     N
C      0.21578  0.37299  0.16893     C
C      0.21578  0.84279  0.66893     C
H       0.2165   0.4055   0.2411     H
H       0.2165    0.811   0.7411     H
N       0.2194   0.4301   0.2649     N
N       0.2194   0.7893   0.7649     N
H      0.23107  0.07423  0.61253     H
H      0.23107  0.15683  0.11253     H
N      0.23657  0.11393  0.09823     N
N      0.23657  0.12263  0.59823     N
N      0.25127   0.3072   0.0269     N
N      0.25127  0.94408   0.5269     N
F      0.25453      0.0     0.25     F
F      0.25453  0.25453     0.75     F
H       0.2591   0.4356   0.7792     H
H       0.2591   0.8235   0.2792     H
H      0.26117  0.11683  0.07443     H
H      0.26117  0.14433  0.57443     H
H       0.2646   0.4596     0.31     H
H       0.2646    0.805     0.81     H
N      0.27741  0.35947  0.13977     N
N      0.27741  0.91794  0.63977     N
Zn     0.29025  0.33333  0.58333    Zn
Zn     0.29025  0.95692  0.08333    Zn
C      0.29368  0.11755  0.00226     C
C      0.29368  0.17612  0.50226     C
N       0.3072  0.05592   0.9731     N
N       0.3072  0.25127   0.4731     N
Zn     0.33333  0.04308  0.41667    Zn
N      0.33333  0.15071  0.41667     N
N      0.33333  0.18263  0.91667     N
Zn     0.33333  0.29025  0.91667    Zn
F      0.33333  0.41214  0.41667     F
F      0.33333   0.9212  0.91667     F
N      0.35947  0.08206  0.86023     N
N      0.35947  0.27741  0.36023     N
C      0.37299  0.15721  0.83107     C
C      0.37299  0.21578  0.33107     C
Zn     0.37641      0.0     0.75    Zn
Zn     0.37641  0.37641     0.25    Zn
N      0.38926  0.41539  0.69356     N
N      0.38926  0.97386  0.19356     N
H      0.40207  0.52833  0.52333     H
H      0.40207  0.87373  0.02333     H
H       0.4055    0.189   0.7589     H
H       0.4055   0.2165   0.2589     H
H      0.40757  0.50983  0.05413     H
H      0.40757  0.89773  0.55413     H
F      0.41214   0.0788  0.58333     F
F      0.41214  0.33333  0.08333     F
N      0.41539  0.02614  0.30644     N
N      0.41539  0.38926  0.80644     N
N       0.4301   0.2107   0.7351     N
N       0.4301   0.2194   0.2351     N
H       0.4356   0.1765   0.2208     H
H       0.4356   0.2591   0.7208     H
N      0.44727  0.54403  0.56843     N
N      0.44727  0.90323  0.06843     N
H      0.45017  0.52233  0.59223     H
H      0.45017  0.92783  0.09223     H
C      0.45089  0.49054   0.6644     C
C      0.45089  0.96034   0.1644     C
N      0.45597  0.55273  0.06843     N
N      0.45597  0.90323  0.56843     N
H       0.4596    0.195     0.69     H
H       0.4596   0.2646     0.19     H
H      0.47167  0.59793  0.02333     H
H      0.47167  0.87373  0.52333     H
H      0.47767  0.54983  0.09223     H
H      0.47767  0.92783  0.59223     H
N      0.48404      0.0     0.75     N
N      0.48404  0.48404     0.25     N
H      0.49017  0.59243  0.55413     H
H      0.49017  0.89773  0.05413     H
C      0.49054  0.03966   0.3356     C
C      0.49054  0.45089   0.8356     C
C      0.50946  0.54911   0.1644     C
C      0.50946  0.96034   0.6644     C
H      0.50983  0.10227  0.94587     H
H      0.50983  0.40757  0.44587     H
N      0.51596      0.0     0.25     N
N      0.51596  0.51596     0.75     N
H      0.52233  0.07217  0.40777     H
H      0.52233  0.45017  0.90777     H
H      0.52833  0.12627  0.47667     H
H      0.52833  0.40207  0.97667     H
H       0.5404   0.7354     0.81     H
H       0.5404    0.805     0.31     H
N      0.54403  0.09677  0.43157     N
N      0.54403  0.44727  0.93157     N
C      0.54911  0.03966   0.8356     C
C      0.54911  0.50946   0.3356     C
H      0.54983  0.07217  0.90777     H
H      0.54983  0.47767  0.40777     H
N      0.55273  0.09677  0.93157     N
N      0.55273  0.45597  0.43157     N
H       0.5644   0.7409   0.2792     H
H       0.5644   0.8235   0.7792     H
N       0.5699   0.7806   0.7649     N
N       0.5699   0.7893   0.2649     N
N      0.58461  0.61074  0.19356     N
N      0.58461  0.97386  0.69356     N
F      0.58786  0.66667  0.91667     F
F      0.58786   0.9212  0.41667     F
H      0.59243  0.10227  0.44587     H
H      0.59243  0.49017  0.94587     H
H       0.5945   0.7835   0.7411     H
H       0.5945    0.811   0.2411     H
H      0.59793  0.12627  0.97667     H
H      0.59793  0.47167  0.47667     H
N      0.61074  0.02614  0.80644     N
N      0.61074  0.58461  0.30644     N
Zn     0.62359      0.0     0.25    Zn
Zn     0.62359  0.62359     0.75    Zn
C      0.62701  0.78422  0.66893     C
C      0.62701  0.84279  0.16893     C
N      0.64053  0.72259  0.63977     N
N      0.64053  0.91794  0.13977     N
F      0.66667   0.0788  0.08333     F
F      0.66667  0.58786  0.58333     F
Zn     0.66667  0.70975  0.08333    Zn
N      0.66667  0.81737  0.08333     N
N      0.66667  0.84929  0.58333     N
Zn     0.66667  0.95692  0.58333    Zn
N       0.6928  0.74873   0.5269     N
N       0.6928  0.94408   0.0269     N
C      0.70632  0.82388  0.49774     C
C      0.70632  0.88245  0.99774     C
Zn     0.70975  0.04308  0.91667    Zn
Zn     0.70975  0.66667  0.41667    Zn
N      0.72259  0.08206  0.36023     N
N      0.72259  0.64053  0.86023     N
H       0.7354    0.195     0.19     H
H       0.7354   0.5404     0.69     H
H      0.73883  0.85567  0.42557     H
H      0.73883  0.88317  0.92557     H
H       0.7409   0.1765   0.7208     H
H       0.7409   0.5644   0.2208     H
F      0.74547      0.0     0.75     F
F      0.74547  0.74547     0.25     F
N      0.74873  0.05592   0.4731     N
N      0.74873   0.6928   0.9731     N
N      0.76343  0.87737  0.40177     N
N      0.76343  0.88607  0.90177     N
H      0.76893  0.84317  0.88747     H
H      0.76893  0.92577  0.38747     H
N       0.7806   0.2107   0.2351     N
N       0.7806   0.5699   0.7351     N
H       0.7835    0.189   0.2589     H
H       0.7835   0.5945   0.7589     H
C      0.78422  0.15721  0.33107     C
C      0.78422  0.62701  0.83107     C
N       0.7893   0.2194   0.7351     N
N       0.7893   0.5699   0.2351     N
H      0.79293  0.86167  0.35667     H
H      0.79293  0.93127  0.85667     H
H        0.805   0.2646     0.69     H
H        0.805   0.5404     0.19     H
H        0.811   0.2165   0.7589     H
H        0.811   0.5945   0.2589     H
N      0.81737  0.15071  0.91667     N
N      0.81737  0.66667  0.41667     N
H       0.8235   0.2591   0.2208     H
H       0.8235   0.5644   0.7208     H
C      0.82388  0.11755  0.50226     C
C      0.82388  0.70632  0.00226     C
C      0.84279  0.21578  0.83107     C
C      0.84279  0.62701  0.33107     C
H      0.84317  0.07423  0.11253     H
H      0.84317  0.76893  0.61253     H
N      0.84929  0.18263  0.41667     N
N      0.84929  0.66667  0.91667     N
H      0.85567  0.11683  0.57443     H
H      0.85567  0.73883  0.07443     H
H      0.86167  0.06873  0.64333     H
H      0.86167  0.79293  0.14333     H
H      0.87373  0.40207  0.47667     H
H      0.87373  0.47167  0.97667     H
N      0.87737  0.11393  0.59823     N
N      0.87737  0.76343  0.09823     N
C      0.88245  0.17612  0.00226     C
C      0.88245  0.70632  0.50226     C
H      0.88317  0.14433  0.07443     H
H      0.88317  0.73883  0.57443     H
N      0.88607  0.12263  0.09823     N
N      0.88607  0.76343  0.59823     N
H      0.89773  0.40757  0.94587     H
H      0.89773  0.49017  0.44587     H
N      0.90323  0.44727  0.43157     N
N      0.90323  0.45597  0.93157     N
N      0.91794  0.27741  0.86023     N
N      0.91794  0.64053  0.36023     N
F       0.9212  0.33333  0.58333     F
F       0.9212  0.58786  0.08333     F
H      0.92577  0.15683  0.61253     H
H      0.92577  0.76893  0.11253     H
H      0.92783  0.45017  0.40777     H
H      0.92783  0.47767  0.90777     H
H      0.93127  0.13833  0.14333     H
H      0.93127  0.79293  0.64333     H
N      0.94408  0.25127   0.9731     N
N      0.94408   0.6928   0.4731     N
Zn     0.95692  0.29025  0.41667    Zn
Zn     0.95692  0.66667  0.91667    Zn
C      0.96034  0.45089   0.3356     C
C      0.96034  0.50946   0.8356     C
N      0.97386  0.38926  0.30644     N
N      0.97386  0.58461  0.80644     N
