data_I
_chemical_name_common  '/home/zhangsd/repos/MofS-CGCNN/ML/data/TSD/clean_cifs/AWEZOS01_clean'
_cell_length_a 20.01400
_cell_length_b 37.95600
_cell_length_c 25.08500
_cell_angle_alpha 90.00000
_cell_angle_beta  109.38400
_cell_angle_gamma 90.00000
_space_group_name_H-M_alt      'P 1'


loop_
_space_group_symop_operation_xyz
  'x, y, z' 

loop_
_atom_site_label
_atom_site_fract_x
_atom_site_fract_y
_atom_site_fract_z
_atom_site_type_symbol
Cu         0.0  0.30805     0.75    Cu
Cu         0.0  0.69195     0.25    Cu
H       0.0028   0.2421   0.3477     H
H       0.0028   0.7579   0.8477     H
N      0.00524   0.2547   0.0477     N
N      0.00524   0.7453   0.5477     N
H       0.0056   0.4713   0.0583     H
H       0.0056   0.5287   0.5583     H
Cu     0.00632  0.32893   0.4323    Cu
Cu     0.00632  0.67107   0.9323    Cu
C       0.0076  0.12193   0.0064     C
C       0.0076  0.87807   0.5064     C
N       0.0091  0.08717   0.5096     N
N       0.0091  0.91283   0.0096     N
C       0.0114   0.4157  0.58068     C
C       0.0114   0.5843  0.08068     C
C       0.0126  0.18378  0.51122     C
C       0.0126  0.81622  0.01122     C
H       0.0128   0.0703   0.0122     H
H       0.0128   0.9297   0.5122     H
C      0.01485  0.40742  0.40934     C
C      0.01485  0.59258  0.90934     C
H       0.0167   0.2043    0.164     H
H       0.0167   0.7957    0.664     H
C      0.01769  0.29992  0.60934     C
C      0.01769  0.70008  0.10934     C
H       0.0214   0.2173   0.8875     H
H       0.0214   0.7827   0.3875     H
N       0.0219  0.22604  0.17431     N
N       0.0219  0.77396  0.67431     N
C       0.0222  0.44384  0.61874     C
C       0.0222  0.55616  0.11874     C
C       0.0259  0.26467  0.62465     C
C       0.0259  0.73533  0.12465     C
C        0.027  0.14928  0.52809     C
C        0.027  0.85072  0.02809     C
C       0.0273  0.44946  0.85052     C
C       0.0273  0.55054  0.35052     C
C       0.0274  0.24075   0.8987     C
C       0.0274  0.75925   0.3987     C
H        0.031   0.4033   0.9293     H
H        0.031   0.5967   0.4293     H
N      0.03335  0.37366  0.41133     N
N      0.03335  0.62634  0.91133     N
H       0.0371   0.2017   0.5349     H
H       0.0371   0.7983   0.0349     H
C      0.03814  0.19243  0.04056     C
C      0.03814  0.80757  0.54056     C
Cu     0.03862  0.37174  0.83194    Cu
Cu     0.03862  0.62826  0.33194    Cu
N      0.04084  0.28523  0.07201     N
N      0.04084  0.71477  0.57201     N
H       0.0412   0.0825   0.5413     H
H       0.0412   0.9175   0.0413     H
H       0.0421   0.0764   0.2381     H
H       0.0421   0.9236   0.7381     H
C       0.0426  0.45674   0.0574     C
C       0.0426  0.54326   0.5574     C
C       0.0433  0.42146    0.074     C
C       0.0433  0.57854    0.574     C
C       0.0441  0.31056  0.93148     C
C       0.0441  0.68944  0.43148     C
H       0.0465   0.0979   0.3655     H
H       0.0465   0.9021   0.8655     H
H         0.05    0.334   0.9429     H
H         0.05    0.666   0.4429     H
N      0.05001  0.42239  0.82769     N
N      0.05001  0.57761  0.32769     N
H       0.0509   0.2875   0.2192     H
H       0.0509   0.7125   0.7192     H
H       0.0517   0.1866   0.7335     H
H       0.0517   0.8134   0.2335     H
N      0.05261   0.3518  0.66905     N
N      0.05261   0.6482  0.16905     N
Cu     0.05307  0.47457  0.36771    Cu
Cu     0.05307  0.52543  0.86771    Cu
C      0.05314  0.22917  0.05824     C
C      0.05314  0.77083  0.55824     C
H       0.0532   0.3872   0.5332     H
H       0.0532   0.6128   0.0332     H
N      0.05345  0.48046  0.83807     N
N      0.05345  0.51954  0.33807     N
H       0.0541   0.0755   0.1825     H
H       0.0541   0.9245   0.6825     H
C        0.058  0.13004   0.0578     C
C        0.058  0.86996   0.5578     C
H       0.0592   0.2358   0.7878     H
H       0.0592   0.7642   0.2878     H
H       0.0604   0.1443   0.5631     H
H       0.0604   0.8557   0.0631     H
N      0.06059   0.4279  0.39329     N
N      0.06059   0.5721  0.89329     N
C       0.0618  0.40614  0.55804     C
C       0.0618  0.59386  0.05804     C
H       0.0647   0.4659   0.2569     H
H       0.0647   0.5341   0.7569     H
N        0.068   0.0813   0.2177     N
N        0.068   0.9187   0.7177     N
H       0.0681   0.2571   0.6511     H
H       0.0681   0.7429   0.1511     H
C       0.0703  0.23523   0.2269     C
C       0.0703  0.76477   0.7269     C
C      0.07051  0.32581  0.64166     C
C      0.07051  0.67419  0.14166     C
C       0.0734  0.16477   0.0747     C
C       0.0734  0.83523   0.5747     C
N       0.0763  0.09373   0.3985     N
N       0.0763  0.90627   0.8985     N
C       0.0777  0.27036   0.2435     C
C       0.0777  0.72964   0.7435     C
H       0.0782   0.1605   0.3744     H
H       0.0782   0.8395   0.8744     H
H       0.0819   0.1119   0.0815     H
H       0.0819   0.8881   0.5815     H
H       0.0825   0.0725   0.4114     H
H       0.0825   0.9275   0.9114     H
C       0.0857  0.46197  0.63209     C
C       0.0857  0.53803  0.13209     C
C       0.0887  0.20244  0.73808     C
C       0.0887  0.79756  0.23808     C
C       0.0901  0.25158   0.9389     C
C       0.0901  0.74842   0.4389     C
N      0.09168  0.43599  0.79842     N
N      0.09168  0.56401  0.29842     N
H       0.0921   0.4936   0.0281     H
H       0.0921   0.5064   0.5281     H
Cu     0.09299  0.25492  0.49668    Cu
Cu     0.09299  0.74508  0.99668    Cu
C      0.09305  0.47074  0.80547     C
C      0.09305  0.52926  0.30547     C
N      0.09328  0.30944  0.79996     N
N      0.09328  0.69056  0.29996     N
C      0.09334  0.23182  0.77072     C
C      0.09334  0.76818  0.27072     C
H        0.094   0.4809   0.6569     H
H        0.094   0.5191   0.1569     H
C       0.0948  0.47024   0.0397     C
C       0.0948  0.52976   0.5397     C
N      0.09498   0.3723  0.39766     N
N      0.09498   0.6277  0.89766     N
H       0.0962   0.1529   0.6709     H
H       0.0962   0.8471   0.1709     H
C       0.0977  0.28626   0.9556     C
C       0.0977  0.40078   0.0695     C
C       0.0977  0.59922   0.5695     C
C       0.0977  0.71374   0.4556     C
H       0.0982   0.3769   0.0778     H
H       0.0982   0.6231   0.5778     H
H       0.1069   0.1866   0.2524     H
H       0.1069   0.8134   0.7524     H
C       0.1071  0.47462  0.25441     C
C       0.1071  0.52538  0.75441     C
C       0.1072  0.15594  0.41124     C
C       0.1072  0.84406  0.91124     C
H       0.1078   0.1696   0.1093     H
H       0.1078   0.8304   0.6093     H
C      0.10813  0.27651  0.09612     C
C      0.10813  0.72349  0.59612     C
Cu     0.10894  0.40539  0.74641    Cu
Cu     0.10894  0.59461  0.24641    Cu
C      0.11014    0.405  0.38766     C
C      0.11014    0.595  0.88766     C
H       0.1105    0.039   0.6275     H
H       0.1105    0.961   0.1275     H
C       0.1107  0.21012   0.2632     C
C       0.1107  0.78988   0.7632     C
N      0.11407  0.33813  0.83571     N
N      0.11407  0.66187  0.33571     N
N      0.11429  0.36935  0.69759     N
N      0.11429  0.63065  0.19759     N
H       0.1145   0.3283   0.1692     H
H       0.1145   0.6717   0.6692     H
C       0.1146  0.12149   0.4315     C
C       0.1146  0.87851   0.9315     C
H       0.1162   0.0702   0.6647     H
H       0.1162   0.9298   0.1647     H
N      0.11861  0.24166  0.08903     N
N      0.11861  0.75834  0.58903     N
H       0.1237   0.4346    0.208     H
H       0.1237   0.5654    0.708     H
C       0.1247  0.28018  0.29598     C
C       0.1247  0.71982  0.79598     C
Cl     0.12511  0.31878  0.50801    Cl
Cl     0.12511  0.68122  0.00801    Cl
C       0.1254  0.42402   0.5711     C
C       0.1254  0.57598   0.0711     C
H       0.1263    0.106   0.3205     H
H       0.1263    0.894   0.8205     H
H       0.1275   0.0853    0.928     H
H       0.1275   0.9147    0.428     H
H       0.1293   0.3038   0.3062     H
H       0.1293   0.6962   0.8062     H
N       0.1315  0.16704   0.6767     N
N       0.1315  0.83296   0.1767     N
C       0.1331   0.0988   0.2418     C
C       0.1331   0.9012   0.7418     C
N       0.1335  0.05718   0.6445     N
N       0.1335  0.94282   0.1445     N
C       0.1337  0.49335  0.78027     C
C       0.1337  0.50665  0.28027     C
H       0.1364   0.2064   0.4313     H
H       0.1364   0.7936   0.9313     H
C       0.1367  0.45237   0.6093     C
C       0.1367  0.54763   0.1093     C
H       0.1371    0.125   0.8128     H
H       0.1371    0.875   0.3128     H
C       0.1382   0.1959  0.71192     C
C       0.1382   0.8041  0.21192     C
H       0.1392   0.2936   0.9832     H
H       0.1392   0.7064   0.4832     H
H       0.1407   0.2059   0.9512     H
H       0.1407   0.7941   0.4512     H
N      0.14117  0.32542  0.65066     N
N      0.14117  0.67458  0.15066     N
C       0.1425   0.1835  0.44541     C
C       0.1425   0.8165  0.94541     C
C       0.1426  0.45572   0.2253     C
C       0.1426  0.54428   0.7253     C
H        0.143   0.0552   0.9683     H
H        0.143   0.9448   0.4683     H
N       0.1456  0.22754   0.9618     N
N       0.1456  0.77246   0.4618     N
N       0.1479  0.07704   0.9614     N
N       0.1479  0.92296   0.4614     N
C      0.14846  0.25591  0.77879     C
C      0.14846  0.74409  0.27879     C
C      0.14942  0.28869  0.80986     C
C      0.14942  0.71131  0.30986     C
C       0.1509  0.45009   0.0388     C
C       0.1509  0.54991   0.5388     C
C       0.1512  0.41447   0.0532     C
C       0.1512  0.58553   0.5532     C
Cu      0.1524  0.33111  0.41289    Cu
Cu      0.1524  0.66889  0.91289    Cu
C       0.1551   0.1101   0.2987     C
C       0.1551   0.8899   0.7987     C
C       0.1563  0.32731  0.16084     C
C       0.1563  0.67269  0.66084     C
C       0.1571  0.21995  0.31608     C
C       0.1571  0.78005  0.81608     C
H       0.1587   0.0999   0.1727     H
H       0.1587   0.9001   0.6727     H
H       0.1627   0.1632   0.6606     H
H       0.1627   0.8368   0.1606     H
C       0.1628  0.11504   0.4849     C
C       0.1628  0.88496   0.9849     C
C      0.16488  0.25505  0.33357     C
C      0.16488  0.74495  0.83357     C
C       0.1652  0.30139  0.12465     C
C       0.1652  0.69861  0.62465     C
C      0.16621  0.35291  0.68635     C
C      0.16621  0.64709  0.18635     C
H       0.1667   0.3979   0.5225     H
H       0.1667   0.6021   0.0225     H
H        0.172    0.092   0.4978     H
H        0.172    0.908   0.9978     H
C       0.1734  0.10658   0.2105     C
C       0.1734  0.89342   0.7105     C
H       0.1737   0.1428   0.9582     H
H       0.1737   0.8572   0.4582     H
C       0.1742  0.41545  0.37584     C
C       0.1742  0.58455  0.87584     C
N       0.1751  0.41491   0.5464     N
N       0.1751  0.58509   0.0464     N
N       0.1758  0.12406   0.8051     N
H       0.1758   0.1768   0.8695     H
H       0.1758   0.8232   0.3695     H
N       0.1758  0.87594   0.3051     N
H       0.1773   0.3761   0.3233     H
H       0.1773   0.6239   0.8233     H
H       0.1792   0.4647   0.6192     H
H       0.1792   0.5353   0.1192     H
C      0.18159  0.33315  0.86568     C
C      0.18159  0.66685  0.36568     C
H       0.1821   0.1076   0.7838     H
H       0.1821   0.8924   0.2838     H
N      0.18248  0.23586   0.5417     N
N      0.18248  0.76414   0.0417     N
Cu     0.18311  0.29394  0.61228    Cu
Cu     0.18311  0.70606  0.11228    Cu
H       0.1835   0.2027   0.3403     H
H       0.1835   0.7973   0.8403     H
H       0.1846   0.2345   0.9864     H
H       0.1846   0.7655   0.4864     H
C      0.18682  0.17739  0.50043     C
C      0.18682  0.82261  0.00043     C
H        0.188      0.4   0.0516     H
H        0.188      0.6   0.5516     H
C       0.1889  0.09915   0.0046     C
C       0.1889  0.90085   0.5046     C
H       0.1938   0.4589   0.4251     H
H       0.1938   0.5411   0.9251     H
C       0.1945  0.21917   0.7216     C
C       0.1945  0.78083   0.2216     C
C       0.1968  0.13373    0.994     C
C       0.1968  0.86627    0.494     C
C       0.1971  0.14264  0.51901     C
C       0.1971  0.85736  0.01901     C
C       0.1979  0.48194   0.7773     C
C       0.1979  0.51806   0.2773     C
C       0.1988  0.06549   0.6393     C
C       0.1988  0.93451   0.1393     C
C       0.1994  0.24888  0.75408     C
C       0.1994  0.75112  0.25408     C
C       0.2015  0.39599   0.3415     C
C       0.2015  0.60401   0.8415     C
H       0.2019   0.0255   0.5873     H
H       0.2019   0.9745   0.0873     H
H       0.2025   0.3689   0.2087     H
H       0.2025   0.6311   0.7087     H
H       0.2028   0.4867   0.0135     H
H       0.2028   0.5133   0.5135     H
N       0.2047   0.4648   0.0228     N
N       0.2047   0.5352   0.5228     N
Cu     0.20499  0.21825  0.11885    Cu
Cu     0.20499  0.78175  0.61885    Cu
C       0.2054  0.46775   0.2215     C
C       0.2054  0.53225   0.7215     C
N      0.20605  0.30241  0.85092     N
N      0.20605  0.69759  0.35092     N
H       0.2063   0.4016   0.8655     H
H       0.2063   0.5984   0.3655     H
C       0.2093   0.3517   0.1845     C
C       0.2093   0.6483   0.6845     C
C       0.2115  0.44517   0.4021     C
C       0.2115  0.55483   0.9021     C
H       0.2144   0.4263   0.5549     H
H       0.2144   0.5737   0.0549     H
C      0.21661    0.206  0.54046     C
C      0.21661    0.794  0.04046     C
H       0.2171   0.4609   0.7948     H
H       0.2171   0.5391   0.2948     H
C       0.2182  0.17554    0.862     C
C       0.2182  0.82446    0.362     C
H       0.2185   0.1077     0.69     H
H       0.2185   0.8923     0.19     H
C      0.21907  0.26534  0.38686     C
C      0.21907  0.73466  0.88686     C
H       0.2193    0.044   0.8101     H
H       0.2193    0.956   0.3101     H
C       0.2196  0.12734   0.3225     C
C       0.2196  0.87266   0.8225     C
H       0.2209   0.0622   0.0653     H
H       0.2209   0.9378   0.5653     H
N      0.22108  0.29561  0.41617     N
N      0.22108  0.70439  0.91617     N
H       0.2227    0.007   0.2518     H
H       0.2227    0.993   0.7518     H
N       0.2238   0.2543  0.58884     N
N       0.2238   0.7457  0.08884     N
H        0.224   0.4288   0.1763     H
H        0.224   0.5712   0.6763     H
C      0.22505  0.35692  0.91061     C
C      0.22505  0.64308  0.41061     C
C       0.2253  0.08588   0.0575     C
C       0.2253  0.91412   0.5575     C
C       0.2261  0.04544   0.6052     C
C       0.2261  0.95456   0.1052     C
H       0.2278   0.1379   0.5552     H
H       0.2278   0.8621   0.0552     H
C        0.228  0.14912   0.8271     C
C        0.228  0.85088   0.3271     C
C       0.2294  0.30016  0.11454     C
C       0.2294  0.69984  0.61454     C
H       0.2296   0.2146   0.7058     H
H       0.2296   0.7854   0.2058     H
C       0.2314  0.39219   0.9008     C
C       0.2314  0.60781   0.4008     C
C       0.2338    0.499    0.249     C
C       0.2338    0.501    0.749     C
H       0.2345   0.1342   0.3603     H
H       0.2345   0.8658   0.8603     H
C       0.2358  0.09445   0.6663     C
C       0.2358  0.90555   0.1663     C
H       0.2363   0.3702   0.7892     H
H       0.2363   0.6298   0.2892     H
C       0.2367  0.12434   0.2336     C
C       0.2367  0.87566   0.7336     C
H        0.237   0.2826   0.0914     H
H        0.237   0.7174   0.5914     H
H       0.2372   0.2643   0.7595     H
H       0.2372   0.7357   0.2595     H
C       0.2389  0.15567  0.03604     C
C       0.2389  0.84433  0.53604     C
C      0.23921  0.36591  0.71054     C
C      0.23921  0.63409  0.21054     C
H         0.24   0.4521   0.0223     H
H         0.24   0.5479   0.5223     H
N       0.2413  0.44838   0.1921     N
N       0.2413  0.55162   0.6921     N
H       0.2429   0.1793    0.028     H
H       0.2429   0.8207    0.528     H
H       0.2571   0.3207    0.972     H
H       0.2571   0.6793    0.472     H
N       0.2587  0.05162   0.8079     N
N       0.2587  0.94838   0.3079     N
H         0.26   0.0479   0.9777     H
H         0.26   0.9521   0.4777     H
C      0.26079  0.13409  0.28946     C
C      0.26079  0.86591  0.78946     C
C       0.2611  0.34433  0.96396     C
C       0.2611  0.65567  0.46396     C
H       0.2628   0.2357   0.2405     H
H       0.2628   0.7643   0.7405     H
H        0.263   0.2174   0.9086     H
H        0.263   0.7826   0.4086     H
C       0.2633  0.37566   0.7664     C
C       0.2633  0.62434   0.2664     C
H       0.2637   0.1298   0.2108     H
H       0.2637   0.8702   0.7108     H
C       0.2642  0.40555   0.3337     C
C       0.2642  0.59445   0.8337     C
H       0.2655   0.3658   0.6397     H
H       0.2655   0.6342   0.1397     H
C       0.2662    0.001    0.751     C
C       0.2662    0.999    0.251     C
C       0.2686  0.10781   0.0992     C
C       0.2686  0.89219   0.5992     C
H       0.2704   0.2854   0.2942     H
H       0.2704   0.7146   0.7942     H
C       0.2706  0.19984  0.88546     C
C       0.2706  0.80016  0.38546     C
C        0.272  0.35088   0.1729     C
C        0.272  0.64912   0.6729     C
H       0.2722   0.3621   0.4448     H
H       0.2722   0.6379   0.9448     H
C       0.2739  0.45456   0.3948     C
C       0.2739  0.54544   0.8948     C
C       0.2747  0.41412   0.9425     C
C       0.2747  0.58588   0.4425     C
C      0.27495  0.14308  0.08939     C
C      0.27495  0.85692  0.58939     C
H        0.276   0.0712   0.8237     H
H        0.276   0.9288   0.3237     H
N       0.2762   0.2457  0.41116     N
N       0.2762   0.7543  0.91116     N
H       0.2773    0.493   0.7482     H
H       0.2773    0.507   0.2482     H
N      0.27892  0.20439  0.58383     N
N      0.27892  0.79561  0.08383     N
H       0.2791   0.4378   0.9347     H
H       0.2791   0.5622   0.4347     H
C       0.2804  0.37266   0.6775     C
C       0.2804  0.62734   0.1775     C
H       0.2807    0.456   0.1899     H
H       0.2807    0.544   0.6899     H
C      0.28093  0.23466  0.61314     C
C      0.28093  0.76534  0.11314     C
H       0.2815   0.3923     0.31     H
H       0.2815   0.6077     0.81     H
C       0.2818  0.32446    0.138     C
C       0.2818  0.67554    0.638     C
H       0.2829   0.0391   0.2052     H
H       0.2829   0.9609   0.7052     H
C      0.28339    0.294  0.45954     C
C      0.28339    0.706  0.95954     C
H       0.2856   0.0737   0.4451     H
H       0.2856   0.9263   0.9451     H
C       0.2885  0.05483   0.5979     C
C       0.2885  0.94517   0.0979     C
C       0.2907   0.1483   0.8155     C
C       0.2907   0.8517   0.3155     C
H       0.2937   0.0984   0.1345     H
H       0.2937   0.9016   0.6345     H
N      0.29395  0.19759  0.14908     N
N      0.29395  0.80241  0.64908     N
C       0.2946  0.03225   0.7785     C
C       0.2946  0.96775   0.2785     C
Cu     0.29501  0.28175  0.88115    Cu
Cu     0.29501  0.71825  0.38115    Cu
N       0.2953   0.0352   0.9772     N
N       0.2953   0.9648   0.4772     N
H       0.2972   0.0133   0.9865     H
H       0.2972   0.9867   0.4865     H
H       0.2975   0.1311   0.7913     H
H       0.2975   0.8689   0.2913     H
H       0.2981   0.4745   0.4127     H
H       0.2981   0.5255   0.9127     H
C       0.2985  0.10401   0.6585     C
C       0.2985  0.89599   0.1585     C
C       0.3006  0.25112  0.24592     C
C       0.3006  0.74888  0.74592     C
C       0.3012  0.43451   0.3607     C
C       0.3012  0.56549   0.8607     C
C       0.3021  0.01806   0.2227     C
C       0.3021  0.98194   0.7227     C
C       0.3029  0.35736  0.48099     C
C       0.3029  0.64264  0.98099     C
C       0.3032  0.36627    0.006     C
C       0.3032  0.63373    0.506     C
C       0.3055  0.28083   0.2784     C
C       0.3055  0.71917   0.7784     C
H       0.3062   0.0411   0.5749     H
H       0.3062   0.9589   0.0749     H
C       0.3111  0.40085   0.9954     C
C       0.3111  0.59915   0.4954     C
H        0.312      0.1   0.9484     H
H        0.312      0.9   0.4484     H
C      0.31318  0.32261  0.49957     C
C      0.31318  0.67739  0.99957     C
H       0.3154   0.2655   0.0136     H
H       0.3154   0.7345   0.5136     H
H       0.3165   0.2973   0.6597     H
H       0.3165   0.7027   0.1597     H
Cu     0.31689  0.20606  0.38772    Cu
Cu     0.31689  0.79394  0.88772    Cu
N      0.31752  0.26414   0.4583     N
N      0.31752  0.73586   0.9583     N
H       0.3179   0.3924   0.2162     H
H       0.3179   0.6076   0.7162     H
C      0.31841  0.16685  0.13432     C
C      0.31841  0.83315  0.63432     C
H       0.3208   0.0353   0.3808     H
H       0.3208   0.9647   0.8808     H
H       0.3227   0.1239   0.6767     H
H       0.3227   0.8761   0.1767     H
H       0.3242   0.3232   0.1305     H
N       0.3242  0.37594   0.1949     N
N       0.3242  0.62406   0.6949     N
H       0.3242   0.6768   0.6305     H
N       0.3249  0.08509   0.4536     N
N       0.3249  0.91491   0.9536     N
C       0.3258  0.08455  0.62416     C
C       0.3258  0.91545  0.12416     C
H       0.3263   0.3572   0.0418     H
H       0.3263   0.6428   0.5418     H
C       0.3266  0.39342   0.7895     C
C       0.3266  0.60658   0.2895     C
H        0.328    0.408   0.5022     H
H        0.328    0.592   0.0022     H
H       0.3333   0.1021   0.4775     H
H       0.3333   0.8979   0.9775     H
C      0.33379  0.14709  0.31365     C
C      0.33379  0.85291  0.81365     C
C       0.3348  0.19861  0.87535     C
C       0.3348  0.80139  0.37535     C
C      0.33512  0.24495  0.66643     C
C      0.33512  0.75505  0.16643     C
C       0.3372  0.38496   0.5151     C
C       0.3372  0.61504   0.0151     C
H       0.3373   0.3368   0.3394     H
H       0.3373   0.6632   0.8394     H
H       0.3413   0.4001   0.8273     H
H       0.3413   0.5999   0.3273     H
C       0.3429  0.28005  0.68392     C
C       0.3429  0.71995  0.18392     C
C       0.3437  0.17269  0.83916     C
C       0.3437  0.82731  0.33916     C
C       0.3449   0.3899   0.7013     C
C       0.3449   0.6101   0.2013     C
Cu      0.3476  0.16889  0.58711    Cu
Cu      0.3476  0.83111  0.08711    Cu
C       0.3488  0.08553   0.9468     C
C       0.3488  0.91447   0.4468     C
C       0.3491  0.04991   0.9612     C
C       0.3491  0.95009   0.4612     C
C      0.35058  0.21131  0.19014     C
C      0.35058  0.78869  0.69014     C
C      0.35154  0.24409  0.22121     C
C      0.35154  0.75591  0.72121     C
N       0.3521  0.42296   0.0386     N
N       0.3521  0.57704   0.5386     N
N       0.3544  0.27246   0.0382     N
N       0.3544  0.72754   0.5382     N
H        0.357   0.4448   0.0317     H
H        0.357   0.5552   0.5317     H
C       0.3574  0.04428   0.7747     C
C       0.3574  0.95572   0.2747     C
C       0.3575   0.3165  0.55459     C
C       0.3575   0.6835  0.05459     C
N      0.35883  0.17458  0.34934     N
N      0.35883  0.82542  0.84934     N
H       0.3593   0.2941   0.0488     H
H       0.3593   0.7059   0.5488     H
H       0.3608   0.2064   0.0168     H
H       0.3608   0.7936   0.5168     H
C       0.3618   0.3041  0.28808     C
C       0.3618   0.6959  0.78808     C
H       0.3629    0.375   0.1872     H
H       0.3629    0.625   0.6872     H
C       0.3633  0.04763   0.3907     C
C       0.3633  0.95237   0.8907     C
H       0.3636   0.2936   0.5687     H
H       0.3636   0.7064   0.0687     H
C       0.3663  0.00665  0.21973     C
C       0.3663  0.99335  0.71973     C
N       0.3665  0.44282   0.3555     N
N       0.3665  0.55718   0.8555     N
C       0.3669   0.4012   0.7582     C
C       0.3669   0.5988   0.2582     C
N       0.3685  0.33296   0.3233     N
N       0.3685  0.66704   0.8233     N
H       0.3707   0.1962   0.6938     H
H       0.3707   0.8038   0.1938     H
H       0.3725   0.4147    0.072     H
H       0.3725   0.5853    0.572     H
H       0.3737    0.394   0.6795     H
H       0.3737    0.606   0.1795     H
C       0.3746  0.07598   0.4289     C
C       0.3746  0.92402   0.9289     C
Cl     0.37489  0.18122  0.49199    Cl
Cl     0.37489  0.81878  0.99199    Cl
C       0.3753  0.21982  0.70402     C
C       0.3753  0.78018  0.20402     C
H       0.3763   0.0654    0.792     H
H       0.3763   0.9346    0.292     H
N      0.38139  0.25834  0.91097     N
N      0.38139  0.74166  0.41097     N
H       0.3838   0.4298   0.3353     H
H       0.3838   0.5702   0.8353     H
C       0.3854  0.37851   0.5685     C
C       0.3854  0.62149   0.0685     C
H       0.3855   0.1717   0.8308     H
H       0.3855   0.8283   0.3308     H
N      0.38571  0.13065  0.30241     N
N      0.38571  0.86935  0.80241     N
N      0.38593  0.16187  0.16429     N
N      0.38593  0.83813  0.66429     N
C       0.3893  0.28988   0.7368     C
C       0.3893  0.71012   0.2368     C
H       0.3895    0.461   0.3725     H
H       0.3895    0.539   0.8725     H
C      0.38986    0.095  0.61234     C
C      0.38986    0.905  0.11234     C
Cu     0.39106  0.09461  0.25359    Cu
Cu     0.39106  0.90539  0.75359    Cu
C      0.39187  0.22349  0.90388     C
C      0.39187  0.77651  0.40388     C
H       0.3922   0.3304   0.8907     H
H       0.3922   0.6696   0.3907     H
C       0.3928  0.34406  0.58876     C
C       0.3928  0.65594  0.08876     C
C       0.3929  0.02538  0.74559     C
C       0.3929  0.97462  0.24559     C
H       0.3931   0.3134   0.7476     H
H       0.3931   0.6866   0.2476     H
H       0.4018   0.1231   0.9222     H
H       0.4018   0.8769   0.4222     H
C       0.4023  0.09922   0.9305     C
C       0.4023  0.21374   0.0444     C
C       0.4023  0.78626   0.5444     C
C       0.4023  0.90078   0.4305     C
H       0.4038   0.3471   0.3291     H
H       0.4038   0.6529   0.8291     H
N      0.40502   0.1277  0.60234     N
N      0.40502   0.8723  0.10234     N
C       0.4052  0.02976   0.9603     C
C       0.4052  0.97024   0.4603     C
H        0.406   0.0191   0.3431     H
H        0.406   0.9809   0.8431     H
C      0.40666  0.26818  0.22928     C
C      0.40666  0.73182  0.72928     C
N      0.40672  0.19056  0.20004     N
N      0.40672  0.80944  0.70004     N
C      0.40695  0.02926  0.19453     C
C      0.40695  0.97074  0.69453     C
Cu     0.40701  0.24508  0.50332    Cu
Cu     0.40701  0.75492  0.00332    Cu
H       0.4079   0.0064   0.9719     H
H       0.4079   0.9936   0.4719     H
N      0.40832  0.06401  0.20158     N
N      0.40832  0.93599  0.70158     N
C       0.4099  0.24842   0.0611     C
C       0.4099  0.75158   0.5611     C
C       0.4113  0.29756  0.26192     C
C       0.4113  0.70244  0.76192     C
C       0.4143  0.03803  0.36791     C
C       0.4143  0.96197  0.86791     C
H       0.4175   0.4275   0.5886     H
H       0.4175   0.5725   0.0886     H
H       0.4181   0.3881   0.9185     H
H       0.4181   0.6119   0.4185     H
H       0.4218   0.3395   0.6256     H
H       0.4218   0.6605   0.1256     H
C       0.4223  0.22964   0.7565     C
C       0.4223  0.77036   0.2565     C
N       0.4237  0.40627   0.6015     N
N       0.4237  0.59373   0.1015     N
C       0.4266  0.33523   0.9253     C
C       0.4266  0.66477   0.4253     C
C      0.42949  0.17419  0.35834     C
C      0.42949  0.82581  0.85834     C
C       0.4297  0.26477   0.7731     C
C       0.4297  0.73523   0.2731     C
H       0.4319   0.2429   0.3489     H
H       0.4319   0.7571   0.8489     H
N        0.432   0.4187   0.7823     N
N        0.432   0.5813   0.2823     N
H       0.4353   0.0341   0.7431     H
H       0.4353   0.9659   0.2431     H
C       0.4382  0.09386  0.44196     C
C       0.4382  0.90614  0.94196     C
N      0.43941   0.0721  0.60671     N
N      0.43941   0.9279  0.10671     N
H       0.4396   0.3557   0.4369     H
H       0.4396   0.6443   0.9369     H
H       0.4408   0.2642   0.2122     H
H       0.4408   0.7358   0.7122     H
C        0.442  0.36996   0.9422     C
C        0.442  0.63004   0.4422     C
H       0.4459   0.4245   0.8175     H
H       0.4459   0.5755   0.3175     H
N      0.44655  0.01954  0.16193     N
N      0.44655  0.98046  0.66193     N
H       0.4468   0.1128   0.4668     H
H       0.4468   0.8872   0.9668     H
C      0.44686  0.27083  0.94176     C
C      0.44686  0.72917  0.44176     C
Cu     0.44693  0.02543  0.63229    Cu
Cu     0.44693  0.97457  0.13229    Cu
N      0.44739   0.1482  0.33095     N
N      0.44739   0.8518  0.83095     N
H       0.4483   0.3134   0.2665     H
H       0.4483   0.6866   0.7665     H
H       0.4491   0.2125   0.7808     H
H       0.4491   0.7875   0.2808     H
N      0.44999  0.07761  0.17231     N
N      0.44999  0.92239  0.67231     N
H         0.45    0.166   0.0571     H
H         0.45    0.834   0.5571     H
H       0.4535   0.4021   0.6345     H
H       0.4535   0.5979   0.1345     H
C       0.4559  0.18944  0.06852     C
C       0.4559  0.81056  0.56852     C
C       0.4567  0.07854    0.926     C
C       0.4567  0.92146    0.426     C
C       0.4574  0.04326   0.9426     C
C       0.4574  0.95674   0.4426     C
H       0.4579   0.4236   0.7619     H
H       0.4579   0.5764   0.2619     H
H       0.4588   0.4175   0.4587     H
H       0.4588   0.5825   0.9587     H
N      0.45916  0.21477  0.92799     N
N      0.45916  0.78523  0.42799     N
Cu     0.46138  0.12826  0.16806    Cu
Cu     0.46138  0.87174  0.66806    Cu
C      0.46186  0.30757  0.95944     C
C      0.46186  0.69243  0.45944     C
H       0.4629   0.2983   0.4651     H
H       0.4629   0.7017   0.9651     H
N      0.46665  0.12634  0.58867     N
N      0.46665  0.87366  0.08867     N
H        0.469   0.0967   0.0707     H
H        0.469   0.9033   0.5707     H
C       0.4726  0.25925   0.1013     C
C       0.4726  0.74075   0.6013     C
C       0.4727  0.05054  0.14948     C
C       0.4727  0.94946  0.64948     C
C        0.473  0.35072  0.47191     C
C        0.473  0.64928  0.97191     C
C       0.4741  0.23533  0.37535     C
C       0.4741  0.76467  0.87535     C
C       0.4778  0.05616  0.38126     C
C       0.4778  0.94384  0.88126     C
N       0.4781  0.27396  0.82569     N
N       0.4781  0.72604  0.32569     N
H       0.4786   0.2827   0.1125     H
H       0.4786   0.7173   0.6125     H
C      0.48231  0.20008  0.39066     C
C      0.48231  0.79992  0.89066     C
H       0.4833   0.2957    0.836     H
H       0.4833   0.7043    0.336     H
C      0.48515  0.09258  0.59066     C
C      0.48515  0.90742  0.09066     C
H       0.4872   0.4297   0.9878     H
H       0.4872   0.5703   0.4878     H
C       0.4874  0.31622  0.48878     C
C       0.4874  0.68378  0.98878     C
C       0.4886   0.0843  0.41932     C
C       0.4886   0.9157  0.91932     C
N       0.4909  0.41283   0.4904     N
N       0.4909  0.58717   0.9904     N
C       0.4924  0.37807   0.9936     C
C       0.4924  0.62193   0.4936     C
Cu     0.49368  0.17107   0.5677    Cu
Cu     0.49368  0.82893   0.0677    Cu
H       0.4944   0.0287   0.9417     H
H       0.4944   0.9713   0.4417     H
N      0.49476   0.2453   0.9523     N
N      0.49476   0.7547   0.4523     N
H       0.4972   0.2579   0.6523     H
H       0.4972   0.7421   0.1523     H
Cu         0.5  0.19195     0.25    Cu
Cu         0.5  0.80805     0.75    Cu
H       0.5028   0.2579   0.8477     H
H       0.5028   0.7421   0.3477     H
N      0.50524   0.2453   0.5477     N
N      0.50524   0.7547   0.0477     N
H       0.5056   0.0287   0.5583     H
H       0.5056   0.9713   0.0583     H
Cu     0.50632  0.17107   0.9323    Cu
Cu     0.50632  0.82893   0.4323    Cu
C       0.5076  0.37807   0.5064     C
C       0.5076  0.62193   0.0064     C
N       0.5091  0.41283   0.0096     N
N       0.5091  0.58717   0.5096     N
C       0.5114   0.0843  0.08068     C
C       0.5114   0.9157  0.58068     C
C       0.5126  0.31622  0.01122     C
C       0.5126  0.68378  0.51122     C
H       0.5128   0.4297   0.5122     H
H       0.5128   0.5703   0.0122     H
C      0.51485  0.09258  0.90934     C
C      0.51485  0.90742  0.40934     C
H       0.5167   0.2957    0.664     H
H       0.5167   0.7043    0.164     H
C      0.51769  0.20008  0.10934     C
C      0.51769  0.79992  0.60934     C
H       0.5214   0.2827   0.3875     H
H       0.5214   0.7173   0.8875     H
N       0.5219  0.27396  0.67431     N
N       0.5219  0.72604  0.17431     N
C       0.5222  0.05616  0.11874     C
C       0.5222  0.94384  0.61874     C
C       0.5259  0.23533  0.12465     C
C       0.5259  0.76467  0.62465     C
C        0.527  0.35072  0.02809     C
C        0.527  0.64928  0.52809     C
C       0.5273  0.05054  0.35052     C
C       0.5273  0.94946  0.85052     C
C       0.5274  0.25925   0.3987     C
C       0.5274  0.74075   0.8987     C
H        0.531   0.0967   0.4293     H
H        0.531   0.9033   0.9293     H
N      0.53335  0.12634  0.91133     N
N      0.53335  0.87366  0.41133     N
H       0.5371   0.2983   0.0349     H
H       0.5371   0.7017   0.5349     H
C      0.53814  0.30757  0.54056     C
C      0.53814  0.69243  0.04056     C
Cu     0.53862  0.12826  0.33194    Cu
Cu     0.53862  0.87174  0.83194    Cu
N      0.54084  0.21477  0.57201     N
N      0.54084  0.78523  0.07201     N
H       0.5412   0.4175   0.0413     H
H       0.5412   0.5825   0.5413     H
H       0.5421   0.4236   0.7381     H
H       0.5421   0.5764   0.2381     H
C       0.5426  0.04326   0.5574     C
C       0.5426  0.95674   0.0574     C
C       0.5433  0.07854    0.574     C
C       0.5433  0.92146    0.074     C
C       0.5441  0.18944  0.43148     C
C       0.5441  0.81056  0.93148     C
H       0.5465   0.4021   0.8655     H
H       0.5465   0.5979   0.3655     H
H         0.55    0.166   0.4429     H
H         0.55    0.834   0.9429     H
N      0.55001  0.07761  0.32769     N
N      0.55001  0.92239  0.82769     N
H       0.5509   0.2125   0.7192     H
H       0.5509   0.7875   0.2192     H
H       0.5517   0.3134   0.2335     H
H       0.5517   0.6866   0.7335     H
N      0.55261   0.1482  0.16905     N
N      0.55261   0.8518  0.66905     N
Cu     0.55307  0.02543  0.86771    Cu
Cu     0.55307  0.97457  0.36771    Cu
C      0.55314  0.27083  0.55824     C
C      0.55314  0.72917  0.05824     C
H       0.5532   0.1128   0.0332     H
H       0.5532   0.8872   0.5332     H
N      0.55345  0.01954  0.33807     N
N      0.55345  0.98046  0.83807     N
H       0.5541   0.4245   0.6825     H
H       0.5541   0.5755   0.1825     H
C        0.558  0.36996   0.5578     C
C        0.558  0.63004   0.0578     C
H       0.5592   0.2642   0.2878     H
H       0.5592   0.7358   0.7878     H
H       0.5604   0.3557   0.0631     H
H       0.5604   0.6443   0.5631     H
N      0.56059   0.0721  0.89329     N
N      0.56059   0.9279  0.39329     N
C       0.5618  0.09386  0.05804     C
C       0.5618  0.90614  0.55804     C
H       0.5647   0.0341   0.7569     H
H       0.5647   0.9659   0.2569     H
N        0.568   0.4187   0.7177     N
N        0.568   0.5813   0.2177     N
H       0.5681   0.2429   0.1511     H
H       0.5681   0.7571   0.6511     H
C       0.5703  0.26477   0.7269     C
C       0.5703  0.73523   0.2269     C
C      0.57051  0.17419  0.14166     C
C      0.57051  0.82581  0.64166     C
C       0.5734  0.33523   0.5747     C
C       0.5734  0.66477   0.0747     C
N       0.5763  0.40627   0.8985     N
N       0.5763  0.59373   0.3985     N
C       0.5777  0.22964   0.7435     C
C       0.5777  0.77036   0.2435     C
H       0.5782   0.3395   0.8744     H
H       0.5782   0.6605   0.3744     H
H       0.5819   0.3881   0.5815     H
H       0.5819   0.6119   0.0815     H
H       0.5825   0.4275   0.9114     H
H       0.5825   0.5725   0.4114     H
C       0.5857  0.03803  0.13209     C
C       0.5857  0.96197  0.63209     C
C       0.5887  0.29756  0.23808     C
C       0.5887  0.70244  0.73808     C
C       0.5901  0.24842   0.4389     C
C       0.5901  0.75158   0.9389     C
N      0.59168  0.06401  0.29842     N
N      0.59168  0.93599  0.79842     N
H       0.5921   0.0064   0.5281     H
H       0.5921   0.9936   0.0281     H
Cu     0.59299  0.24508  0.99668    Cu
Cu     0.59299  0.75492  0.49668    Cu
C      0.59305  0.02926  0.30547     C
C      0.59305  0.97074  0.80547     C
N      0.59328  0.19056  0.29996     N
N      0.59328  0.80944  0.79996     N
C      0.59334  0.26818  0.27072     C
C      0.59334  0.73182  0.77072     C
H        0.594   0.0191   0.1569     H
H        0.594   0.9809   0.6569     H
C       0.5948  0.02976   0.5397     C
C       0.5948  0.97024   0.0397     C
N      0.59498   0.1277  0.89766     N
N      0.59498   0.8723  0.39766     N
H       0.5962   0.3471   0.1709     H
H       0.5962   0.6529   0.6709     H
C       0.5977  0.09922   0.5695     C
C       0.5977  0.21374   0.4556     C
C       0.5977  0.78626   0.9556     C
C       0.5977  0.90078   0.0695     C
H       0.5982   0.1231   0.5778     H
H       0.5982   0.8769   0.0778     H
H       0.6069   0.3134   0.7524     H
H       0.6069   0.6866   0.2524     H
C       0.6071  0.02538  0.75441     C
C       0.6071  0.97462  0.25441     C
C       0.6072  0.34406  0.91124     C
C       0.6072  0.65594  0.41124     C
H       0.6078   0.3304   0.6093     H
H       0.6078   0.6696   0.1093     H
C      0.60813  0.22349  0.59612     C
C      0.60813  0.77651  0.09612     C
Cu     0.60894  0.09461  0.24641    Cu
Cu     0.60894  0.90539  0.74641    Cu
C      0.61014    0.095  0.88766     C
C      0.61014    0.905  0.38766     C
H       0.6105    0.461   0.1275     H
H       0.6105    0.539   0.6275     H
C       0.6107  0.28988   0.7632     C
C       0.6107  0.71012   0.2632     C
N      0.61407  0.16187  0.33571     N
N      0.61407  0.83813  0.83571     N
N      0.61429  0.13065  0.19759     N
N      0.61429  0.86935  0.69759     N
H       0.6145   0.1717   0.6692     H
H       0.6145   0.8283   0.1692     H
C       0.6146  0.37851   0.9315     C
C       0.6146  0.62149   0.4315     C
H       0.6162   0.4298   0.1647     H
H       0.6162   0.5702   0.6647     H
N      0.61861  0.25834  0.58903     N
N      0.61861  0.74166  0.08903     N
H       0.6237   0.0654    0.708     H
H       0.6237   0.9346    0.208     H
C       0.6247  0.21982  0.79598     C
C       0.6247  0.78018  0.29598     C
Cl     0.62511  0.18122  0.00801    Cl
Cl     0.62511  0.81878  0.50801    Cl
C       0.6254  0.07598   0.0711     C
C       0.6254  0.92402   0.5711     C
H       0.6263    0.394   0.8205     H
H       0.6263    0.606   0.3205     H
H       0.6275   0.4147    0.428     H
H       0.6275   0.5853    0.928     H
H       0.6293   0.1962   0.8062     H
H       0.6293   0.8038   0.3062     H
N       0.6315  0.33296   0.1767     N
N       0.6315  0.66704   0.6767     N
C       0.6331   0.4012   0.7418     C
C       0.6331   0.5988   0.2418     C
N       0.6335  0.44282   0.1445     N
N       0.6335  0.55718   0.6445     N
C       0.6337  0.00665  0.28027     C
C       0.6337  0.99335  0.78027     C
H       0.6364   0.2936   0.9313     H
H       0.6364   0.7064   0.4313     H
C       0.6367  0.04763   0.1093     C
C       0.6367  0.95237   0.6093     C
H       0.6371    0.375   0.3128     H
H       0.6371    0.625   0.8128     H
C       0.6382   0.3041  0.21192     C
C       0.6382   0.6959  0.71192     C
H       0.6392   0.2064   0.4832     H
H       0.6392   0.7936   0.9832     H
H       0.6407   0.2941   0.4512     H
H       0.6407   0.7059   0.9512     H
N      0.64117  0.17458  0.15066     N
N      0.64117  0.82542  0.65066     N
C       0.6425   0.3165  0.94541     C
C       0.6425   0.6835  0.44541     C
C       0.6426  0.04428   0.7253     C
C       0.6426  0.95572   0.2253     C
H        0.643   0.4448   0.4683     H
H        0.643   0.5552   0.9683     H
N       0.6456  0.27246   0.4618     N
N       0.6456  0.72754   0.9618     N
N       0.6479  0.42296   0.4614     N
N       0.6479  0.57704   0.9614     N
C      0.64846  0.24409  0.27879     C
C      0.64846  0.75591  0.77879     C
C      0.64942  0.21131  0.30986     C
C      0.64942  0.78869  0.80986     C
C       0.6509  0.04991   0.5388     C
C       0.6509  0.95009   0.0388     C
C       0.6512  0.08553   0.5532     C
C       0.6512  0.91447   0.0532     C
Cu      0.6524  0.16889  0.91289    Cu
Cu      0.6524  0.83111  0.41289    Cu
C       0.6551   0.3899   0.7987     C
C       0.6551   0.6101   0.2987     C
C       0.6563  0.17269  0.66084     C
C       0.6563  0.82731  0.16084     C
C       0.6571  0.28005  0.81608     C
C       0.6571  0.71995  0.31608     C
H       0.6587   0.4001   0.6727     H
H       0.6587   0.5999   0.1727     H
H       0.6627   0.3368   0.1606     H
H       0.6627   0.6632   0.6606     H
C       0.6628  0.38496   0.9849     C
C       0.6628  0.61504   0.4849     C
C      0.66488  0.24495  0.83357     C
C      0.66488  0.75505  0.33357     C
C       0.6652  0.19861  0.62465     C
C       0.6652  0.80139  0.12465     C
C      0.66621  0.14709  0.18635     C
C      0.66621  0.85291  0.68635     C
H       0.6667   0.1021   0.0225     H
H       0.6667   0.8979   0.5225     H
H        0.672    0.408   0.9978     H
H        0.672    0.592   0.4978     H
C       0.6734  0.39342   0.7105     C
C       0.6734  0.60658   0.2105     C
H       0.6737   0.3572   0.4582     H
H       0.6737   0.6428   0.9582     H
C       0.6742  0.08455  0.87584     C
C       0.6742  0.91545  0.37584     C
N       0.6751  0.08509   0.0464     N
N       0.6751  0.91491   0.5464     N
H       0.6758   0.3232   0.3695     H
N       0.6758  0.37594   0.3051     N
N       0.6758  0.62406   0.8051     N
H       0.6758   0.6768   0.8695     H
H       0.6773   0.1239   0.8233     H
H       0.6773   0.8761   0.3233     H
H       0.6792   0.0353   0.1192     H
H       0.6792   0.9647   0.6192     H
C      0.68159  0.16685  0.36568     C
C      0.68159  0.83315  0.86568     C
H       0.6821   0.3924   0.2838     H
H       0.6821   0.6076   0.7838     H
N      0.68248  0.26414   0.0417     N
N      0.68248  0.73586   0.5417     N
Cu     0.68311  0.20606  0.11228    Cu
Cu     0.68311  0.79394  0.61228    Cu
H       0.6835   0.2973   0.8403     H
H       0.6835   0.7027   0.3403     H
H       0.6846   0.2655   0.4864     H
H       0.6846   0.7345   0.9864     H
C      0.68682  0.32261  0.00043     C
C      0.68682  0.67739  0.50043     C
H        0.688      0.1   0.5516     H
H        0.688      0.9   0.0516     H
C       0.6889  0.40085   0.5046     C
C       0.6889  0.59915   0.0046     C
H       0.6938   0.0411   0.9251     H
H       0.6938   0.9589   0.4251     H
C       0.6945  0.28083   0.2216     C
C       0.6945  0.71917   0.7216     C
C       0.6968  0.36627    0.494     C
C       0.6968  0.63373    0.994     C
C       0.6971  0.35736  0.01901     C
C       0.6971  0.64264  0.51901     C
C       0.6979  0.01806   0.2773     C
C       0.6979  0.98194   0.7773     C
C       0.6988  0.43451   0.1393     C
C       0.6988  0.56549   0.6393     C
C       0.6994  0.25112  0.25408     C
C       0.6994  0.74888  0.75408     C
C       0.7015  0.10401   0.8415     C
C       0.7015  0.89599   0.3415     C
H       0.7019   0.4745   0.0873     H
H       0.7019   0.5255   0.5873     H
H       0.7025   0.1311   0.7087     H
H       0.7025   0.8689   0.2087     H
H       0.7028   0.0133   0.5135     H
H       0.7028   0.9867   0.0135     H
N       0.7047   0.0352   0.5228     N
N       0.7047   0.9648   0.0228     N
Cu     0.70499  0.28175  0.61885    Cu
Cu     0.70499  0.71825  0.11885    Cu
C       0.7054  0.03225   0.7215     C
C       0.7054  0.96775   0.2215     C
N      0.70605  0.19759  0.35092     N
N      0.70605  0.80241  0.85092     N
H       0.7063   0.0984   0.3655     H
H       0.7063   0.9016   0.8655     H
C       0.7093   0.1483   0.6845     C
C       0.7093   0.8517   0.1845     C
C       0.7115  0.05483   0.9021     C
C       0.7115  0.94517   0.4021     C
H       0.7144   0.0737   0.0549     H
H       0.7144   0.9263   0.5549     H
C      0.71661    0.294  0.04046     C
C      0.71661    0.706  0.54046     C
H       0.7171   0.0391   0.2948     H
H       0.7171   0.9609   0.7948     H
C       0.7182  0.32446    0.362     C
C       0.7182  0.67554    0.862     C
H       0.7185   0.3923     0.19     H
H       0.7185   0.6077     0.69     H
C      0.71907  0.23466  0.88686     C
C      0.71907  0.76534  0.38686     C
H       0.7193    0.456   0.3101     H
H       0.7193    0.544   0.8101     H
C       0.7196  0.37266   0.8225     C
C       0.7196  0.62734   0.3225     C
H       0.7209   0.4378   0.5653     H
H       0.7209   0.5622   0.0653     H
N      0.72108  0.20439  0.91617     N
N      0.72108  0.79561  0.41617     N
H       0.7227    0.493   0.7518     H
H       0.7227    0.507   0.2518     H
N       0.7238   0.2457  0.08884     N
N       0.7238   0.7543  0.58884     N
H        0.724   0.0712   0.6763     H
H        0.724   0.9288   0.1763     H
C      0.72505  0.14308  0.41061     C
C      0.72505  0.85692  0.91061     C
C       0.7253  0.41412   0.5575     C
C       0.7253  0.58588   0.0575     C
C       0.7261  0.45456   0.1052     C
C       0.7261  0.54544   0.6052     C
H       0.7278   0.3621   0.0552     H
H       0.7278   0.6379   0.5552     H
C        0.728  0.35088   0.3271     C
C        0.728  0.64912   0.8271     C
C       0.7294  0.19984  0.61454     C
C       0.7294  0.80016  0.11454     C
H       0.7296   0.2854   0.2058     H
H       0.7296   0.7146   0.7058     H
C       0.7314  0.10781   0.4008     C
C       0.7314  0.89219   0.9008     C
C       0.7338    0.001    0.749     C
C       0.7338    0.999    0.249     C
H       0.7345   0.3658   0.8603     H
H       0.7345   0.6342   0.3603     H
C       0.7358  0.40555   0.1663     C
C       0.7358  0.59445   0.6663     C
H       0.7363   0.1298   0.2892     H
H       0.7363   0.8702   0.7892     H
C       0.7367  0.37566   0.7336     C
C       0.7367  0.62434   0.2336     C
H        0.737   0.2174   0.5914     H
H        0.737   0.7826   0.0914     H
H       0.7372   0.2357   0.2595     H
H       0.7372   0.7643   0.7595     H
C       0.7389  0.34433  0.53604     C
C       0.7389  0.65567  0.03604     C
C      0.73921  0.13409  0.21054     C
C      0.73921  0.86591  0.71054     C
H         0.74   0.0479   0.5223     H
H         0.74   0.9521   0.0223     H
N       0.7413  0.05162   0.6921     N
N       0.7413  0.94838   0.1921     N
H       0.7429   0.3207    0.528     H
H       0.7429   0.6793    0.028     H
H       0.7571   0.1793    0.472     H
H       0.7571   0.8207    0.972     H
N       0.7587  0.44838   0.3079     N
N       0.7587  0.55162   0.8079     N
H         0.76   0.4521   0.4777     H
H         0.76   0.5479   0.9777     H
C      0.76079  0.36591  0.78946     C
C      0.76079  0.63409  0.28946     C
C       0.7611  0.15567  0.46396     C
C       0.7611  0.84433  0.96396     C
H       0.7628   0.2643   0.7405     H
H       0.7628   0.7357   0.2405     H
H        0.763   0.2826   0.4086     H
H        0.763   0.7174   0.9086     H
C       0.7633  0.12434   0.2664     C
C       0.7633  0.87566   0.7664     C
H       0.7637   0.3702   0.7108     H
H       0.7637   0.6298   0.2108     H
C       0.7642  0.09445   0.8337     C
C       0.7642  0.90555   0.3337     C
H       0.7655   0.1342   0.1397     H
H       0.7655   0.8658   0.6397     H
C       0.7662    0.499    0.251     C
C       0.7662    0.501    0.751     C
C       0.7686  0.39219   0.5992     C
C       0.7686  0.60781   0.0992     C
H       0.7704   0.2146   0.7942     H
H       0.7704   0.7854   0.2942     H
C       0.7706  0.30016  0.38546     C
C       0.7706  0.69984  0.88546     C
C        0.772  0.14912   0.6729     C
C        0.772  0.85088   0.1729     C
H       0.7722   0.1379   0.9448     H
H       0.7722   0.8621   0.4448     H
C       0.7739  0.04544   0.8948     C
C       0.7739  0.95456   0.3948     C
C       0.7747  0.08588   0.4425     C
C       0.7747  0.91412   0.9425     C
C      0.77495  0.35692  0.58939     C
C      0.77495  0.64308  0.08939     C
H        0.776   0.4288   0.3237     H
H        0.776   0.5712   0.8237     H
N       0.7762   0.2543  0.91116     N
N       0.7762   0.7457  0.41116     N
H       0.7773    0.007   0.2482     H
H       0.7773    0.993   0.7482     H
N      0.77892  0.29561  0.08383     N
N      0.77892  0.70439  0.58383     N
H       0.7791   0.0622   0.4347     H
H       0.7791   0.9378   0.9347     H
C       0.7804  0.12734   0.1775     C
C       0.7804  0.87266   0.6775     C
H       0.7807    0.044   0.6899     H
H       0.7807    0.956   0.1899     H
C      0.78093  0.26534  0.11314     C
C      0.78093  0.73466  0.61314     C
H       0.7815   0.1077     0.81     H
H       0.7815   0.8923     0.31     H
C       0.7818  0.17554    0.638     C
C       0.7818  0.82446    0.138     C
H       0.7829   0.4609   0.7052     H
H       0.7829   0.5391   0.2052     H
C      0.78339    0.206  0.95954     C
C      0.78339    0.794  0.45954     C
H       0.7856   0.4263   0.9451     H
H       0.7856   0.5737   0.4451     H
C       0.7885  0.44517   0.0979     C
C       0.7885  0.55483   0.5979     C
C       0.7907   0.3517   0.3155     C
C       0.7907   0.6483   0.8155     C
H       0.7937   0.4016   0.6345     H
H       0.7937   0.5984   0.1345     H
N      0.79395  0.30241  0.64908     N
N      0.79395  0.69759  0.14908     N
C       0.7946  0.46775   0.2785     C
C       0.7946  0.53225   0.7785     C
Cu     0.79501  0.21825  0.38115    Cu
Cu     0.79501  0.78175  0.88115    Cu
N       0.7953   0.4648   0.4772     N
N       0.7953   0.5352   0.9772     N
H       0.7972   0.4867   0.4865     H
H       0.7972   0.5133   0.9865     H
H       0.7975   0.3689   0.2913     H
H       0.7975   0.6311   0.7913     H
H       0.7981   0.0255   0.9127     H
H       0.7981   0.9745   0.4127     H
C       0.7985  0.39599   0.1585     C
C       0.7985  0.60401   0.6585     C
C       0.8006  0.24888  0.74592     C
C       0.8006  0.75112  0.24592     C
C       0.8012  0.06549   0.8607     C
C       0.8012  0.93451   0.3607     C
C       0.8021  0.48194   0.7227     C
C       0.8021  0.51806   0.2227     C
C       0.8029  0.14264  0.98099     C
C       0.8029  0.85736  0.48099     C
C       0.8032  0.13373    0.506     C
C       0.8032  0.86627    0.006     C
C       0.8055  0.21917   0.7784     C
C       0.8055  0.78083   0.2784     C
H       0.8062   0.4589   0.0749     H
H       0.8062   0.5411   0.5749     H
C       0.8111  0.09915   0.4954     C
C       0.8111  0.90085   0.9954     C
H        0.812      0.4   0.4484     H
H        0.812      0.6   0.9484     H
C      0.81318  0.17739  0.99957     C
C      0.81318  0.82261  0.49957     C
H       0.8154   0.2345   0.5136     H
H       0.8154   0.7655   0.0136     H
H       0.8165   0.2027   0.1597     H
H       0.8165   0.7973   0.6597     H
Cu     0.81689  0.29394  0.88772    Cu
Cu     0.81689  0.70606  0.38772    Cu
N      0.81752  0.23586   0.9583     N
N      0.81752  0.76414   0.4583     N
H       0.8179   0.1076   0.7162     H
H       0.8179   0.8924   0.2162     H
C      0.81841  0.33315  0.63432     C
C      0.81841  0.66685  0.13432     C
H       0.8208   0.4647   0.8808     H
H       0.8208   0.5353   0.3808     H
H       0.8227   0.3761   0.1767     H
H       0.8227   0.6239   0.6767     H
N       0.8242  0.12406   0.6949     N
H       0.8242   0.1768   0.6305     H
H       0.8242   0.8232   0.1305     H
N       0.8242  0.87594   0.1949     N
N       0.8249  0.41491   0.9536     N
N       0.8249  0.58509   0.4536     N
C       0.8258  0.41545  0.12416     C
C       0.8258  0.58455  0.62416     C
H       0.8263   0.1428   0.5418     H
H       0.8263   0.8572   0.0418     H
C       0.8266  0.10658   0.2895     C
C       0.8266  0.89342   0.7895     C
H        0.828    0.092   0.0022     H
H        0.828    0.908   0.5022     H
H       0.8333   0.3979   0.9775     H
H       0.8333   0.6021   0.4775     H
C      0.83379  0.35291  0.81365     C
C      0.83379  0.64709  0.31365     C
C       0.8348  0.30139  0.37535     C
C       0.8348  0.69861  0.87535     C
C      0.83512  0.25505  0.16643     C
C      0.83512  0.74495  0.66643     C
C       0.8372  0.11504   0.0151     C
C       0.8372  0.88496   0.5151     C
H       0.8373   0.1632   0.8394     H
H       0.8373   0.8368   0.3394     H
H       0.8413   0.0999   0.3273     H
H       0.8413   0.9001   0.8273     H
C       0.8429  0.21995  0.18392     C
C       0.8429  0.78005  0.68392     C
C       0.8437  0.32731  0.33916     C
C       0.8437  0.67269  0.83916     C
C       0.8449   0.1101   0.2013     C
C       0.8449   0.8899   0.7013     C
Cu      0.8476  0.33111  0.08711    Cu
Cu      0.8476  0.66889  0.58711    Cu
C       0.8488  0.41447   0.4468     C
C       0.8488  0.58553   0.9468     C
C       0.8491  0.45009   0.4612     C
C       0.8491  0.54991   0.9612     C
C      0.85058  0.28869  0.69014     C
C      0.85058  0.71131  0.19014     C
C      0.85154  0.25591  0.72121     C
C      0.85154  0.74409  0.22121     C
N       0.8521  0.07704   0.5386     N
N       0.8521  0.92296   0.0386     N
N       0.8544  0.22754   0.5382     N
N       0.8544  0.77246   0.0382     N
H        0.857   0.0552   0.5317     H
H        0.857   0.9448   0.0317     H
C       0.8574  0.45572   0.2747     C
C       0.8574  0.54428   0.7747     C
C       0.8575   0.1835  0.05459     C
C       0.8575   0.8165  0.55459     C
N      0.85883  0.32542  0.84934     N
N      0.85883  0.67458  0.34934     N
H       0.8593   0.2059   0.5488     H
H       0.8593   0.7941   0.0488     H
H       0.8608   0.2936   0.5168     H
H       0.8608   0.7064   0.0168     H
C       0.8618   0.1959  0.78808     C
C       0.8618   0.8041  0.28808     C
H       0.8629    0.125   0.6872     H
H       0.8629    0.875   0.1872     H
C       0.8633  0.45237   0.8907     C
C       0.8633  0.54763   0.3907     C
H       0.8636   0.2064   0.0687     H
H       0.8636   0.7936   0.5687     H
C       0.8663  0.49335  0.71973     C
C       0.8663  0.50665  0.21973     C
N       0.8665  0.05718   0.8555     N
N       0.8665  0.94282   0.3555     N
C       0.8669   0.0988   0.2582     C
C       0.8669   0.9012   0.7582     C
N       0.8685  0.16704   0.8233     N
N       0.8685  0.83296   0.3233     N
H       0.8707   0.3038   0.1938     H
H       0.8707   0.6962   0.6938     H
H       0.8725   0.0853    0.572     H
H       0.8725   0.9147    0.072     H
H       0.8737    0.106   0.1795     H
H       0.8737    0.894   0.6795     H
C       0.8746  0.42402   0.9289     C
C       0.8746  0.57598   0.4289     C
Cl     0.87489  0.31878  0.99199    Cl
Cl     0.87489  0.68122  0.49199    Cl
C       0.8753  0.28018  0.20402     C
C       0.8753  0.71982  0.70402     C
H       0.8763   0.4346    0.292     H
H       0.8763   0.5654    0.792     H
N      0.88139  0.24166  0.41097     N
N      0.88139  0.75834  0.91097     N
H       0.8838   0.0702   0.8353     H
H       0.8838   0.9298   0.3353     H
C       0.8854  0.12149   0.0685     C
C       0.8854  0.87851   0.5685     C
H       0.8855   0.3283   0.3308     H
H       0.8855   0.6717   0.8308     H
N      0.88571  0.36935  0.80241     N
N      0.88571  0.63065  0.30241     N
N      0.88593  0.33813  0.66429     N
N      0.88593  0.66187  0.16429     N
C       0.8893  0.21012   0.2368     C
C       0.8893  0.78988   0.7368     C
H       0.8895    0.039   0.8725     H
H       0.8895    0.961   0.3725     H
C      0.88986    0.405  0.11234     C
C      0.88986    0.595  0.61234     C
Cu     0.89106  0.40539  0.75359    Cu
Cu     0.89106  0.59461  0.25359    Cu
C      0.89187  0.27651  0.40388     C
C      0.89187  0.72349  0.90388     C
H       0.8922   0.1696   0.3907     H
H       0.8922   0.8304   0.8907     H
C       0.8928  0.15594  0.08876     C
C       0.8928  0.84406  0.58876     C
C       0.8929  0.47462  0.24559     C
C       0.8929  0.52538  0.74559     C
H       0.8931   0.1866   0.2476     H
H       0.8931   0.8134   0.7476     H
H       0.9018   0.3769   0.4222     H
H       0.9018   0.6231   0.9222     H
C       0.9023  0.28626   0.5444     C
C       0.9023  0.40078   0.4305     C
C       0.9023  0.59922   0.9305     C
C       0.9023  0.71374   0.0444     C
H       0.9038   0.1529   0.8291     H
H       0.9038   0.8471   0.3291     H
N      0.90502   0.3723  0.10234     N
N      0.90502   0.6277  0.60234     N
C       0.9052  0.47024   0.4603     C
C       0.9052  0.52976   0.9603     C
H        0.906   0.4809   0.8431     H
H        0.906   0.5191   0.3431     H
C      0.90666  0.23182  0.72928     C
C      0.90666  0.76818  0.22928     C
N      0.90672  0.30944  0.70004     N
N      0.90672  0.69056  0.20004     N
C      0.90695  0.47074  0.69453     C
C      0.90695  0.52926  0.19453     C
Cu     0.90701  0.25492  0.00332    Cu
Cu     0.90701  0.74508  0.50332    Cu
H       0.9079   0.4936   0.4719     H
H       0.9079   0.5064   0.9719     H
N      0.90832  0.43599  0.70158     N
N      0.90832  0.56401  0.20158     N
C       0.9099  0.25158   0.5611     C
C       0.9099  0.74842   0.0611     C
C       0.9113  0.20244  0.76192     C
C       0.9113  0.79756  0.26192     C
C       0.9143  0.46197  0.86791     C
C       0.9143  0.53803  0.36791     C
H       0.9175   0.0725   0.0886     H
H       0.9175   0.9275   0.5886     H
H       0.9181   0.1119   0.4185     H
H       0.9181   0.8881   0.9185     H
H       0.9218   0.1605   0.1256     H
H       0.9218   0.8395   0.6256     H
C       0.9223  0.27036   0.2565     C
C       0.9223  0.72964   0.7565     C
N       0.9237  0.09373   0.1015     N
N       0.9237  0.90627   0.6015     N
C       0.9266  0.16477   0.4253     C
C       0.9266  0.83523   0.9253     C
C      0.92949  0.32581  0.85834     C
C      0.92949  0.67419  0.35834     C
C       0.9297  0.23523   0.2731     C
C       0.9297  0.76477   0.7731     C
H       0.9319   0.2571   0.8489     H
H       0.9319   0.7429   0.3489     H
N        0.932   0.0813   0.2823     N
N        0.932   0.9187   0.7823     N
H       0.9353   0.4659   0.2431     H
H       0.9353   0.5341   0.7431     H
C       0.9382  0.40614  0.94196     C
C       0.9382  0.59386  0.44196     C
N      0.93941   0.4279  0.10671     N
N      0.93941   0.5721  0.60671     N
H       0.9396   0.1443   0.9369     H
H       0.9396   0.8557   0.4369     H
H       0.9408   0.2358   0.7122     H
H       0.9408   0.7642   0.2122     H
C        0.942  0.13004   0.4422     C
C        0.942  0.86996   0.9422     C
H       0.9459   0.0755   0.3175     H
H       0.9459   0.9245   0.8175     H
N      0.94655  0.48046  0.66193     N
N      0.94655  0.51954  0.16193     N
H       0.9468   0.3872   0.9668     H
H       0.9468   0.6128   0.4668     H
C      0.94686  0.22917  0.44176     C
C      0.94686  0.77083  0.94176     C
Cu     0.94693  0.47457  0.13229    Cu
Cu     0.94693  0.52543  0.63229    Cu
N      0.94739   0.3518  0.83095     N
N      0.94739   0.6482  0.33095     N
H       0.9483   0.1866   0.7665     H
H       0.9483   0.8134   0.2665     H
H       0.9491   0.2875   0.2808     H
H       0.9491   0.7125   0.7808     H
N      0.94999  0.42239  0.67231     N
N      0.94999  0.57761  0.17231     N
H         0.95    0.334   0.5571     H
H         0.95    0.666   0.0571     H
H       0.9535   0.0979   0.1345     H
H       0.9535   0.9021   0.6345     H
C       0.9559  0.31056  0.56852     C
C       0.9559  0.68944  0.06852     C
C       0.9567  0.42146    0.426     C
C       0.9567  0.57854    0.926     C
C       0.9574  0.45674   0.4426     C
C       0.9574  0.54326   0.9426     C
H       0.9579   0.0764   0.2619     H
H       0.9579   0.9236   0.7619     H
H       0.9588   0.0825   0.9587     H
H       0.9588   0.9175   0.4587     H
N      0.95916  0.28523  0.42799     N
N      0.95916  0.71477  0.92799     N
Cu     0.96138  0.37174  0.66806    Cu
Cu     0.96138  0.62826  0.16806    Cu
C      0.96186  0.19243  0.45944     C
C      0.96186  0.80757  0.95944     C
H       0.9629   0.2017   0.9651     H
H       0.9629   0.7983   0.4651     H
N      0.96665  0.37366  0.08867     N
N      0.96665  0.62634  0.58867     N
H        0.969   0.4033   0.5707     H
H        0.969   0.5967   0.0707     H
C       0.9726  0.24075   0.6013     C
C       0.9726  0.75925   0.1013     C
C       0.9727  0.44946  0.64948     C
C       0.9727  0.55054  0.14948     C
C        0.973  0.14928  0.97191     C
C        0.973  0.85072  0.47191     C
C       0.9741  0.26467  0.87535     C
C       0.9741  0.73533  0.37535     C
C       0.9778  0.44384  0.88126     C
C       0.9778  0.55616  0.38126     C
N       0.9781  0.22604  0.32569     N
N       0.9781  0.77396  0.82569     N
H       0.9786   0.2173   0.6125     H
H       0.9786   0.7827   0.1125     H
C      0.98231  0.29992  0.89066     C
C      0.98231  0.70008  0.39066     C
H       0.9833   0.2043    0.336     H
H       0.9833   0.7957    0.836     H
C      0.98515  0.40742  0.09066     C
C      0.98515  0.59258  0.59066     C
H       0.9872   0.0703   0.4878     H
H       0.9872   0.9297   0.9878     H
C       0.9874  0.18378  0.98878     C
C       0.9874  0.81622  0.48878     C
C       0.9886   0.4157  0.91932     C
C       0.9886   0.5843  0.41932     C
N       0.9909  0.08717   0.9904     N
N       0.9909  0.91283   0.4904     N
C       0.9924  0.12193   0.4936     C
C       0.9924  0.87807   0.9936     C
Cu     0.99368  0.32893   0.0677    Cu
Cu     0.99368  0.67107   0.5677    Cu
H       0.9944   0.4713   0.4417     H
H       0.9944   0.5287   0.9417     H
N      0.99476   0.2547   0.4523     N
N      0.99476   0.7453   0.9523     N
H       0.9972   0.2421   0.1523     H
H       0.9972   0.7579   0.6523     H
