data_I
_chemical_name_common  '/home/zhangsd/repos/MofS-CGCNN/ML/data/TSD/clean_cifs/AXUPEO_clean'
_cell_length_a  9.51210
_cell_length_b  9.88190
_cell_length_c 12.11720
_cell_angle_alpha 70.53300
_cell_angle_beta  73.47300
_cell_angle_gamma 82.32800
_space_group_name_H-M_alt      'P 1'


loop_
_space_group_symop_operation_xyz
  'x, y, z' 

loop_
_atom_site_label
_atom_site_fract_x
_atom_site_fract_y
_atom_site_fract_z
_atom_site_type_symbol
O       0.0032   0.1551    0.205     O
P      0.03241  0.97995  0.68437     P
Al     0.06661  0.32836  0.14961    Al
O       0.0855   0.5564   0.8526     O
O       0.1014   0.0851   0.7148     O
O       0.1115   0.9557   0.3496     O
O       0.1315   0.9293   0.5807     O
O       0.1426   0.3358   0.4507     O
Mn     0.14671  0.30605  0.64121    Mn
O        0.158   0.3205    0.811     O
O       0.1717   0.3506   0.2367     O
O       0.1761   0.3503   0.0031     O
P      0.18823  0.42239  0.86757     P
Al      0.2305  0.97474  0.43051    Al
P       0.2456  0.30683  0.34084     P
O       0.2945   0.1482   0.3653     O
O       0.3458   0.4763   0.8134     O
O       0.3744   0.2627   0.5933     O
O       0.3771   0.8581   0.4002     O
O       0.3866   0.3913   0.2931     O
O       0.4007   0.6381   0.5687     O
O       0.4348   0.6264   0.3605     O
P      0.46625  0.71682  0.43211     P
Al      0.4836  0.52428  0.68064    Al
Al      0.5164  0.47572  0.31936    Al
P      0.53375  0.28318  0.56789     P
O       0.5652   0.3736   0.6395     O
O       0.5993   0.3619   0.4313     O
O       0.6134   0.6087   0.7069     O
O       0.6229   0.1419   0.5998     O
O       0.6256   0.7373   0.4067     O
O       0.6542   0.5237   0.1866     O
O       0.7055   0.8518   0.6347     O
P       0.7544  0.69317  0.65916     P
Al      0.7695  0.02526  0.56949    Al
P      0.81177  0.57761  0.13243     P
O       0.8239   0.6497   0.9969     O
O       0.8283   0.6494   0.7633     O
O        0.842   0.6795    0.189     O
Mn     0.85329  0.69395  0.35879    Mn
O       0.8574   0.6642   0.5493     O
O       0.8685   0.0707   0.4193     O
O       0.8885   0.0443   0.6504     O
O       0.8986   0.9149   0.2852     O
O       0.9145   0.4436   0.1474     O
Al     0.93339  0.67164  0.85039    Al
P      0.96759  0.02005  0.31563     P
O       0.9968   0.8449    0.795     O
