data_I
_chemical_name_common  '/home/zhangsd/repos/MofS-CGCNN/ML/data/TSD/clean_cifs/AYOQEM_clean'
_cell_length_a 45.84870
_cell_length_b 45.84870
_cell_length_c 45.84870
_cell_angle_alpha 33.46500
_cell_angle_beta  33.46500
_cell_angle_gamma 33.46500
_space_group_name_H-M_alt      'P 1'


loop_
_space_group_symop_operation_xyz
  'x, y, z' 

loop_
_atom_site_label
_atom_site_fract_x
_atom_site_fract_y
_atom_site_fract_z
_atom_site_type_symbol
C       0.0002   0.9923   0.0869     C
C       0.0008    0.506   0.6079     C
O        0.001   0.6018   0.0758     O
C       0.0025   0.1982   0.1845     C
H       0.0025   0.6773   0.6925     H
C       0.0052   0.3595   0.5201     C
C        0.006   0.5008   0.1079     C
H       0.0069   0.7644   0.6008     H
Cu     0.00695  0.97452  0.40475    Cu
C       0.0077   0.9131   0.9998     C
O       0.0078   0.1432   0.4906     O
O       0.0079   0.4649   0.3867     O
O       0.0084     0.46   0.9324     O
O       0.0094   0.3568   0.4922     O
C       0.0107   0.5872   0.7942     C
H       0.0126   0.4071   0.2076     H
H       0.0138   0.7621   0.8406     H
H       0.0173   0.0309   0.8726     H
H       0.0197   0.8577   0.7322     H
C       0.0201   0.5421   0.8402     C
C       0.0201   0.8595   0.5052     C
C       0.0223   0.6764    0.694     C
Cu     0.02548  0.59525  0.99305    Cu
O       0.0274   0.9623   0.6476     O
C       0.0275   0.7666   0.5983     C
H       0.0309   0.8726   0.0173     H
O       0.0313   0.9028    0.467     O
O       0.0326   0.8943   0.3952     O
O        0.033   0.5972   0.4687     O
C        0.033   0.6303   0.7448     C
C       0.0334   0.8179   0.7588     C
C       0.0336   0.9479   0.9391     C
O       0.0351   0.4921   0.1133     O
H       0.0351   0.5445   0.3418     H
O       0.0377   0.3524   0.9726     O
C       0.0388   0.8103   0.5525     C
C       0.0393    0.359   0.9386     C
O         0.04   0.4916   0.5676     O
C       0.0409   0.7185   0.6482     C
C       0.0421   0.5201   0.3402     C
Cu      0.0441  0.07465  0.54443    Cu
Cu     0.04443  0.57465   0.5441    Cu
H       0.0445   0.5351   0.8418     H
H        0.045   0.8725   0.1597     H
H       0.0475    0.312   0.5616     H
C       0.0521   0.0609   0.9664     C
C       0.0525   0.3103   0.5388     C
H       0.0526   0.1412   0.8895     H
C       0.0609   0.9664   0.0521     C
C       0.0614   0.9607    0.641     C
H       0.0616    0.812   0.5475     H
C        0.064   0.6308   0.7435     C
O       0.0648   0.6433   0.9264     O
C       0.0661   0.1615   0.1548     C
O       0.0676   0.9916     0.54     O
H       0.0685   0.8802   0.7181     H
C       0.0693   0.7166   0.6515     C
H       0.0717   0.3415   0.8728     H
C       0.0726   0.9081   0.3579     C
H       0.0734   0.6007   0.7745     H
O       0.0736   0.9352   0.3567     O
H       0.0738   0.0804   0.2293     H
Cu     0.07465  0.54443   0.0441    Cu
O       0.0758    0.001   0.6018     O
C       0.0783   0.1008   0.9021     C
H       0.0804   0.2293   0.0738     H
H       0.0813   0.7459   0.6204     H
C       0.0814    0.674   0.6983     C
C       0.0815   0.9085   0.6878     C
C       0.0853   0.8614   0.1334     C
C       0.0869   0.0002   0.9923     C
C       0.0872   0.5107   0.2942     C
C       0.0915   0.3122   0.9185     C
C       0.0919   0.6421   0.9274     C
H       0.0929   0.4874   0.2924     H
C       0.0948   0.7757   0.7354     C
Cu     0.09525  0.52548  0.49305    Cu
C       0.0955   0.0989   0.1885     C
O       0.0972    0.533   0.9687     O
H       0.0973   0.8622   0.3239     H
C       0.0979   0.9217   0.8992     C
C       0.0983   0.2666   0.5275     C
C       0.0989   0.1885   0.0955     C
C       0.1003   0.3106   0.8855     C
H       0.1007   0.5734   0.2745     H
H       0.1008   0.2644   0.5069     H
C       0.1008   0.9021   0.0783     C
O       0.1018    0.501   0.5758     O
H       0.1046   0.7986   0.7804     H
O       0.1048   0.6057   0.4674     O
O       0.1057   0.6048   0.9674     O
O       0.1059   0.7669   0.2098     O
C       0.1079    0.006   0.5008     C
O       0.1091   0.7213   0.7725     O
H       0.1104   0.7112    0.841     H
H       0.1105   0.9474   0.8588     H
C       0.1119   0.6893   0.8745     C
C       0.1122   0.6722   0.7018     C
O       0.1133   0.0351   0.4921     O
C       0.1145   0.8997   0.6894     C
H       0.1179   0.6413   0.7354     H
H       0.1186   0.2962   0.8264     H
H       0.1198   0.2819   0.9315     H
H       0.1204   0.2459   0.5813     H
O       0.1206   0.1814   0.7862     O
C       0.1242   0.8002   0.7797     C
C       0.1255   0.8881   0.3107     C
C       0.1264    0.801   0.1556     C
O       0.1268   0.7968   0.6804     O
H       0.1272   0.9283   0.6585     H
H       0.1274   0.9827   0.9691     H
H       0.1275   0.8403    0.955     H
H       0.1284    0.237     0.63     H
C       0.1285   0.8694    0.298     C
H         0.13    0.737   0.6284     H
C       0.1303    0.533   0.2448     C
C       0.1306    0.702   0.8715     C
C       0.1308    0.564   0.2435     C
C       0.1319    0.708   0.6641     C
O       0.1329   0.2399   0.6791     O
C       0.1334   0.0853   0.8614     C
C       0.1358   0.8492   0.7344     C
H       0.1378   0.6761   0.9027     H
C       0.1386   0.8666   0.9147     C
C       0.1405   0.4948   0.9799     C
C        0.141   0.4607   0.5614     C
H       0.1412   0.8895   0.0526     H
H       0.1413   0.6179   0.2354     H
C       0.1421   0.5919   0.4274     C
H       0.1423   0.2678   0.9803     H
C       0.1425   0.7542   0.8232     C
Cu     0.14265  0.24505  0.70865    Cu
O       0.1432   0.4906   0.0078     O
O       0.1433   0.5648   0.4264     O
H       0.1475   0.8183   0.2734     H
O       0.1476   0.4623   0.5274     O
C       0.1482   0.2185   0.5409     C
C       0.1505   0.2659   0.8346     C
C       0.1508   0.2656   0.8642     C
C       0.1515   0.2166   0.5693     C
C       0.1548   0.0661   0.1615     C
C       0.1556   0.1264    0.801     C
Cu     0.15644  0.68653  0.24886    Cu
O       0.1569   0.6676   0.7237     O
H       0.1575   0.2564   0.7801     H
C       0.1576   0.7063   0.6736     C
O       0.1581   0.7204   0.2569     O
H       0.1582   0.9555   0.4649     H
H       0.1584     0.77   0.2627     H
H       0.1585   0.4283   0.6272     H
H        0.159   0.8896   0.2888     H
H       0.1594   0.9862   0.2379     H
H       0.1597    0.045   0.8725     H
C       0.1598   0.9799   0.4579     C
C       0.1615   0.1548   0.0661     C
C       0.1641    0.208   0.6319     C
C       0.1654   0.8495   0.7341     C
O       0.1676   0.6569   0.2237     O
O       0.1697   0.2371    0.734     O
C       0.1711   0.7568   0.8225     C
C       0.1722   0.6122   0.2018     C
C       0.1736   0.2063   0.6576     C
H       0.1736   0.8814   0.7038     H
C        0.174   0.5814   0.1983     C
H       0.1761   0.6378   0.4027     H
C       0.1764   0.5223    0.194     C
C       0.1768   0.8575   0.2458     C
H       0.1773   0.5025   0.1925     H
C       0.1775   0.8289   0.2432     C
O       0.1791   0.7399   0.6329     O
O       0.1804   0.2968   0.6268     O
O       0.1814   0.7862   0.1206     O
H       0.1817   0.7266   0.8525     H
C       0.1821   0.2412   0.9666     C
C       0.1842   0.8038   0.7777     C
C       0.1845   0.0025   0.1982     C
Cu     0.18653  0.65644  0.74886    Cu
C       0.1878   0.4085   0.5815     C
H        0.188   0.4525   0.9384     H
C       0.1885   0.0955   0.0989     C
C       0.1893   0.6119   0.3745     C
C       0.1894   0.3997   0.6145     C
C       0.1896   0.7663   0.2278     C
C       0.1897   0.4475   0.9612     C
C       0.1913   0.2251   0.7857     C
H       0.1925   0.1773   0.5025     H
C        0.194   0.1764   0.5223     C
C       0.1962   0.2223   0.8158     C
C       0.1963   0.7372   0.2165     C
C       0.1982   0.1845   0.0025     C
C       0.1983    0.174   0.5814     C
C        0.199   0.8444   0.8736     C
C       0.1998   0.2203   0.8758     C
H       0.2014   0.2196   0.8954     H
C       0.2018   0.1722   0.6122     C
C        0.202   0.6306   0.3715     C
O       0.2032   0.3196   0.8732     O
H       0.2038   0.3814   0.6736     H
C       0.2058   0.9893   0.4128     C
C       0.2063   0.6576   0.1736     C
H       0.2076   0.0126   0.4071     H
C        0.208   0.6319   0.1641     C
Cu     0.20865  0.74505  0.64265    Cu
O       0.2098   0.1059   0.7669     O
H       0.2112   0.6104    0.341     H
O       0.2138   0.8794   0.8186     O
C       0.2143   0.8087   0.7749     C
C       0.2165   0.1963   0.7372     C
C       0.2166   0.5693   0.1515     C
H       0.2181   0.3802   0.5685     H
C       0.2185   0.5409   0.1482     C
H       0.2196   0.8954   0.2014     H
H       0.2199   0.8425   0.7436     H
C       0.2203   0.8758   0.1998     C
O       0.2204   0.6581   0.7569     O
O       0.2213   0.6091   0.2725     O
C       0.2223   0.8158   0.1962     C
O       0.2237   0.1676   0.6569     O
C       0.2243   0.2646   0.9052     C
C       0.2251   0.7857   0.1913     C
H       0.2255   0.9266   0.3993     H
H       0.2266   0.6817   0.3525     H
O       0.2275   0.8909   0.2787     O
C       0.2278   0.1896   0.7663     C
H       0.2293   0.0738   0.0804     H
H         0.23   0.7373   0.8416     H
H       0.2322   0.3577   0.5197     H
O       0.2331   0.7902   0.8941     O
C       0.2334   0.4017   0.9725     C
C       0.2337   0.7722   0.8104     C
O        0.234   0.7371   0.6697     O
C       0.2341   0.3495   0.6654     C
C       0.2344   0.3492   0.6358     C
H       0.2354   0.1413   0.6179     H
C       0.2354   0.2757   0.5948     C
H       0.2356   0.3992   0.9931     H
H        0.237     0.63   0.1284     H
O       0.2371    0.734   0.1697     O
C       0.2372   0.6963   0.7165     C
H       0.2373     0.73   0.3416     H
H       0.2379   0.1594   0.9862     H
O       0.2399   0.6791   0.1329     O
C       0.2412   0.9666   0.1821     C
O       0.2431   0.7796   0.3419     O
C       0.2432   0.1775   0.8289     C
C       0.2435   0.1308    0.564     C
H       0.2436   0.3425   0.7199     H
C       0.2448   0.1303    0.533     C
Cu     0.24505  0.70865  0.14265    Cu
C       0.2458   0.1768   0.8575     C
H       0.2459   0.5813   0.1204     H
Cu     0.24886  0.15644  0.68653    Cu
Cu     0.25114  0.81347  0.34356    Cu
H       0.2541   0.3796   0.9187     H
C       0.2542   0.6425   0.3232     C
Cu     0.25495  0.35735  0.79135    Cu
C       0.2552    0.967   0.3697     C
H       0.2564   0.7801   0.1575     H
C       0.2565    0.936   0.3692     C
C       0.2568   0.6711   0.3225     C
O       0.2569   0.1581   0.7204     O
C       0.2588   0.3179   0.5334     C
O       0.2601   0.3671   0.8209     O
H       0.2621   0.5138   0.3406     H
H       0.2627   0.1584     0.77     H
C       0.2628   0.7835   0.8037     C
O       0.2629   0.3303    0.766     O
H        0.263   0.3716     0.87     H
H       0.2644   0.5069   0.1008     H
H       0.2646   0.8821   0.3587     H
C       0.2646   0.9052   0.2243     C
C       0.2656   0.8642   0.1508     C
C       0.2659   0.8346   0.1505     C
O        0.266   0.8303   0.7629     O
C       0.2663   0.6896   0.7278     C
C       0.2666   0.5275   0.0983     C
O       0.2669   0.6059   0.7098     O
H       0.2678   0.9803   0.1423     H
H         0.27   0.6584   0.7627     H
H       0.2707   0.4196   0.4262     H
C       0.2722   0.7337   0.3104     C
O       0.2725   0.2213   0.6091     O
H       0.2734   0.1475   0.8183     H
H       0.2745   0.1007   0.5734     H
C       0.2749   0.3087   0.7143     C
C       0.2757   0.5948   0.2354     C
O       0.2763   0.8431   0.3324     O
C       0.2777   0.3038   0.6842     C
O       0.2787   0.2275   0.8909     O
O       0.2796   0.7431   0.8419     O
C       0.2797   0.3002   0.6242     C
H       0.2801   0.7564   0.6575     H
H       0.2804   0.2986   0.6046     H
C       0.2815   0.3518   0.9591     C
H       0.2819   0.9315   0.1198     H
C       0.2834   0.3485   0.9307     C
C       0.2835   0.7628   0.3037     C
C       0.2857   0.7251   0.6913     C
O       0.2862   0.6814   0.6206     O
H       0.2888    0.159   0.8896     H
O       0.2902   0.7331   0.3941     O
Cu     0.29135  0.85735  0.75495    Cu
C        0.292   0.3359   0.8681     C
H       0.2924   0.0929   0.4874     H
C       0.2937   0.3264   0.8424     C
C       0.2942   0.0872   0.5107     C
H       0.2962   0.8264   0.1186     H
O       0.2968   0.6268   0.1804     O
C        0.298   0.1285   0.8694     C
C       0.2982   0.8878   0.3278     C
H       0.2986   0.6046   0.2804     H
C       0.3002   0.6242   0.2797     C
C        0.301   0.6264   0.6556     C
C       0.3017   0.9186    0.326     C
C       0.3018   0.4975   0.3155     C
C       0.3037   0.2835   0.7628     C
C       0.3038   0.6842   0.2777     C
C        0.306   0.9777   0.3236     C
H       0.3075   0.9975   0.3227     H
C       0.3087   0.7143   0.2749     C
C       0.3103   0.5388   0.0525     C
C       0.3104   0.2722   0.7337     C
C       0.3106   0.8855   0.1003     C
C       0.3107   0.1255   0.8881     C
C       0.3115   0.4011   0.4045     C
H        0.312   0.5616   0.0475     H
C       0.3122   0.9185   0.0915     C
Cu     0.31347  0.75114  0.84356    Cu
C       0.3155   0.3018   0.4975     C
C       0.3158   0.7223   0.6962     C
C       0.3179   0.5334   0.2588     C
H       0.3183   0.6475   0.7734     H
O       0.3186   0.3794   0.7138     O
O       0.3196   0.8732   0.2032     O
O       0.3209   0.8671   0.7601     O
C       0.3225   0.2568   0.6711     C
H       0.3227   0.3075   0.9975     H
C       0.3232   0.2542   0.6425     C
C       0.3236    0.306   0.9777     C
H       0.3239   0.0973   0.8622     H
C        0.326   0.3017   0.9186     C
H       0.3264   0.7962   0.6186     H
C       0.3264   0.8424   0.2937     C
C       0.3278   0.2982   0.8878     C
C       0.3289   0.6775   0.7432     C
O       0.3303    0.766   0.2629     O
O       0.3324   0.2763   0.8431     O
C       0.3346   0.7659   0.6505     C
C       0.3359   0.8681    0.292     C
C       0.3385   0.4339   0.3452     C
C       0.3402   0.0421   0.5201     C
H       0.3403   0.6275    0.455     H
H       0.3406   0.2621   0.5138     H
H        0.341   0.2112   0.6104     H
H       0.3415   0.8728   0.0717     H
H       0.3416   0.2373     0.73     H
H       0.3418   0.0351   0.5445     H
O       0.3419   0.2431   0.7796     O
C       0.3424   0.8264   0.7937     C
H       0.3425   0.7199   0.2436     H
O       0.3431   0.7763   0.8324     O
Cu     0.34356  0.25114  0.81347    Cu
C       0.3444    0.699   0.3736     C
C       0.3452   0.3385   0.4339     C
C       0.3485   0.9307   0.2834     C
C       0.3492   0.6358   0.2344     C
C       0.3495   0.6654   0.2341     C
C       0.3518   0.9591   0.2815     C
O       0.3524   0.9726   0.0377     O
H       0.3525   0.2266   0.6817     H
O       0.3567   0.0736   0.9352     O
O       0.3568   0.4922   0.0094     O
Cu     0.35735  0.79135  0.25495    Cu
C       0.3575   0.6768   0.7458     C
H       0.3577   0.5197   0.2322     H
C       0.3579   0.0726   0.9081     C
H       0.3587   0.2646   0.8821     H
H       0.3588   0.4474   0.6105     H
C        0.359   0.9386   0.0393     C
C       0.3595   0.5201   0.0052     C
C       0.3614   0.5853   0.6334     C
H       0.3622   0.5973   0.8239     H
C       0.3642   0.7656   0.6508     C
C       0.3666   0.6386   0.4147     C
O       0.3671   0.8209   0.2601     O
C       0.3681   0.8359    0.792     C
C       0.3692   0.2565    0.936     C
C       0.3694   0.6285    0.798     C
C       0.3697   0.2552    0.967     C
H         0.37   0.8716    0.763     H
C       0.3715    0.202   0.6306     C
H       0.3716     0.87    0.263     H
H       0.3725    0.545   0.6597     H
H       0.3726   0.5309   0.5173     H
H       0.3728   0.8415   0.5717     H
O       0.3732   0.8196   0.7032     O
C       0.3736   0.3444    0.699     C
C       0.3745   0.1893   0.6119     C
C       0.3758   0.7203   0.6998     C
O       0.3794   0.7138   0.3186     O
H       0.3796   0.9187   0.2541     H
H       0.3802   0.5685   0.2181     H
H       0.3814   0.6736   0.2038     H
H       0.3821   0.7646   0.8587     H
C       0.3855   0.8106   0.6003     C
O       0.3867   0.0079   0.4649     O
C       0.3878   0.7982   0.8278     C
C       0.3881   0.6255   0.8107     C
H       0.3895   0.6412   0.5526     H
H       0.3896    0.659   0.7888     H
O       0.3909   0.7275   0.7787     O
C       0.3921   0.9992    0.494     C
O       0.3941   0.2902   0.7331     O
O       0.3943   0.5326   0.8952     O
O       0.3952   0.0326   0.8943     O
H       0.3954   0.7196   0.7014     H
O       0.3982   0.9242    0.999     O
C       0.3992   0.4217   0.5979     C
H       0.3992   0.9931   0.2356     H
H       0.3993   0.2255   0.9266     H
C       0.3997   0.6145   0.1894     C
C       0.4011   0.4045   0.3115     C
C       0.4017   0.9725   0.2334     C
C       0.4021   0.6008   0.5783     C
H       0.4027   0.1761   0.6378     H
O       0.4028   0.5313    0.967     O
C       0.4045   0.3115   0.4011     C
Cu     0.40475  0.00695  0.97452    Cu
C       0.4052   0.7646   0.7243     C
H       0.4071   0.2076   0.0126     H
C       0.4081   0.5726   0.8579     C
C       0.4085   0.5815   0.1878     C
C       0.4128   0.2058   0.9893     C
C       0.4131   0.5077   0.4998     C
C       0.4147   0.3666   0.6386     C
C       0.4185   0.8122   0.5915     C
C       0.4186   0.8017    0.826     C
H       0.4187   0.8796   0.7541     H
H       0.4196   0.4262   0.2707     H
C       0.4217   0.5979   0.3992     C
O       0.4242   0.8982    0.499     O
Cu     0.42535   0.4559  0.95557    Cu
H       0.4262   0.2707   0.4196     H
O       0.4264   0.1433   0.5648     O
H       0.4266   0.7255   0.8993     H
C       0.4274   0.1421   0.5919     C
H       0.4283   0.6272   0.1585     H
C       0.4307   0.8485   0.7834     C
H       0.4315   0.7819   0.6198     H
O       0.4324     0.96   0.5084     O
C       0.4339   0.3452   0.3385     C
O       0.4352   0.5736   0.8567     O
C        0.436   0.7565   0.8692     C
H       0.4384   0.9525    0.688     H
C       0.4386    0.859   0.5393     C
C       0.4391   0.4479   0.5336     C
H       0.4474   0.6105   0.3588     H
C       0.4475   0.9612   0.1897     C
C       0.4479   0.5336   0.4391     C
H       0.4525   0.9384    0.188     H
H        0.455   0.3403   0.6275     H
H       0.4555   0.6582   0.9649     H
Cu     0.45557   0.9559  0.92535    Cu
Cu      0.4559  0.95557  0.42535    Cu
C       0.4579   0.1598   0.9799     C
C       0.4591   0.8518   0.7815     C
O         0.46   0.9324   0.0084     O
C       0.4607   0.5614    0.141     C
C       0.4612   0.9475   0.6897     C
O       0.4623   0.5274   0.1476     O
H       0.4649   0.1582   0.9555     H
O       0.4649   0.3867   0.0079     O
C       0.4664   0.5609   0.5521     C
C       0.4666   0.7412   0.6821     C
O        0.467   0.0313   0.9028     O
C        0.467   0.7552   0.8697     C
O       0.4674   0.1048   0.6057     O
O       0.4687    0.033   0.5972     O
H       0.4691   0.4827   0.6274     H
C       0.4725   0.9017   0.7334     C
O       0.4726   0.8524   0.5377     O
Cu     0.47452  0.50695  0.90475    Cu
C       0.4777    0.806   0.8236     C
C       0.4799   0.6598   0.9579     C
C       0.4799   0.9948   0.6405     C
H       0.4803   0.7678   0.6423     H
H       0.4827   0.6274   0.4691     H
H       0.4862   0.6594   0.7379     H
H       0.4874   0.2924   0.0929     H
C       0.4893   0.7058   0.9128     C
O       0.4906   0.0078   0.1432     O
O       0.4916   0.5676     0.04     O
O       0.4921   0.1133   0.0351     O
O       0.4922   0.0094   0.3568     O
C       0.4923   0.5002   0.5869     C
Cu     0.49305  0.09525  0.52548    Cu
H       0.4931   0.8992   0.7356     H
C        0.494   0.3921   0.9992     C
C       0.4948   0.9799   0.1405     C
C       0.4975   0.3155   0.3018     C
H       0.4975   0.8075   0.8227     H
O        0.499   0.4242   0.8982     O
C       0.4992   0.8921    0.994     C
C       0.4998   0.4131   0.5077     C
C       0.5002   0.5869   0.4923     C
C       0.5008   0.1079    0.006     C
O        0.501   0.5758   0.1018     O
H       0.5025   0.1925   0.1773     H
C       0.5025   0.6845   0.6982     C
C       0.5052   0.0201   0.8595     C
C        0.506   0.6079   0.0008     C
H       0.5069   0.1008   0.2644     H
Cu     0.50695  0.90475  0.47452    Cu
C       0.5077   0.4998   0.4131     C
O       0.5078   0.9906   0.6432     O
O       0.5079   0.8867   0.9649     O
O       0.5084   0.4324     0.96     O
O       0.5094   0.9922   0.8568     O
C       0.5107   0.2942   0.0872     C
H       0.5126   0.7076   0.9071     H
H       0.5138   0.3406   0.2621     H
H       0.5173   0.3726   0.5309     H
H       0.5197   0.2322   0.3577     H
C       0.5201   0.0052   0.3595     C
C       0.5201   0.3402   0.0421     C
C       0.5223    0.194   0.1764     C
Cu     0.52548  0.49305  0.09525    Cu
O       0.5274   0.1476   0.4623     O
C       0.5275   0.0983   0.2666     C
H       0.5309   0.5173   0.3726     H
O       0.5313    0.967   0.4028     O
O       0.5326   0.8952   0.3943     O
C        0.533   0.2448   0.1303     C
O        0.533   0.9687   0.0972     O
C       0.5334   0.2588   0.3179     C
C       0.5336   0.4391   0.4479     C
O       0.5351   0.6133   0.9921     O
H       0.5351   0.8418   0.0445     H
O       0.5377   0.4726   0.8524     O
C       0.5388   0.0525   0.3103     C
C       0.5393   0.4386    0.859     C
O         0.54   0.0676   0.9916     O
C       0.5409   0.1482   0.2185     C
C       0.5421   0.8402   0.0201     C
Cu      0.5441  0.04443  0.57465    Cu
Cu     0.54443   0.0441  0.07465    Cu
H       0.5445   0.3418   0.0351     H
H        0.545   0.6597   0.3725     H
H       0.5475   0.0616    0.812     H
C       0.5521   0.4664   0.5609     C
C       0.5525   0.0388   0.8103     C
H       0.5526   0.3895   0.6412     H
C       0.5609   0.5521   0.4664     C
C       0.5614    0.141   0.4607     C
H       0.5616   0.0475    0.312     H
C        0.564   0.2435   0.1308     C
O       0.5648   0.4264   0.1433     O
C       0.5661   0.6548   0.6615     C
O       0.5676     0.04   0.4916     O
H       0.5685   0.2181   0.3802     H
C       0.5693   0.1515   0.2166     C
H       0.5717   0.3728   0.8415     H
C       0.5726   0.8579   0.4081     C
H       0.5734   0.2745   0.1007     H
O       0.5736   0.8567   0.4352     O
H       0.5738   0.7293   0.5804     H
Cu     0.57465   0.5441  0.04443    Cu
O       0.5758   0.1018    0.501     O
C       0.5783   0.4021   0.6008     C
H       0.5804   0.5738   0.7293     H
H       0.5813   0.1204   0.2459     H
C       0.5814   0.1983    0.174     C
C       0.5815   0.1878   0.4085     C
C       0.5853   0.6334   0.3614     C
C       0.5869   0.4923   0.5002     C
C       0.5872   0.7942   0.0107     C
C       0.5915   0.4185   0.8122     C
C       0.5919   0.4274   0.1421     C
H       0.5929   0.7924   0.9874     H
C       0.5948   0.2354   0.2757     C
Cu     0.59525  0.99305  0.02548    Cu
C       0.5955   0.6885   0.5989     C
O       0.5972   0.4687    0.033     O
H       0.5973   0.8239   0.3622     H
C       0.5979   0.3992   0.4217     C
C       0.5983   0.0275   0.7666     C
C       0.5989   0.5955   0.6885     C
C       0.6003   0.3855   0.8106     C
H       0.6007   0.7745   0.0734     H
H       0.6008   0.0069   0.7644     H
C       0.6008   0.5783   0.4021     C
O       0.6018   0.0758    0.001     O
H       0.6046   0.2804   0.2986     H
O       0.6048   0.9674   0.1057     O
O       0.6057   0.4674   0.1048     O
O       0.6059   0.7098   0.2669     O
C       0.6079   0.0008    0.506     C
O       0.6091   0.2725   0.2213     O
H       0.6104    0.341   0.2112     H
H       0.6105   0.3588   0.4474     H
C       0.6119   0.3745   0.1893     C
C       0.6122   0.2018   0.1722     C
O       0.6133   0.9921   0.5351     O
C       0.6145   0.1894   0.3997     C
H       0.6179   0.2354   0.1413     H
H       0.6186   0.3264   0.7962     H
H       0.6198   0.4315   0.7819     H
H       0.6204   0.0813   0.7459     H
O       0.6206   0.2862   0.6814     O
C       0.6242   0.2797   0.3002     C
C       0.6255   0.8107   0.3881     C
C       0.6264   0.6556    0.301     C
O       0.6268   0.1804   0.2968     O
H       0.6272   0.1585   0.4283     H
H       0.6274   0.4691   0.4827     H
H       0.6275    0.455   0.3403     H
H       0.6284     0.13    0.737     H
C       0.6285    0.798   0.3694     C
H         0.63   0.1284    0.237     H
C       0.6303   0.7448    0.033     C
C       0.6306   0.3715    0.202     C
C       0.6308   0.7435    0.064     C
C       0.6319   0.1641    0.208     C
O       0.6329   0.1791   0.7399     O
C       0.6334   0.3614   0.5853     C
C       0.6358   0.2344   0.3492     C
H       0.6378   0.4027   0.1761     H
C       0.6386   0.4147   0.3666     C
C       0.6405   0.4799   0.9948     C
C        0.641   0.0614   0.9607     C
H       0.6412   0.5526   0.3895     H
H       0.6413   0.7354   0.1179     H
C       0.6421   0.9274   0.0919     C
H       0.6423   0.4803   0.7678     H
C       0.6425   0.3232   0.2542     C
Cu     0.64265  0.20865  0.74505    Cu
O       0.6432   0.5078   0.9906     O
O       0.6433   0.9264   0.0648     O
H       0.6475   0.7734   0.3183     H
O       0.6476   0.0274   0.9623     O
C       0.6482   0.0409   0.7185     C
C       0.6505   0.3346   0.7659     C
C       0.6508   0.3642   0.7656     C
C       0.6515   0.0693   0.7166     C
C       0.6548   0.6615   0.5661     C
C       0.6556    0.301   0.6264     C
Cu     0.65644  0.74886  0.18653    Cu
O       0.6569   0.2237   0.1676     O
H       0.6575   0.2801   0.7564     H
C       0.6576   0.1736   0.2063     C
O       0.6581   0.7569   0.2204     O
H       0.6582   0.9649   0.4555     H
H       0.6584   0.7627     0.27     H
H       0.6585   0.1272   0.9283     H
H        0.659   0.7888   0.3896     H
H       0.6594   0.7379   0.4862     H
H       0.6597   0.3725    0.545     H
C       0.6598   0.9579   0.4799     C
C       0.6615   0.5661   0.6548     C
C       0.6641   0.1319    0.708     C
C       0.6654   0.2341   0.3495     C
O       0.6676   0.7237   0.1569     O
O       0.6697    0.234   0.7371     O
C       0.6711   0.3225   0.2568     C
C       0.6722   0.7018   0.1122     C
C       0.6736   0.1576   0.7063     C
H       0.6736   0.2038   0.3814     H
C        0.674   0.6983   0.0814     C
H       0.6761   0.9027   0.1378     H
C       0.6764    0.694   0.0223     C
C       0.6768   0.7458   0.3575     C
H       0.6773   0.6925   0.0025     H
C       0.6775   0.7432   0.3289     C
O       0.6791   0.1329   0.2399     O
O       0.6804   0.1268   0.7968     O
O       0.6814   0.6206   0.2862     O
H       0.6817   0.3525   0.2266     H
C       0.6821   0.4666   0.7412     C
C       0.6842   0.2777   0.3038     C
C       0.6845   0.6982   0.5025     C
Cu     0.68653  0.24886  0.15644    Cu
C       0.6878   0.0815   0.9085     C
H        0.688   0.4384   0.9525     H
C       0.6885   0.5989   0.5955     C
C       0.6893   0.8745   0.1119     C
C       0.6894   0.1145   0.8997     C
C       0.6896   0.7278   0.2663     C
C       0.6897   0.4612   0.9475     C
C       0.6913   0.2857   0.7251     C
H       0.6925   0.0025   0.6773     H
C        0.694   0.0223   0.6764     C
C       0.6962   0.3158   0.7223     C
C       0.6963   0.7165   0.2372     C
C       0.6982   0.5025   0.6845     C
C       0.6983   0.0814    0.674     C
C        0.699   0.3736   0.3444     C
C       0.6998   0.3758   0.7203     C
H       0.7014   0.3954   0.7196     H
C       0.7018   0.1122   0.6722     C
C        0.702   0.8715   0.1306     C
O       0.7032   0.3732   0.8196     O
H       0.7038   0.1736   0.8814     H
C       0.7058   0.9128   0.4893     C
C       0.7063   0.6736   0.1576     C
H       0.7076   0.9071   0.5126     H
C        0.708   0.6641   0.1319     C
Cu     0.70865  0.14265  0.24505    Cu
O       0.7098   0.2669   0.6059     O
H       0.7112    0.841   0.1104     H
O       0.7138   0.3186   0.3794     O
C       0.7143   0.2749   0.3087     C
C       0.7165   0.2372   0.6963     C
C       0.7166   0.6515   0.0693     C
H       0.7181   0.0685   0.8802     H
C       0.7185   0.6482   0.0409     C
H       0.7196   0.7014   0.3954     H
H       0.7199   0.2436   0.3425     H
C       0.7203   0.6998   0.3758     C
O       0.7204   0.2569   0.1581     O
O       0.7213   0.7725   0.1091     O
C       0.7223   0.6962   0.3158     C
O       0.7237   0.1569   0.6676     O
C       0.7243   0.4052   0.7646     C
C       0.7251   0.6913   0.2857     C
H       0.7255   0.8993   0.4266     H
H       0.7266   0.8525   0.1817     H
O       0.7275   0.7787   0.3909     O
C       0.7278   0.2663   0.6896     C
H       0.7293   0.5804   0.5738     H
H         0.73   0.3416   0.2373     H
H       0.7322   0.0197   0.8577     H
O       0.7331   0.3941   0.2902     O
C       0.7334   0.4725   0.9017     C
C       0.7337   0.3104   0.2722     C
O        0.734   0.1697   0.2371     O
C       0.7341   0.1654   0.8495     C
C       0.7344   0.1358   0.8492     C
C       0.7354   0.0948   0.7757     C
H       0.7354   0.1179   0.6413     H
H       0.7356   0.4931   0.8992     H
H        0.737   0.6284     0.13     H
O       0.7371   0.6697    0.234     O
C       0.7372   0.2165   0.1963     C
H       0.7373   0.8416     0.23     H
H       0.7379   0.4862   0.6594     H
O       0.7399   0.6329   0.1791     O
C       0.7412   0.6821   0.4666     C
O       0.7431   0.8419   0.2796     O
C       0.7432   0.3289   0.6775     C
C       0.7435    0.064   0.6308     C
H       0.7436   0.2199   0.8425     H
C       0.7448    0.033   0.6303     C
Cu     0.74505  0.64265  0.20865    Cu
C       0.7458   0.3575   0.6768     C
H       0.7459   0.6204   0.0813     H
Cu     0.74886  0.18653  0.65644    Cu
Cu     0.75114  0.84356  0.31347    Cu
H       0.7541   0.4187   0.8796     H
C       0.7542   0.8232   0.1425     C
Cu     0.75495  0.29135  0.85735    Cu
C       0.7552   0.8697    0.467     C
H       0.7564   0.6575   0.2801     H
C       0.7565   0.8692    0.436     C
C       0.7568   0.8225   0.1711     C
O       0.7569   0.2204   0.6581     O
C       0.7588   0.0334   0.8179     C
O       0.7601   0.3209   0.8671     O
H       0.7621   0.8406   0.0138     H
H       0.7627     0.27   0.6584     H
C       0.7628   0.3037   0.2835     C
O       0.7629    0.266   0.8303     O
H        0.763     0.37   0.8716     H
H       0.7644   0.6008   0.0069     H
C       0.7646   0.7243   0.4052     C
H       0.7646   0.8587   0.3821     H
C       0.7656   0.6508   0.3642     C
C       0.7659   0.6505   0.3346     C
O        0.766   0.2629   0.3303     O
C       0.7663   0.2278   0.1896     C
C       0.7666   0.5983   0.0275     C
O       0.7669   0.2098   0.1059     O
H       0.7678   0.6423   0.4803     H
H         0.77   0.2627   0.1584     H
H       0.7707   0.9262   0.9196     H
C       0.7722   0.8104   0.2337     C
O       0.7725   0.1091   0.7213     O
H       0.7734   0.3183   0.6475     H
H       0.7745   0.0734   0.6007     H
C       0.7749   0.2143   0.8087     C
C       0.7757   0.7354   0.0948     C
O       0.7763   0.8324   0.3431     O
C       0.7777   0.1842   0.8038     C
O       0.7787   0.3909   0.7275     O
O       0.7796   0.3419   0.2431     O
C       0.7797   0.1242   0.8002     C
H       0.7801   0.1575   0.2564     H
H       0.7804   0.1046   0.7986     H
C       0.7815   0.4591   0.8518     C
H       0.7819   0.6198   0.4315     H
C       0.7834   0.4307   0.8485     C
C       0.7835   0.8037   0.2628     C
C       0.7857   0.1913   0.2251     C
O       0.7862   0.1206   0.1814     O
H       0.7888   0.3896    0.659     H
O       0.7902   0.8941   0.2331     O
Cu     0.79135  0.25495  0.35735    Cu
C        0.792   0.3681   0.8359     C
H       0.7924   0.9874   0.5929     H
C       0.7937   0.3424   0.8264     C
C       0.7942   0.0107   0.5872     C
H       0.7962   0.6186   0.3264     H
O       0.7968   0.6804   0.1268     O
C        0.798   0.3694   0.6285     C
C       0.7982   0.8278   0.3878     C
H       0.7986   0.7804   0.1046     H
C       0.8002   0.7797   0.1242     C
C        0.801   0.1556   0.1264     C
C       0.8017    0.826   0.4186     C
C       0.8018   0.8155   0.9975     C
C       0.8037   0.2628   0.7835     C
C       0.8038   0.7777   0.1842     C
C        0.806   0.8236   0.4777     C
H       0.8075   0.8227   0.4975     H
C       0.8087   0.7749   0.2143     C
C       0.8103   0.5525   0.0388     C
C       0.8104   0.2337   0.7722     C
C       0.8106   0.6003   0.3855     C
C       0.8107   0.3881   0.6255     C
C       0.8115   0.9045   0.9011     C
H        0.812   0.5475   0.0616     H
C       0.8122   0.5915   0.4185     C
Cu     0.81347  0.34356  0.25114    Cu
C       0.8155   0.9975   0.8018     C
C       0.8158   0.1962   0.2223     C
C       0.8179   0.7588   0.0334     C
H       0.8183   0.2734   0.1475     H
O       0.8186   0.2138   0.8794     O
O       0.8196   0.7032   0.3732     O
O       0.8209   0.2601   0.3671     O
C       0.8225   0.1711   0.7568     C
H       0.8227   0.4975   0.8075     H
C       0.8232   0.1425   0.7542     C
C       0.8236   0.4777    0.806     C
H       0.8239   0.3622   0.5973     H
C        0.826   0.4186   0.8017     C
H       0.8264   0.1186   0.2962     H
C       0.8264   0.7937   0.3424     C
C       0.8278   0.3878   0.7982     C
C       0.8289   0.2432   0.1775     C
O       0.8303   0.7629    0.266     O
O       0.8324   0.3431   0.7763     O
C       0.8346   0.1505   0.2659     C
C       0.8359    0.792   0.3681     C
C       0.8385   0.8452   0.9339     C
C       0.8402   0.0201   0.5421     C
H       0.8403    0.955   0.1275     H
H       0.8406   0.0138   0.7621     H
H        0.841   0.1104   0.7112     H
H       0.8415   0.5717   0.3728     H
H       0.8416     0.23   0.7373     H
H       0.8418   0.0445   0.5351     H
O       0.8419   0.2796   0.7431     O
C       0.8424   0.2937   0.3264     C
H       0.8425   0.7436   0.2199     H
O       0.8431   0.3324   0.2763     O
Cu     0.84356  0.31347  0.75114    Cu
C       0.8444   0.8736    0.199     C
C       0.8452   0.9339   0.8385     C
C       0.8485   0.7834   0.4307     C
C       0.8492   0.7344   0.1358     C
C       0.8495   0.7341   0.1654     C
C       0.8518   0.7815   0.4591     C
O       0.8524   0.5377   0.4726     O
H       0.8525   0.1817   0.7266     H
O       0.8567   0.4352   0.5736     O
O       0.8568   0.5094   0.9922     O
Cu     0.85735  0.75495  0.29135    Cu
C       0.8575   0.2458   0.1768     C
H       0.8577   0.7322   0.0197     H
C       0.8579   0.4081   0.5726     C
H       0.8587   0.3821   0.7646     H
H       0.8588   0.1105   0.9474     H
C        0.859   0.5393   0.4386     C
C       0.8595   0.5052   0.0201     C
C       0.8614   0.1334   0.0853     C
H       0.8622   0.3239   0.0973     H
C       0.8642   0.1508   0.2656     C
C       0.8666   0.9147   0.1386     C
O       0.8671   0.7601   0.3209     O
C       0.8681    0.292   0.3359     C
C       0.8692    0.436   0.7565     C
C       0.8694    0.298   0.1285     C
C       0.8697    0.467   0.7552     C
H         0.87    0.263   0.3716     H
C       0.8715   0.1306    0.702     C
H       0.8716    0.763     0.37     H
H       0.8725   0.1597    0.045     H
H       0.8726   0.0173   0.0309     H
H       0.8728   0.0717   0.3415     H
O       0.8732   0.2032   0.3196     O
C       0.8736    0.199   0.8444     C
C       0.8745   0.1119   0.6893     C
C       0.8758   0.1998   0.2203     C
O       0.8794   0.8186   0.2138     O
H       0.8796   0.7541   0.4187     H
H       0.8802   0.7181   0.0685     H
H       0.8814   0.7038   0.1736     H
H       0.8821   0.3587   0.2646     H
C       0.8855   0.1003   0.3106     C
O       0.8867   0.9649   0.5079     O
C       0.8878   0.3278   0.2982     C
C       0.8881   0.3107   0.1255     C
H       0.8895   0.0526   0.1412     H
H       0.8896   0.2888    0.159     H
O       0.8909   0.2787   0.2275     O
C       0.8921    0.994   0.4992     C
O       0.8941   0.2331   0.7902     O
O       0.8943   0.3952   0.0326     O
O       0.8952   0.3943   0.5326     O
H       0.8954   0.2014   0.2196     H
O       0.8982    0.499   0.4242     O
C       0.8992   0.0979   0.9217     C
H       0.8992   0.7356   0.4931     H
H       0.8993   0.4266   0.7255     H
C       0.8997   0.6894   0.1145     C
C       0.9011   0.8115   0.9045     C
C       0.9017   0.7334   0.4725     C
C       0.9021   0.0783   0.1008     C
H       0.9027   0.1378   0.6761     H
O       0.9028    0.467   0.0313     O
C       0.9045   0.9011   0.8115     C
Cu     0.90475  0.47452  0.50695    Cu
C       0.9052   0.2243   0.2646     C
H       0.9071   0.5126   0.7076     H
C       0.9081   0.3579   0.0726     C
C       0.9085   0.6878   0.0815     C
C       0.9128   0.4893   0.7058     C
C       0.9131   0.9998   0.0077     C
C       0.9147   0.1386   0.8666     C
C       0.9185   0.0915   0.3122     C
C       0.9186    0.326   0.3017     C
H       0.9187   0.2541   0.3796     H
H       0.9196   0.7707   0.9262     H
C       0.9217   0.8992   0.0979     C
O       0.9242    0.999   0.3982     O
Cu     0.92535  0.45557   0.9559    Cu
H       0.9262   0.9196   0.7707     H
O       0.9264   0.0648   0.6433     O
H       0.9266   0.3993   0.2255     H
C       0.9274   0.0919   0.6421     C
H       0.9283   0.6585   0.1272     H
C       0.9307   0.2834   0.3485     C
H       0.9315   0.1198   0.2819     H
O       0.9324   0.0084     0.46     O
C       0.9339   0.8385   0.8452     C
O       0.9352   0.3567   0.0736     O
C        0.936   0.3692   0.2565     C
H       0.9384    0.188   0.4525     H
C       0.9386   0.0393    0.359     C
C       0.9391   0.0336   0.9479     C
H       0.9474   0.8588   0.1105     H
C       0.9475   0.6897   0.4612     C
C       0.9479   0.9391   0.0336     C
H       0.9525    0.688   0.4384     H
H        0.955   0.1275   0.8403     H
H       0.9555   0.4649   0.1582     H
Cu     0.95557  0.42535   0.4559    Cu
Cu      0.9559  0.92535  0.45557    Cu
C       0.9579   0.4799   0.6598     C
C       0.9591   0.2815   0.3518     C
O         0.96   0.5084   0.4324     O
C       0.9607    0.641   0.0614     C
C       0.9612   0.1897   0.4475     C
O       0.9623   0.6476   0.0274     O
H       0.9649   0.4555   0.6582     H
O       0.9649   0.5079   0.8867     O
C       0.9664   0.0521   0.0609     C
C       0.9666   0.1821   0.2412     C
C        0.967   0.3697   0.2552     C
O        0.967   0.4028   0.5313     O
O       0.9674   0.1057   0.6048     O
O       0.9687   0.0972    0.533     O
H       0.9691   0.1274   0.9827     H
C       0.9725   0.2334   0.4017     C
O       0.9726   0.0377   0.3524     O
Cu     0.97452  0.40475  0.00695    Cu
C       0.9777   0.3236    0.306     C
C       0.9799   0.1405   0.4948     C
C       0.9799   0.4579   0.1598     C
H       0.9803   0.1423   0.2678     H
H       0.9827   0.9691   0.1274     H
H       0.9862   0.2379   0.1594     H
H       0.9874   0.5929   0.7924     H
C       0.9893   0.4128   0.2058     C
O       0.9906   0.6432   0.5078     O
O       0.9916     0.54   0.0676     O
O       0.9921   0.5351   0.6133     O
O       0.9922   0.8568   0.5094     O
C       0.9923   0.0869   0.0002     C
Cu     0.99305  0.02548  0.59525    Cu
H       0.9931   0.2356   0.3992     H
C        0.994   0.4992   0.8921     C
C       0.9948   0.6405   0.4799     C
H       0.9975   0.3227   0.3075     H
C       0.9975   0.8018   0.8155     C
O        0.999   0.3982   0.9242     O
C       0.9992    0.494   0.3921     C
C       0.9998   0.0077   0.9131     C
