data_I
_chemical_name_common  '/home/zhangsd/repos/MofS-CGCNN/ML/data/TSD/clean_cifs/AYUJIP_clean'
_cell_length_a 47.89900
_cell_length_b 47.89900
_cell_length_c 14.17780
_cell_angle_alpha 90.00000
_cell_angle_beta  90.00000
_cell_angle_gamma 120.00000
_space_group_name_H-M_alt      'P 1'


loop_
_space_group_symop_operation_xyz
  'x, y, z' 

loop_
_atom_site_label
_atom_site_fract_x
_atom_site_fract_y
_atom_site_fract_z
_atom_site_type_symbol
O      0.00024  0.49257   0.9112     O
C      0.00037  0.75123  0.33653     C
H        0.001   0.4054   0.0552     H
O      0.00113  0.45897    0.244     O
H       0.0012   0.5679   0.5668     H
O      0.00211   0.5554   0.9657     O
O      0.00253  0.48055   0.6969     O
H       0.0027   0.5103   0.4375     H
O      0.00304  0.43668   0.8389     O
H       0.0033   0.3972   0.8807     H
C      0.00397  0.28213  0.25393     C
C      0.00437  0.56459   0.7058     C
H      0.00553  0.23687  0.62167     H
H      0.00593  0.26947  0.63657     H
C      0.00617  0.24143  0.32693     C
C      0.00907  0.28993  0.33223     C
H      0.01023  0.25157  0.72307     H
H      0.01117  0.63173  0.29793     H
H      0.01207  0.29433  0.19693     H
C      0.01247  0.26193  0.39503     C
C       0.0131  0.43781   0.3803     C
C      0.01476  0.49705   0.6068     C
C      0.01586  0.42822   0.0467     C
H      0.01667  0.22883  0.32493     H
C      0.01922   0.4197   0.8712     C
C      0.01963  0.75307  0.58647     C
H      0.01987  0.31303  0.32813     H
H       0.0203   0.3735   0.9948     H
Mn     0.02032  0.57168  0.30257    Mn
H      0.02147  0.62153  0.43093     H
H       0.0216   0.4235   0.3768     H
O      0.02253  0.43303   0.6339     O
H       0.0243   0.5199   0.6158     H
H      0.02497  0.24273  0.95213     H
C      0.02504  0.27931  0.31783     C
C      0.02543  0.72597  0.64417     C
H      0.02667  0.26023  0.43943     H
H      0.02723  0.76497  0.52857     H
Mn     0.02846  0.56237  0.07671    Mn
O      0.02848  0.59086   0.7318     O
H       0.0289   0.4362   0.1033     H
Mn     0.02893  0.49948  0.01512    Mn
C      0.03023  0.73467  0.72207     C
C      0.03043  0.77377  0.65047     C
H       0.0305   0.4595   0.3877     H
H       0.0307   0.4923   0.5829     H
Mn     0.03079  0.50977  0.23803    Mn
C      0.03387  0.64123  0.31083     C
H       0.0339   0.4208   0.8222     H
H      0.03493  0.71277  0.63127     H
C      0.03627  0.76943  0.32183     C
H      0.03667  0.90583  0.34553     H
H      0.03747  0.26823  0.87043     H
Mn     0.03763  0.49008  0.79972    Mn
C      0.03777  0.63643  0.38873     C
C      0.03804  0.43297   0.9617     C
H        0.039   0.3844   0.8636     H
H      0.04017  0.68653  0.33853     H
N      0.04106  0.75195  0.64417     N
Mn     0.04304  0.57158  0.85577    Mn
C       0.0434   0.3858   0.9989     C
C      0.04357  0.25763  0.91653     C
N      0.04422   0.6256  0.31083     N
H      0.04513  0.73327  0.76427     H
H      0.04523  0.79657  0.64777     H
H       0.0461   0.3445   0.0354     H
O        0.047  0.77835  0.24033     O
N      0.04832  0.91753  0.47383     N
C      0.04877  0.90463  0.39513     C
H      0.05107  0.67873  0.46973     H
C       0.0512   0.3885   0.9206     C
O      0.05131  0.56301   0.1901     O
C      0.05152  0.45273   0.6472     C
C      0.05247  0.67573  0.33443     C
H      0.05257  0.24613  0.88523     H
O      0.05293  0.77476  0.39633     O
H      0.05357  0.29943  0.15553     H
C      0.05402  0.41239   0.9845     C
O      0.05517  0.61374    0.063     O
C      0.05517  0.67063  0.41273     C
H      0.05537  0.25283  0.24133     H
O      0.05599  0.49121   0.9335     O
O      0.05599  0.55509   0.9943     O
O      0.05605  0.50781   0.1234     O
C       0.0593   0.3672   0.0225     C
H      0.06057  0.33003  0.21403     H
O      0.06153  0.54109   0.7877     O
C       0.0616  0.29529  0.29503     C
O      0.06334   0.4746   0.7119     O
H      0.06377  0.25673  0.34883     H
H      0.06387  0.40313  0.30323     H
H      0.06387  0.72723  0.45263     H
H      0.06387  0.92193  0.61023     H
C      0.06397  0.91353  0.55113     C
O      0.06469  0.61967    0.907     O
H       0.0651   0.4359   0.5371     H
C      0.06532  0.46788   0.9556     C
H      0.06537  0.82583  0.50443     H
C      0.06607  0.88923  0.37923     C
C       0.0665   0.6304   0.9885     C
H       0.0666   0.3548   0.9024     H
H      0.06667  0.88173  0.31913     H
C      0.06677  0.64703  0.25313     C
C      0.06715  0.31411  0.20453     C
C      0.06788  0.28181  0.98053     C
C        0.068   0.3711   0.9446     C
H      0.06857  0.31173  0.71013     H
C      0.06923  0.26801  0.28893     C
H       0.0698   0.6726   0.0301     H
H      0.07107  0.33233  0.38853     H
H      0.07107  0.63943  0.19523     H
C       0.0714   0.4172   0.0617     C
H      0.07207  0.73773  0.27813     H
H      0.07217  0.83743  0.32933     H
H       0.0731   0.4331   0.1061     H
H      0.07397  0.30443  0.43663     H
O      0.07475  0.83514  0.11733     O
C       0.0757   0.4526   0.5832     C
O      0.07581  0.77095  0.06513     O
H       0.0766   0.4737   0.0155     H
C      0.07667  0.63623  0.31713     C
O      0.07717   0.3108  0.96723     O
O      0.07793  0.26999  0.04523     O
H      0.07807  0.14193  0.61023     H
C      0.07903  0.31747  0.38003     C
C      0.07906   0.6917  0.34883     C
C      0.07937  0.89683  0.53513     C
H       0.0805   0.4692    0.908     H
H      0.08177  0.42533  0.38973     H
C      0.08226  0.88483  0.45273     C
N      0.08247  0.13078  0.47383     N
C      0.08387  0.67913  0.27163     C
C       0.0842   0.6663   0.0032     C
C      0.08457  0.41753  0.33013     C
H      0.08467  0.62143  0.31443     H
N      0.08528  0.37755   0.0225     N
C      0.08552  0.57862   0.1842     C
C      0.08637  0.73381  0.46213     C
C       0.0864   0.4001   0.0802     C
C      0.08647  0.15043  0.55113     C
C       0.0867   0.5632   0.7595     C
H       0.0872   0.4731   0.5519     H
H      0.08747  0.72023  0.51113     H
C      0.08805  0.84023  0.51753     C
H      0.08887  0.89313  0.58713     H
H      0.08957  0.85003  0.57863     H
C       0.0897   0.5305   0.1211     C
C      0.08988  0.57156   0.0057     C
H      0.09017  0.73523  0.95653     H
H       0.0906   0.4489   0.6188     H
C      0.09138  0.32023  0.71363     C
C       0.0919   0.4314   0.9936     C
H        0.092   0.6769   0.9436     H
H      0.09237  0.23413  0.40263     H
O      0.09373  0.59192    0.784     O
H       0.0938   0.5771   0.2453     H
H       0.0938   0.6013   0.1711     H
H      0.09417  0.13083  0.34553     H
C      0.09489  0.74569  0.28663     C
Mn     0.09499  0.78197   0.6359    Mn
Mn     0.09509  0.80479   0.1891    Mn
C      0.09511  0.85165  0.33903     C
C      0.09537  0.14413  0.39513     C
H      0.09567  0.30283  0.72103     H
H      0.09577  0.23403  0.51233     H
H      0.09647  0.43533  0.28833     H
H      0.09787  0.87533  0.97173     H
C      0.09807  0.67283  0.33973     C
H       0.0983   0.4044   0.1381     H
C      0.09858  0.56526     0.11     C
H       0.0986   0.5945    0.996     H
H      0.09877  0.76663  0.90013     H
H       0.0992   0.5249   0.0693     H
H       0.0993   0.5284    0.179     H
H       0.0994   0.5639   0.9594     H
H       0.0996   0.5354   0.6867     H
C      0.09964  0.72826  0.37163     C
O       0.0997  0.74383  0.69943     O
H      0.09977  0.69333  0.22723     H
H      0.09997  0.33453  0.76653     H
H      0.09997  0.89583  0.06043     H
O      0.10031  0.33029  0.17223     O
C      0.10141  0.86665  0.44333     C
O      0.10189  0.27734  0.26683     O
H        0.102   0.6722    0.045     H
C      0.10208  0.77311  0.03913     C
H      0.10247  0.23373  0.02003     H
H      0.10257  0.70413  0.79623     H
C      0.10277  0.39983  0.34483     C
H      0.10277  0.86883  0.29273     H
H      0.10287  0.74063  0.23003     H
C      0.10317  0.18253  0.53513     C
O      0.10335  0.76697  0.49443     O
C      0.10347  0.85683  0.09283     C
O      0.10366  0.82163  0.52343     O
H      0.10417  0.20413  0.06043     H
O      0.10429  0.36181  0.60153     O
Mn      0.1043  0.79942  0.41004    Mn
C      0.10448  0.75804  0.95303     C
H       0.1045   0.4545   0.9916     H
C      0.10645   0.3377  0.62753     C
H      0.10687  0.19573  0.58713     H
C       0.1071     0.41   0.0162     C
C      0.10747  0.24363  0.45443     C
O       0.1081   0.3885  0.27033     O
C       0.1085   0.5581   0.6975     C
C      0.10857  0.88373  0.03083     C
C      0.11077  0.17683  0.37923     C
H       0.1108   0.5688   0.6384     H
O      0.11127  0.78004  0.29903     O
O      0.11158  0.83423  0.32763     O
O      0.11169  0.39802  0.42633     O
O      0.11338  0.33544  0.36763     O
C      0.11517  0.19742  0.45273     C
Mn     0.11531  0.35365  0.03076    Mn
H      0.11557  0.69163  0.71453     H
C      0.11627  0.22483  0.03083     C
H      0.11827  0.18493  0.31913     H
O      0.11843  0.27728  0.45673     O
Mn     0.11912   0.2957  0.13305    Mn
C      0.11927  0.71023  0.75013     C
C       0.1194  0.73454  0.68613     C
H      0.12117  0.68333  0.34173     H
O      0.12451   0.3322  0.57733     O
H      0.12467  0.22253  0.97173     H
O      0.12558  0.85377  0.12103     O
O      0.12564  0.79117  0.08933     O
H      0.12617  0.76233  0.94563     H
H      0.12827  0.30263  0.91623     H
H       0.1292   0.5667   0.7271     H
H       0.1299    0.418   0.0189     H
N      0.13078  0.04832  0.52617     N
H      0.13083  0.03667  0.65447     H
H      0.13117  0.23393  0.29273     H
H      0.13127  0.89753  0.02003     H
Mn     0.13276  0.36179  0.25662    Mn
C      0.13335  0.23475  0.44333     C
C      0.13455  0.73589  0.37773     C
H      0.13587  0.72203  0.42533     H
C      0.13591  0.58441   0.1194     C
C      0.13617  0.89253  0.45443     C
Mn     0.13722   0.3044  0.34845    Mn
H       0.1376   0.5778   0.2538     H
Mn     0.13813  0.37637  0.47756    Mn
H      0.13827  0.90423  0.51233     H
H      0.13977  0.71923  0.78143     H
H      0.14037  0.73043  0.31783     H
O      0.14127  0.74459  0.62143     O
H      0.14177  0.90763  0.40263     H
H      0.14193  0.06387  0.38977     H
C      0.14317  0.24663  0.09283     C
C      0.14413  0.04877  0.60487     C
O      0.14469   0.3308  0.03023     O
Mn     0.14565  0.30254  0.57136    Mn
O      0.14623   0.2718  0.12103     O
H      0.14677  0.83773  0.94913     H
O      0.14722  0.81135  0.63643     O
C      0.14835  0.24345  0.33903     C
H       0.1484      0.6   0.9858     H
C      0.14896  0.31857  0.94013     C
H      0.14997  0.23953  0.57863     H
C      0.15043  0.06397  0.44887     C
C       0.1508   0.5873   0.2018     C
O      0.15497  0.38464  0.14323     O
H      0.15637  0.82573  0.77083     H
C       0.1565   0.6006   0.0459     C
Mn     0.15675  0.78578  0.53361    Mn
Mn      0.1569  0.85435  0.57136    Mn
O      0.15788  0.76855  0.39983     O
O      0.15886  0.88157  0.45673     O
H      0.15897  0.79493  0.75043     H
O        0.159  0.33309  0.24453     O
H      0.15907  0.33603  0.89583     H
H      0.15917  0.42713  0.16223     H
O      0.15924  0.82566  0.42213     O
C      0.15977  0.24781  0.51753     C
H      0.16227  0.30903  0.94913     H
H      0.16257  0.23473  0.32933     H
C      0.16372  0.81562  0.72653     C
O      0.16486   0.2396  0.11733     O
O      0.16577  0.27734  0.32763     O
Mn     0.16615  0.80388  0.31821    Mn
Mn     0.16719  0.86278  0.34845    Mn
O      0.16757  0.38932  0.33903     O
O      0.16848  0.42706  0.54933     O
C      0.16962  0.85104  0.94013     C
H      0.17077  0.43193  0.33733     H
H      0.17107  0.35763  0.71753     H
C      0.17357  0.41885  0.14913     C
O       0.1741    0.841  0.24453     O
H      0.17417  0.23953  0.50443     H
H      0.17427  0.33063  0.77083     H
O      0.17434  0.33357  0.42213     O
H      0.17437  0.87173  0.91623     H
O      0.17448  0.78509  0.20993     O
O      0.17546  0.89811  0.26683     O
Mn     0.17644  0.81231   0.0953    Mn
Mn     0.17659  0.88088  0.13305    Mn
C      0.17683  0.06607  0.62077     C
H      0.17697  0.84093  0.89583     H
O      0.17837  0.28202  0.52343     O
C      0.18253  0.07937  0.46487     C
C       0.1829   0.6027   0.2178     C
H      0.18337  0.42713  0.08803     H
C      0.18438  0.34809  0.72653     C
H      0.18493  0.06667  0.68087     H
C      0.18499  0.42321  0.32763     C
O      0.18612  0.85531  0.03023     O
H      0.18657  0.82893  0.71753     H
O      0.18711  0.39486  0.54563     O
Mn     0.18769  0.36412   0.0953    Mn
O      0.18865  0.33586  0.63643     O
C       0.1892   0.6179   0.0618     C
C      0.19017  0.42003  0.57383     C
H       0.1914   0.6028   0.2769     H
H      0.19157  0.75903  0.26403     H
O      0.19207  0.92207  0.04523     O
H      0.19297  0.93623  0.34883     H
H      0.19357  0.94743  0.88523     H
H      0.19507  0.76243  0.15433     H
Mn     0.19521  0.29029   0.1891    Mn
H      0.19573  0.08887  0.41287     H
Mn     0.19612  0.36226  0.31821    Mn
C      0.19717  0.77413  0.21223     C
C      0.19742  0.08226  0.54727     C
H      0.19747  0.94463  0.24133     H
C      0.19879  0.93077  0.28893     C
C      0.19999  0.43191  0.22333     C
Mn     0.20058  0.30487  0.41004    Mn
H      0.20207  0.76913  0.64663     H
H      0.20217  0.43273  0.37393     H
H       0.2025     0.63   0.0122     H
N      0.20255  0.61835   0.1405     N
H      0.20343  0.24867  0.64777     H
H      0.20413  0.09997  0.93957     H
H      0.20507  0.36403  0.75043     H
H      0.20717  0.90433  0.72103     H
O       0.2077  0.87549  0.57733     O
O      0.20776  0.81289  0.54563     O
H      0.20867  0.44413  0.69493     H
O      0.20883  0.33446  0.08933     O
H      0.21217  0.98333  0.32493     H
C      0.21394  0.93212  0.98053     C
C      0.21407  0.95643  0.91653     C
Mn     0.21422  0.37096  0.53361    Mn
O      0.21491  0.38938  0.20993     O
H      0.21507  0.48173  0.34753     H
C      0.21707  0.44183  0.63583     C
H      0.21777  0.97503  0.95213     H
Mn     0.21803  0.31301   0.6359    Mn
C      0.21817  0.46924  0.21393     C
O      0.21996  0.33122  0.29903     O
O      0.22165  0.26864  0.24033     O
O      0.22176  0.83243  0.33903     O
O      0.22207  0.88662  0.36763     O
H      0.22253  0.09787  0.02827     H
C      0.22257  0.48983  0.28743     C
C      0.22477  0.78293  0.63583     C
C      0.22483  0.10857  0.96917     C
O      0.22524  0.27816  0.39633     O
C      0.22587  0.42303  0.21223     C
C      0.22623  0.25667  0.65047     C
H      0.22647  0.47093  0.07953     H
C      0.22689  0.32896  0.03913     C
H      0.22883  0.21217  0.67507     H
C      0.22886  0.90862  0.71363     C
Mn     0.22904  0.86724  0.25662    Mn
O      0.22905  0.30485  0.06513     O
H      0.22917  0.46253  0.60623     H
O      0.22968  0.84503  0.14323     O
C      0.22987  0.80983  0.57383     C
O      0.22999  0.89969  0.17223     O
C      0.23017  0.48413  0.13153     C
H      0.23047  0.92603  0.43663     H
C      0.23057  0.26683  0.32183     C
H      0.23057  0.79783  0.37393     H
H      0.23077  0.96253  0.87043     H
H      0.23087  0.43293  0.64663     H
C      0.23126  0.89355  0.62753     C
H      0.23133  0.99447  0.62167     H
O      0.23145  0.38932  0.39983     O
C      0.23193  0.80001  0.22333     C
O      0.23303  0.33637  0.49443     O
H      0.23337  0.33213  0.90013     H
H      0.23337  0.77083  0.60623     H
H      0.23357  0.97333  0.43943     H
O      0.23364  0.92283  0.96723     O
C       0.2337   0.9384  0.29503     C
H      0.23373  0.13127  0.97997     H
H      0.23393  0.10277  0.70727     H
H      0.23403  0.13827  0.48767     H
H      0.23413  0.14177  0.59737     H
H      0.23457  0.90003  0.76653     H
H      0.23473  0.07217  0.67067     H
C      0.23475  0.10141  0.55667     C
H      0.23503  0.26227  0.52857     H
C      0.23527  0.99383  0.32693     C
H      0.23547  0.79133  0.69493     H
H      0.23687  0.23133  0.37833     H
H      0.23757  0.43263  0.15433     H
H      0.23767  0.36383  0.94563     H
C      0.23797  0.52253  0.27153     C
C      0.23823  0.81501  0.32763     C
Mn     0.23825  0.86187  0.47756    Mn
Mn     0.23835  0.88469  0.03076    Mn
C      0.23845  0.92097  0.38003     C
H      0.23917  0.53583  0.32113     H
H      0.23953  0.06537  0.49557     H
H      0.23953  0.08957  0.42137     H
O       0.2396  0.07475  0.88267     O
H      0.24097  0.43253  0.26403     H
H      0.24133  0.98977  0.72307     H
C      0.24143  0.23527  0.67307     C
C      0.24196  0.34643  0.95303     C
H      0.24273  0.21777  0.04787     H
H      0.24317  0.93143  0.71013     H
C      0.24345  0.09511  0.66097     C
C      0.24363  0.13617  0.54557     C
H      0.24377  0.81663  0.08803     H
H      0.24447  0.77353  0.07953     H
C      0.24529  0.82643  0.14913     C
H      0.24587  0.94643  0.15553     H
H      0.24613  0.19357  0.11477     H
C      0.24663  0.10347  0.90717     C
C      0.24687  0.51623  0.11553     C
C      0.24693  0.26657  0.58647     C
C      0.24697  0.93285  0.20453     C
C      0.24781  0.08805  0.48247     C
N      0.24805  0.28912  0.64417     N
H      0.24867  0.04523  0.35223     H
C      0.24877  0.24913  0.33653     C
C      0.24913  0.00037  0.66347     C
C      0.24947  0.98753  0.39503     C
N      0.25087  0.53588  0.19283     N
C      0.25108  0.78183  0.21393     C
H      0.25157  0.24133  0.27693     H
H      0.25283  0.19747  0.75867     H
C      0.25397  0.76983  0.13153     C
C      0.25428  0.97496  0.31783     C
C      0.25431  0.34919  0.28663     C
H      0.25527  0.52473  0.05643     H
O      0.25541  0.39667  0.62143     O
O      0.25617  0.35586  0.69943     O
C      0.25667  0.03043  0.34953     C
H      0.25673  0.19297  0.65117     H
O      0.25753  0.89571  0.60153     O
C      0.25763  0.21407  0.08347     C
O      0.25859  0.83152  0.54933     O
H      0.25937  0.36223  0.23003     H
H      0.26023  0.23357  0.56057     H
H      0.26117  0.82923  0.33733     H
H      0.26127  0.92893  0.38853     H
C      0.26193  0.24947  0.60497     C
H      0.26227  0.02723  0.47143     H
H      0.26227  0.33433  0.27813     H
H      0.26353  0.99407  0.63657     H
C      0.26411  0.39865  0.37773     C
H      0.26477  0.35493  0.95653     H
C      0.26533  0.29557  0.72207     C
C      0.26546  0.38485  0.68613     C
C      0.26619  0.35255  0.46213     C
C      0.26657  0.01963  0.41353     C
H      0.26667  0.78493  0.34753     H
H      0.26673  0.31187  0.76427     H
C      0.26683  0.03627  0.67817     C
C      0.26727  0.77743  0.28743     C
H      0.26797  0.84083  0.16223     H
C      0.26801  0.19879  0.71107     C
H      0.26823  0.23077  0.12957     H
O      0.26864    0.047  0.75967     O
C      0.26937  0.75313  0.11553     C
H      0.26947  0.26353  0.36343     H
H      0.26947  0.74473  0.05643     H
H      0.26947  0.93943  0.21403     H
H      0.26957  0.40993  0.31783     H
O      0.26999  0.19207  0.95477     O
C      0.27174  0.37137  0.37163     C
O       0.2718  0.12558  0.87897     O
H      0.27277  0.33663  0.45263     H
C      0.27403  0.29947  0.64417     C
O      0.27728  0.15886  0.54327     O
O      0.27734  0.11158  0.67237     O
O      0.27734  0.17546  0.73317     O
H      0.27797  0.41383  0.42533     H
O      0.27816  0.05293  0.60367     O
C      0.27817  0.99603  0.25393     C
C      0.27931  0.25428  0.68217     C
H      0.27977  0.36723  0.51113     H
O      0.28041   0.8919  0.27033     O
H      0.28077  0.42053  0.78143     H
C      0.28087  0.99093  0.33223     C
C      0.28181  0.21394  0.01947     C
O      0.28202  0.10366  0.47657     O
C      0.28213  0.27817  0.74607     C
H      0.28227  0.98793  0.19693     H
C      0.28457  0.76203  0.27153     C
N      0.28502  0.74913  0.19283     N
O      0.28634  0.88831  0.42633     O
H      0.28723  0.32217  0.63127     H
H       0.2881   0.8701   0.0189     H
H       0.2882   0.9334   0.9024     H
N      0.28912  0.04106  0.35583     N
C      0.28977  0.40903  0.75013     C
C      0.28993  0.28087  0.66777     C
Mn     0.29029  0.09509   0.8109    Mn
N      0.29227  0.91472   0.0225     N
H      0.29317  0.98013  0.32813     H
H      0.29433  0.28227  0.80307     H
C      0.29529   0.2337  0.70497     C
C      0.29557  0.03023  0.27793     C
Mn      0.2957  0.17659  0.86695    Mn
H      0.29587  0.39843  0.79623     H
H      0.29667  0.76083  0.32113     H
C      0.29707  0.89723  0.34483     C
H       0.2984   0.9539   0.0354     H
H      0.29943  0.24587  0.84447     H
C      0.29947  0.02543  0.35583     C
Mn     0.30254   0.1569  0.42864    Mn
H      0.30263  0.17437  0.08377     H
H      0.30283  0.20717  0.27897     H
C       0.3029   0.8929   0.0162     C
C       0.3031    0.932   0.9446     C
Mn      0.3044  0.16719  0.65155    Mn
H      0.30443  0.23047  0.56337     H
O      0.30485  0.07581  0.93487     O
Mn     0.30487   0.1043  0.58996    Mn
H       0.3061   0.9017   0.1381     H
H      0.30667  0.40643  0.22723     H
C       0.3079   0.9407   0.0225     C
C       0.3083  0.38735  0.34883     C
H      0.30837  0.42393  0.71453     H
H      0.30903  0.14677  0.05087     H
O       0.3108  0.23364  0.03277     O
H      0.31173  0.24317  0.28987     H
H      0.31187  0.04513  0.23573     H
Mn     0.31301  0.09499   0.3641    Mn
H      0.31303  0.29317  0.67187     H
H      0.31347  0.35363  0.33853     H
C       0.3137   0.9136   0.0802     C
C      0.31411  0.24697  0.79547     C
H      0.31667  0.43783  0.34173     H
C      0.31747  0.23845  0.61997     C
C      0.31857  0.16962  0.05987     C
C      0.32023  0.22886  0.28637     C
C      0.32087  0.40473  0.27163     C
H      0.32127  0.37233  0.46973     H
H      0.32217  0.03493  0.36873     H
H       0.3231   0.4151   0.9436     H
C      0.32427  0.37673  0.33443     C
C      0.32717  0.42523  0.33973     C
H       0.3274   0.3972   0.0301     H
H       0.3278   0.4298    0.045     H
C      0.32896  0.10208  0.96087     C
C      0.32937  0.38453  0.41273     C
H      0.33003  0.26947  0.78597     H
O      0.33029  0.22999  0.82777     O
H      0.33063  0.15637  0.22917     H
O       0.3308  0.18612  0.96977     O
O      0.33122  0.11127  0.70097     O
H      0.33213  0.09877  0.09987     H
O       0.3322   0.2077  0.42267     O
H      0.33233  0.26127  0.61147     H
C      0.33297  0.91543  0.33013     C
O      0.33309   0.1741  0.75547     O
O      0.33357  0.15924  0.57787     O
C       0.3337   0.4179   0.0032     C
H      0.33433  0.07207  0.72187     H
O      0.33446  0.12564  0.91067     O
H      0.33453  0.23457  0.23347     H
O      0.33544  0.22207  0.63237     O
O      0.33586  0.14722  0.36357     O
H      0.33603  0.17697  0.10417     H
O      0.33637  0.10335  0.50557     O
H      0.33663  0.06387  0.54737     H
C       0.3373   0.9488   0.9206     C
C       0.3377  0.23126  0.37247     C
H      0.33887  0.90353  0.28833     H
H      0.33927  0.93613  0.30323     H
C       0.3395   0.9081   0.9936     C
C       0.3424   0.9566   0.9989     C
H      0.34357  0.91823  0.38973     H
H       0.3445   0.2984   0.9646     H
H       0.3454    0.961   0.8636     H
C       0.3458   0.9286   0.0617     C
C      0.34643  0.10448  0.04697     C
C      0.34809  0.16372  0.27347     C
C      0.34919  0.09489  0.71337     C
H         0.35   0.8955   0.9916     H
C      0.35255  0.08637  0.53787     C
C      0.35297  0.41973  0.25313     C
H       0.3532   0.9797   0.9948     H
H      0.35363  0.04017  0.66147     H
Mn     0.35365  0.23835  0.96924    Mn
H       0.3548   0.2882   0.0976     H
H      0.35493  0.09017  0.04347     H
O      0.35586   0.0997  0.30057     O
H      0.35763  0.18657  0.28247     H
H       0.3583   0.9094   0.6188     H
C      0.35837  0.94598   0.9845     C
C      0.35877  0.39263  0.31083     C
H         0.36   0.9269   0.1061     H
H      0.36057  0.43163  0.19523     H
Mn     0.36179  0.22904  0.74338    Mn
O      0.36181  0.25753  0.39847     O
H      0.36223  0.10287  0.76997     H
Mn     0.36226  0.16615  0.68179    Mn
C      0.36357  0.40133  0.38873     C
C      0.36377  0.44043  0.31713     C
H      0.36383  0.12617  0.05437     H
H      0.36403  0.15897  0.24957     H
Mn     0.36412  0.17644   0.9047    Mn
C       0.3672   0.3079   0.9775     C
H      0.36723  0.08747  0.48887     H
H      0.36827  0.37943  0.29793     H
C       0.3696   0.4361   0.9885     C
H         0.37   0.5725   0.0122     H
H       0.3708   0.9349   0.5371     H
Mn     0.37096  0.15675  0.46639    Mn
C       0.3711   0.3031   0.0554     C
C      0.37137  0.09964  0.62837     C
H      0.37233  0.05107  0.53027     H
H       0.3735   0.3532   0.0052     H
N       0.3744  0.41861  0.31083     N
Mn     0.37637  0.23825  0.52244    Mn
C      0.37673  0.05247  0.66557     C
C       0.3769   0.9243   0.5832     C
N      0.37755  0.29227   0.9775     N
H      0.37847  0.39993  0.43093     H
H      0.37857  0.46323  0.31443     H
H      0.37943  0.01117  0.70207     H
O      0.38033  0.44502    0.907     O
N      0.38165   0.5842   0.1405     N
C       0.3821   0.5713   0.0618     C
H       0.3844   0.3454   0.1364     H
C      0.38453  0.05517  0.58727     C
O      0.38464  0.22968  0.85677     O
C      0.38485   0.1194  0.31387     C
C       0.3858   0.3424   0.0011     C
H       0.3859   0.9128   0.5519     H
O      0.38626  0.44143    0.063     O
H       0.3869   0.9661   0.8222     H
C      0.38735  0.07906  0.65117     C
O       0.3885  0.28041  0.72967     O
C       0.3885   0.3373   0.0794     C
H       0.3887   0.9195    0.908     H
O      0.38932  0.15788  0.60017     O
O      0.38932  0.22176  0.66097     O
O      0.38938  0.17448  0.79007     O
C      0.39263  0.03387  0.68917     C
H       0.3939   0.9967   0.8807     H
O      0.39486  0.20776  0.45437     O
C      0.39493  0.96196   0.9617     C
O      0.39667  0.14127  0.37857     O
H       0.3971   0.9234   0.0155     H
H       0.3972   0.0698   0.9699     H
H       0.3972   0.3939   0.1193     H
H       0.3972   0.5886   0.2769     H
C       0.3973   0.5802   0.2178     C
O      0.39802  0.28634  0.57367     O
H      0.39843  0.10257  0.20377     H
C      0.39865  0.13455  0.62227     C
H       0.3987   0.4925   0.1711     H
C       0.3994   0.5559   0.0459     C
C      0.39983  0.29707  0.65517     C
H      0.39993  0.02147  0.56907     H
H          0.4   0.5484   0.9858     H
C       0.4001   0.3137   0.9198     C
C      0.40048  0.98078   0.8712     C
C      0.40121  0.94848   0.6472     C
C      0.40133  0.03777  0.61127     C
H       0.4019   0.9784   0.3768     H
C      0.40256  0.93468   0.9556     C
H      0.40313  0.33927  0.69677     H
H       0.4044   0.3061   0.8619     H
H       0.4044    0.999   0.0552     H
C      0.40473  0.08387  0.72837     C
H       0.4054   0.4044   0.9448     H
H       0.4055   0.5041    0.996     H
H      0.40643  0.09977  0.77277     H
H       0.4073   0.9711   0.1033     H
O      0.40808  0.50181    0.784     O
C      0.40903  0.11927  0.24987     C
O      0.40914  0.43762   0.7318     O
H      0.40993  0.14037  0.68217     H
C         0.41   0.3029   0.9838     C
O       0.4105  0.97747   0.6339     O
O      0.41126  0.93666   0.7119     O
H       0.4114   0.8086   0.2769     H
C      0.41236  0.98414   0.0467     C
C      0.41239  0.35837   0.0155     C
C       0.4127   0.5635   0.2018     C
H      0.41383  0.13587  0.57467     H
H       0.4151    0.092   0.0564     H
C      0.41559   0.5515   0.1194     C
N       0.4158  0.79745   0.1405     N
C       0.4172   0.3458   0.9383     C
C      0.41753  0.33297  0.66987     C
C       0.4179   0.0842   0.9968     C
H        0.418   0.2881   0.9811     H
N      0.41861  0.04422  0.68917     N
C      0.41885  0.24529  0.85087     C
C       0.4197  0.40048   0.1288     C
C      0.41973  0.06677  0.74687     C
C       0.4198   0.8171   0.2178     C
C      0.42003  0.22987  0.42617     C
H      0.42053  0.13977  0.21857     H
H       0.4208   0.3869   0.1778     H
C      0.42138   0.5069   0.1842     C
H       0.4222   0.5598   0.2538     H
H       0.4229   0.5167   0.2453     H
C      0.42303  0.19717  0.78777     C
C      0.42321  0.23823  0.67237     C
H       0.4235   0.4019   0.6232     H
H      0.42393  0.11557  0.28547     H
C      0.42471   0.9869   0.3803     C
C      0.42523  0.09807  0.66027     C
H      0.42533  0.34357  0.61027     H
H       0.4257   0.9008   0.0693     H
O      0.42706  0.25859  0.45067     O
H      0.42713  0.24377  0.91197     H
H      0.42713  0.26797  0.83777     H
H       0.4275   0.7975   0.0122     H
C      0.42822  0.41236   0.9533     C
Mn     0.42832  0.44864  0.30257    Mn
Mn     0.42842  0.47146  0.85577    Mn
C      0.42844  0.51832   0.0057     C
C       0.4287   0.8108   0.0618     C
H        0.429   0.9695   0.3877     H
H       0.4291   0.9007    0.179     H
H       0.4298    0.102    0.955     H
H       0.4312    0.542   0.6384     H
C       0.4314   0.3395   0.0064     C
H      0.43163  0.07107  0.80477     H
C      0.43191  0.23193  0.77667     C
H      0.43193  0.26117  0.66267     H
H       0.4321   0.4333   0.5668     H
H      0.43253  0.19157  0.73597     H
H      0.43263  0.19507  0.84567     H
H      0.43273  0.23057  0.62607     H
H      0.43293  0.20207  0.35337     H
C      0.43297  0.39493   0.0383     C
O      0.43303   0.4105   0.3661     O
H       0.4331     0.36   0.8939     H
H       0.4333   0.0012   0.4332     H
H       0.4333   0.5625   0.7271     H
O      0.43364  0.99696   0.8389     O
C      0.43474  0.53332     0.11     C
O      0.43522  0.94401   0.9335     O
H      0.43533  0.33887  0.71167     H
C      0.43541  0.43978   0.7058     C
H       0.4358   0.9004   0.6867     H
H       0.4359   0.3708   0.4629     H
C       0.4361   0.0665   0.0115     C
H       0.4361   0.5355   0.9594     H
H       0.4362   0.4073   0.8967     H
C       0.4365   0.8492   0.2018     C
O      0.43668  0.43364   0.1611     O
C       0.4368   0.5235   0.7595     C
O      0.43699   0.4883   0.1901     O
H       0.4375   0.8708   0.7271     H
O      0.43762  0.02848   0.2682     O
Mn     0.43763  0.46609  0.07671    Mn
C      0.43781  0.42471   0.6197     C
H      0.43783  0.12117  0.65827     H
C      0.43978  0.00437   0.2942     C
H       0.4402   0.8624   0.2538     H
C      0.44043  0.07667  0.68287     C
C       0.4408   0.9103   0.1211     C
O      0.44143  0.05517    0.937     O
C      0.44183  0.22477  0.36417     C
C       0.4419   0.5504   0.6975     C
C       0.4441   0.8435   0.0459     C
H      0.44413  0.23547  0.30507     H
O       0.4446  0.44671   0.9657     O
O      0.44491   0.5009   0.9943     O
O      0.44502  0.06469    0.093     O
O      0.44671  0.00211   0.0343     O
C       0.4485  0.86409   0.1194     C
Mn     0.44864  0.02032  0.69743    Mn
H       0.4489   0.3583   0.3812     H
C       0.4496   0.8915   0.6975     C
H       0.4516   0.8516   0.9858     H
O      0.45176  0.94395   0.1234     O
Mn     0.45245  0.96237  0.79972    Mn
C       0.4526   0.3769   0.4168     C
C      0.45273  0.40121   0.3528     C
H       0.4545     0.35   0.0084     H
O      0.45784  0.99887    0.244     O
H        0.458   0.8892   0.6384     H
O      0.45891  0.52044   0.7877     O
O      0.45897  0.45784    0.756     O
H       0.4595    0.429   0.6123     H
H       0.4616   0.9693   0.5829     H
H      0.46253  0.23337  0.39377     H
H      0.46323  0.08467  0.68557     H
N      0.46412  0.71498  0.19283     N
H      0.46417  0.70333  0.32113     H
H       0.4645   0.9006   0.9594     H
H       0.4646   0.5642   0.6867     H
Mn     0.46609  0.02846  0.92329    Mn
C      0.46668  0.90142     0.11     C
C      0.46788  0.40256   0.0444     C
H       0.4692   0.3887    0.092     H
C      0.46924  0.25108  0.78607     C
C       0.4695   0.5592   0.1211     C
Mn     0.47055  0.97107  0.01512    Mn
H      0.47093  0.24447  0.92047     H
Mn     0.47146  0.04304  0.14423    Mn
H       0.4716   0.5709    0.179     H
H       0.4731   0.3859   0.4481     H
H       0.4737   0.3971   0.9845     H
O       0.4746  0.41126   0.2881     O
H       0.4751   0.5743   0.0693     H
H      0.47527  0.73053  0.05643     H
C       0.4765   0.9133   0.7595     C
C      0.47747  0.71543  0.27153     C
O      0.47802  0.99747   0.6969     O
Mn     0.47898  0.96921  0.23803    Mn
O      0.47956  0.93847   0.7877     O
H       0.4801   0.5044   0.6158     H
O      0.48055  0.47802   0.3031     O
C      0.48168  0.91012   0.0057     C
H      0.48173  0.26667  0.65247     H
C      0.48229  0.98524   0.6068     C
H       0.4833   0.9062   0.2453     H
C      0.48377  0.73063  0.11553     C
C      0.48413  0.25397  0.86847     C
O       0.4883  0.05131   0.8099     O
H       0.4897   0.4924   0.4375     H
C      0.48983  0.26727  0.71257     C
Mn     0.49008  0.45245  0.20028    Mn
Mn     0.49023  0.52102  0.23803    Mn
O      0.49121  0.43522   0.0665     O
O      0.49219  0.54824   0.1234     O
H       0.4923   0.4616   0.4171     H
O      0.49233  0.99976   0.9112     O
H       0.4924   0.0027   0.5625     H
H       0.4925   0.0938   0.8289     H
O      0.49257  0.49233   0.0888     O
C       0.4931  0.91448   0.1842     C
H       0.4956   0.9757   0.6158     H
H       0.4959   0.9014    0.996     H
C      0.49705  0.48229   0.3932     C
O      0.49819  0.90627    0.784     O
O       0.4991  0.94401   0.9943     O
Mn     0.49948  0.47055  0.98488    Mn
Mn     0.50052  0.52945  0.01512    Mn
O       0.5009  0.05599   0.0057     O
O      0.50181  0.09373    0.216     O
C      0.50295  0.51771   0.6068     C
H       0.5041   0.0986    0.004     H
H       0.5044   0.0243   0.3842     H
C       0.5069  0.08552   0.8158     C
O      0.50743  0.50767   0.9112     O
H       0.5075   0.9062   0.1711     H
H       0.5076   0.9973   0.4375     H
O      0.50767  0.00024   0.0888     O
H       0.5077   0.5384   0.5829     H
O      0.50781  0.45176   0.8766     O
O      0.50879  0.56478   0.9335     O
Mn     0.50977  0.47898  0.76197    Mn
Mn     0.50992  0.54755  0.79972    Mn
C      0.51017  0.73273  0.28743     C
H       0.5103   0.5076   0.5625     H
O       0.5117  0.94869   0.1901     O
C      0.51587  0.74603  0.13153     C
C      0.51623  0.26937  0.88447     C
H       0.5167   0.0938   0.7547     H
C      0.51771  0.01476   0.3932     C
H      0.51827  0.73333  0.34753     H
C      0.51832  0.08988   0.9943     C
O      0.51945  0.52198   0.6969     O
H       0.5199   0.4956   0.3842     H
O      0.52044  0.06153   0.2123     O
Mn     0.52102  0.03079  0.76197    Mn
O      0.52198  0.00253   0.3031     O
C      0.52253  0.28457  0.72847     C
C       0.5235   0.0867   0.2405     C
H      0.52473  0.26947  0.94357     H
H       0.5249   0.4257   0.9307     H
O       0.5254  0.58874   0.7119     O
H       0.5263   0.6029   0.0155     H
H       0.5269   0.6141   0.5519     H
H       0.5284   0.4291    0.821     H
Mn     0.52854  0.95696  0.85577    Mn
H      0.52907  0.75553  0.07953     H
Mn     0.52945  0.02893  0.98488    Mn
C       0.5305   0.4408   0.8789     C
C      0.53076  0.74892  0.21393     C
H       0.5308   0.6113    0.908     H
C      0.53212  0.59744   0.9556     C
C      0.53332  0.09858     0.89     C
Mn     0.53391  0.97154  0.07671    Mn
H       0.5354   0.4358   0.3133     H
H       0.5355   0.0994   0.0406     H
H      0.53583  0.29667  0.67887     H
N      0.53588  0.28502  0.80717     N
H      0.53677  0.91533  0.31443     H
H      0.53747  0.76663  0.60623     H
H       0.5384   0.0307   0.4171     H
H       0.5405    0.571   0.3877     H
O      0.54103  0.54216    0.244     O
O      0.54109  0.47956   0.2123     O
H        0.542   0.1108   0.3616     H
O      0.54216  0.00113    0.756     O
H       0.5455     0.65   0.9916     H
C      0.54727  0.59879   0.6472     C
C       0.5474   0.6231   0.5832     C
Mn     0.54755  0.03763  0.20028    Mn
O      0.54824  0.05605   0.8766     O
H       0.5484   0.1484   0.0142     H
C       0.5504   0.1085   0.3025     C
H       0.5511   0.6417   0.6188     H
Mn     0.55136  0.97968  0.30257    Mn
C       0.5515  0.13591   0.8806     C
O      0.55329  0.99789   0.9657     O
O      0.55498  0.93531    0.907     O
O      0.55509   0.4991   0.0057     O
O       0.5554  0.55329   0.0343     O
H      0.55587  0.76453  0.69493     H
C       0.5559   0.1565   0.9541     C
C       0.5581   0.4496   0.3025     C
C      0.55817  0.77523  0.63583     C
O      0.55857  0.94483    0.063     O
C       0.5592   0.0897   0.8789     C
C      0.55957  0.92333  0.31713     C
H       0.5598   0.1376   0.7462     H
C      0.56022  0.99563   0.7058     C
H      0.56217  0.87883  0.34173     H
C      0.56219  0.57529   0.3803     C
Mn     0.56237  0.53391  0.92329    Mn
O      0.56238  0.97152   0.7318     O
H       0.5625   0.1292   0.2729     H
O      0.56301   0.5117   0.8099     O
C       0.5632   0.4765   0.2405     C
O      0.56332  0.56636   0.8389     O
C       0.5635   0.1508   0.7982     C
H       0.5638   0.5927   0.1033     H
H       0.5639   0.4645   0.0406     H
C       0.5639   0.9335   0.9885     C
H       0.5641   0.6292   0.5371     H
H       0.5642   0.0996   0.3133     H
C      0.56459  0.56022   0.2942     C
H      0.56467  0.66113  0.28833     H
O      0.56478  0.05599   0.0665     O
C      0.56526  0.46668     0.89     C
O      0.56636  0.00304   0.1611     O
H       0.5667   0.4375   0.2729     H
H       0.5667   0.9988   0.5668     H
H       0.5669     0.64   0.1061     H
O      0.56697   0.5895   0.6339     O
C      0.56703  0.60507   0.9617     C
H      0.56707  0.79793  0.64663     H
H      0.56727  0.76943  0.37393     H
H      0.56737  0.80493  0.15433     H
H      0.56747  0.80843  0.26403     H
H       0.5679   0.5667   0.4332     H
H      0.56807  0.73883  0.33733     H
C      0.56809  0.76807  0.22333     C
H      0.56837  0.92893  0.19523     H
C       0.5686   0.6605   0.9936     C
H       0.5688    0.458   0.3616     H
H       0.5702    0.898    0.045     H
H       0.5709   0.0993    0.821     H
H        0.571   0.0305   0.6123     H
C       0.5713   0.1892   0.9382     C
C      0.57156  0.48168   0.9943     C
Mn     0.57158  0.52854  0.14423    Mn
Mn     0.57168  0.55136  0.69743    Mn
C      0.57178  0.58764   0.0467     C
H       0.5725   0.2025   0.9878     H
H      0.57287  0.73203  0.16223     H
H      0.57287  0.75623  0.08803     H
O      0.57294  0.74141  0.54933     O
H       0.5743   0.0992   0.9307     H
H      0.57467  0.65643  0.38973     H
C      0.57477  0.90193  0.33973     C
C      0.57529   0.0131   0.6197     C
H      0.57607  0.88443  0.71453     H
H       0.5765   0.5981   0.3768     H
C      0.57679  0.76177  0.32763     C
C      0.57697  0.80283  0.21223     C
H       0.5771   0.4833   0.7547     H
H       0.5778   0.4402   0.7462     H
C      0.57862   0.4931   0.8158     C
H       0.5792   0.6131   0.8222     H
H      0.57947  0.86023  0.78143     H
C      0.57997  0.77013  0.57383     C
C       0.5802   0.1829   0.7822     C
C      0.58027  0.93323  0.25313     C
C       0.5803  0.59952   0.8712     C
C      0.58115  0.75471  0.14913     C
N      0.58139  0.95578  0.31083     N
H        0.582   0.7119   0.0189     H
C       0.5821   0.9158   0.0032     C
C      0.58247  0.66703  0.33013     C
C       0.5828   0.6542   0.0617     C
N       0.5842  0.20255   0.8595     N
C      0.58441   0.4485   0.8806     C
H       0.5849    0.908   0.9436     H
H      0.58617  0.86413  0.42533     H
C       0.5873   0.4365   0.7982     C
C      0.58761  0.64163   0.9845     C
C      0.58764  0.01586   0.9533     C
H       0.5886   0.1914   0.7231     H
O      0.58874  0.06334   0.2881     O
O       0.5895  0.02253   0.3661     O
C         0.59   0.6971   0.0162     C
H      0.59007  0.85963  0.31783     H
O      0.59086  0.56238   0.2682     O
C      0.59097  0.88073  0.75013     C
O      0.59192  0.49819    0.216     O
H       0.5927   0.0289   0.8967     H
H      0.59357  0.90023  0.22723     H
H       0.5945   0.4959    0.004     H
H       0.5946   0.5956   0.0552     H
C      0.59527  0.91613  0.27163     C
H       0.5956    0.001   0.9448     H
H       0.5956   0.6939   0.1381     H
H      0.59687  0.66073  0.30323     H
C      0.59744  0.06532   0.0444     C
H       0.5981   0.0216   0.6232     H
C      0.59867  0.96223  0.38873     C
C      0.59879  0.05152   0.3528     C
C      0.59952  0.01922   0.1288     C
C       0.5999   0.6863   0.0802     C
H          0.6   0.4516   0.0142     H
H      0.60007  0.97853  0.43093     H
C      0.60017  0.70293  0.34483     C
C       0.6006   0.4441   0.9541     C
H       0.6013   0.5075   0.8289     H
C      0.60135  0.86545  0.37773     C
H      0.60157  0.89743  0.79623     H
O      0.60198  0.71366  0.42633     O
C       0.6027   0.4198   0.7822     C
H       0.6028   0.4114   0.7231     H
H       0.6028   0.6061   0.8807     H
H       0.6028   0.9302   0.0301     H
H       0.6029   0.0766   0.9845     H
O      0.60333  0.85873  0.62143     O
C      0.60507  0.03804   0.0383     C
O      0.60514  0.79224  0.54563     O
H       0.6061   0.0033   0.1193     H
C      0.60737  0.96613  0.31083     C
O      0.61062  0.82552  0.20993     O
O      0.61068  0.77824  0.33903     O
O      0.61068  0.84212  0.39983     O
H       0.6113   0.0805    0.092     H
C       0.6115   0.6627   0.9206     C
O       0.6115  0.71959  0.27033     O
C      0.61265  0.92094  0.34883     C
H       0.6131   0.0339   0.1778     H
O      0.61374  0.55857    0.937     O
H       0.6141   0.0872   0.4481     H
C       0.6142   0.6576   0.9989     C
C      0.61515   0.8806  0.68613     C
O      0.61536  0.77032  0.14323     O
C      0.61547  0.94483  0.41273     C
H       0.6156   0.6546   0.8636     H
C       0.6179   0.4287   0.9382     C
N      0.61835   0.4158   0.8595     N
O      0.61967  0.55498    0.093     O
H      0.62057  0.98883  0.29793     H
H      0.62143  0.53677  0.68557     H
H      0.62153  0.60007  0.56907     H
N      0.62245  0.70773   0.0225     N
C       0.6231   0.0757   0.4168     C
C      0.62327  0.94753  0.33443     C
Mn     0.62363  0.76175  0.47756    Mn
N       0.6256  0.58139  0.68917     N
H       0.6265   0.6468   0.9948     H
H      0.62767  0.94893  0.46973     H
C      0.62863  0.90036  0.37163     C
C       0.6289   0.6969   0.9446     C
Mn     0.62904  0.84325  0.53361    Mn
H       0.6292   0.0651   0.4629     H
H         0.63   0.4275   0.9878     H
C       0.6304   0.5639   0.0115     C
H      0.63173  0.62057  0.70207     H
H      0.63277  0.91253  0.51113     H
C       0.6328   0.6921   0.0225     C
Mn     0.63588  0.82356   0.0953    Mn
H      0.63597  0.84103  0.75043     H
H      0.63617  0.87383  0.94563     H
C      0.63623  0.55957  0.68287     C
C      0.63643  0.59867  0.61127     C
Mn     0.63774  0.83385  0.31821    Mn
H      0.63777  0.89713  0.23003     H
O      0.63819  0.74247  0.60153     O
Mn     0.63821  0.77096  0.25662    Mn
H      0.63943  0.56837  0.80477     H
H         0.64   0.0731   0.8939     H
C      0.64123  0.60737  0.68917     C
C      0.64163  0.05402   0.0155     C
H       0.6417   0.0906   0.3812     H
H      0.64237  0.81343  0.71753     H
O      0.64414   0.9003  0.69943     O
H      0.64507  0.90983  0.95653     H
H       0.6452   0.7118   0.9024     H
Mn     0.64635  0.76165  0.03076    Mn
H      0.64637  0.95983  0.33853     H
H       0.6468   0.0203   0.0052     H
C      0.64703  0.58027  0.74687     C
C      0.64745  0.91363  0.46213     C
H         0.65   0.1045   0.0084     H
C      0.65081  0.90511  0.28663     C
C      0.65191  0.83628  0.72653     C
C      0.65357  0.89552  0.95303     C
C       0.6542   0.0714   0.9383     C
H       0.6546    0.039   0.1364     H
H       0.6555   0.7016   0.0354     H
H      0.65643  0.08177  0.61027     H
C       0.6576   0.0434   0.0011     C
C       0.6605   0.0919   0.0064     C
H      0.66073  0.06387  0.69677     H
H      0.66113  0.09647  0.71167     H
C       0.6623  0.76874  0.62753     C
C       0.6627   0.0512   0.0794     C
H      0.66337  0.93613  0.45263     H
O      0.66363  0.89665  0.49443     O
H      0.66397  0.82303  0.89583     H
O      0.66414  0.85278  0.63643     O
O      0.66456  0.77793  0.36763     O
H      0.66547  0.76543  0.76653     H
O      0.66554  0.87436  0.08933     O
H      0.66567  0.92793  0.27813     H
C       0.6663   0.5821   0.9968     C
O      0.66643  0.84076  0.42213     O
O      0.66691   0.8259  0.24453     O
C      0.66703  0.08457  0.66987     C
H      0.66767  0.73873  0.38853     H
O       0.6678   0.7923  0.57733     O
H      0.66787  0.90123  0.90013     H
O      0.66878  0.88873  0.29903     O
O       0.6692  0.81388  0.03023     O
H      0.66937  0.84363  0.77083     H
O      0.66971  0.77001  0.17223     O
H      0.66997  0.73053  0.21403     H
C      0.67063  0.61547  0.58727     C
C      0.67104  0.89792  0.03913     C
H       0.6722   0.5702    0.955     H
H       0.6726   0.6028   0.9699     H
C      0.67283  0.57477  0.66027     C
C      0.67573  0.62327  0.66557     C
H       0.6769   0.5849   0.0564     H
H      0.67783  0.96507  0.63127     H
H      0.67873  0.62767  0.53027     H
C      0.67913  0.59527  0.72837     C
C      0.67977  0.77114  0.71363     C
C      0.68143  0.83038  0.94013     C
C      0.68253  0.76155  0.38003     C
H      0.68333  0.56217  0.65827     H
C      0.68589  0.75303  0.20453     C
C       0.6863   0.0864   0.9198     C
H      0.68653  0.64637  0.66147     H
H      0.68697  0.70683  0.32813     H
Mn     0.68699  0.90501   0.6359    Mn
H      0.68813  0.95487  0.76427     H
H      0.68827  0.75683  0.71013     H
O       0.6892  0.76636  0.96723     O
H      0.69097  0.85323  0.94913     H
H      0.69163  0.57607  0.28547     H
C       0.6917  0.61265  0.65117     C
C       0.6921   0.0593   0.9775     C
H      0.69333  0.59357  0.77277     H
H       0.6939   0.0983   0.8619     H
Mn     0.69513   0.8957  0.41004    Mn
O      0.69515  0.92419  0.06513     O
H      0.69557  0.76953  0.43663     H
Mn      0.6956  0.83281  0.34845    Mn
C       0.6969    0.068   0.0554     C
C       0.6971   0.1071   0.9838     C
H      0.69717  0.79283  0.72103     H
H      0.69737  0.82563  0.91623     H
Mn     0.69746   0.8431  0.57136    Mn
C      0.70053  0.97457  0.64417     C
H      0.70057  0.75413  0.15553     H
H       0.7016   0.0461   0.9646     H
C      0.70293  0.10277  0.65517     C
H      0.70333  0.23917  0.67887     H
H      0.70413  0.60157  0.20377     H
Mn      0.7043  0.82341  0.13305    Mn
C      0.70443  0.96977  0.72207     C
C      0.70471   0.7663  0.29503     C
H      0.70567  0.71773  0.19693     H
H      0.70683  0.01987  0.67187     H
N      0.70773  0.08528   0.9775     N
Mn     0.70971  0.90491   0.1891    Mn
C      0.71007  0.71913  0.33223     C
C      0.71023  0.59097  0.24987     C
N      0.71088  0.95894  0.64417     N
H       0.7118   0.0666   0.0976     H
H       0.7119   0.1299   0.9811     H
H      0.71277  0.67783  0.36873     H
O      0.71366  0.11169  0.57367     O
N      0.71498  0.25087  0.80717     N
C      0.71543  0.23797  0.72847     C
H      0.71773  0.01207  0.80307     H
C      0.71787  0.72183  0.25393     C
O      0.71798  0.89634  0.52343     O
C      0.71819  0.78606  0.98053     C
C      0.71913  0.00907  0.66777     C
H      0.71923  0.57947  0.21857     H
O      0.71959   0.1081  0.72967     O
H      0.72023  0.63277  0.48887     H
C      0.72069  0.74572  0.31783     C
C      0.72183  0.00397  0.74607     C
O      0.72184  0.94707  0.39633     O
H      0.72203  0.58617  0.57467     H
O      0.72266  0.82454  0.26683     O
O      0.72266  0.88842  0.32763     O
O      0.72272  0.84114  0.45673     O
C      0.72597  0.70053  0.35583     C
H      0.72723  0.66337  0.54737     H
O       0.7282  0.87442  0.12103     O
C      0.72826  0.62863  0.62837     C
O      0.73001  0.80793  0.04523     O
H      0.73043  0.59007  0.68217     H
H      0.73053  0.06057  0.78597     H
H      0.73053  0.25527  0.94357     H
H      0.73053  0.73647  0.63657     H
C      0.73063  0.24687  0.88447     C
O      0.73136    0.953  0.24033     O
H      0.73177  0.76923  0.87043     H
C      0.73199  0.80121  0.28893     C
H      0.73203  0.15917  0.83777     H
C      0.73273  0.22257  0.71257     C
C      0.73317  0.96373  0.32183     C
H      0.73327  0.68813  0.23573     H
H      0.73333  0.21507  0.65247     H
C      0.73343  0.98037  0.58647     C
C      0.73381  0.64745  0.53787     C
C      0.73454  0.61515  0.31387     C
C      0.73467  0.70443  0.27793     C
H      0.73523  0.64507  0.04347     H
C      0.73589  0.60135  0.62227     C
H      0.73647  0.00593  0.36343     H
H      0.73773  0.66567  0.72187     H
H      0.73773  0.97277  0.52857     H
C      0.73807  0.75053  0.39503     C
H      0.73873  0.07107  0.61147     H
H      0.73883  0.17077  0.66267     H
H      0.73977  0.76643  0.43943     H
H      0.74063  0.63777  0.76997     H
O      0.74141  0.16848  0.45067     O
C      0.74237  0.78593  0.91653     C
O      0.74247  0.10429  0.39847     O
H      0.74327  0.80703  0.34883     H
C      0.74333  0.96957  0.65047     C
O      0.74383  0.64414  0.30057     O
O      0.74459  0.60333  0.37857     O
H      0.74473  0.47527  0.94357     H
C      0.74569  0.65081  0.71337     C
C      0.74572  0.02504  0.68217     C
C      0.74603  0.23017  0.86847     C
H      0.74717  0.80253  0.24133     H
H      0.74843  0.75867  0.72307     H
C      0.74892  0.21817  0.78607     C
N      0.74913  0.46412  0.80717     N
C      0.75053  0.01247  0.60497     C
C      0.75087  0.99963  0.33653     C
C      0.75123  0.75087  0.66347     C
H      0.75133  0.95477  0.64777     H
N      0.75195  0.71088  0.35583     N
C      0.75219  0.91195  0.51753     C
C      0.75303  0.06715  0.79547     C
C      0.75307  0.73343  0.41353     C
C      0.75313  0.48377  0.88447     C
C      0.75337  0.89653  0.09283     C
H      0.75387  0.80643  0.88523     H
H      0.75413  0.05357  0.84447     H
C      0.75471  0.17357  0.85087     C
H      0.75553  0.22647  0.92047     H
H      0.75623  0.18337  0.91197     H
C      0.75637  0.86383  0.45443     C
C      0.75655  0.90489  0.33903     C
H      0.75683  0.06857  0.28987     H
H      0.75727  0.78223  0.95213     H
C      0.75804  0.65357  0.04697     C
C      0.75857  0.76473  0.32693     C
H      0.75867  0.01023  0.27693     H
H      0.75903  0.56747  0.73597     H
O       0.7604  0.92525  0.11733     O
H      0.76047  0.91043  0.57863     H
H      0.76047  0.93463  0.50443     H
H      0.76083  0.46417  0.67887     H
C      0.76155  0.07903  0.61997     C
Mn     0.76165  0.11531  0.96924    Mn
Mn     0.76175  0.13813  0.52244    Mn
C      0.76177  0.18499  0.67237     C
C      0.76203  0.47747  0.72847     C
H      0.76233  0.63617  0.05437     H
H      0.76243  0.56737  0.84567     H
H      0.76313  0.76867  0.62167     H
H      0.76453  0.20867  0.30507     H
C      0.76473  0.00617  0.67307     C
H      0.76497  0.73773  0.47143     H
C      0.76525  0.89859  0.44333     C
H      0.76527  0.92783  0.32933     H
H      0.76543  0.09997  0.23347     H
H      0.76587  0.85823  0.40263     H
H      0.76597  0.86173  0.51233     H
H      0.76607  0.89723  0.29273     H
H      0.76627  0.86873  0.02003     H
C       0.7663   0.0616  0.70497     C
O      0.76636  0.07717  0.03277     O
H      0.76643  0.02667  0.56057     H
H      0.76663  0.22917  0.39377     H
H      0.76663  0.66787  0.09987     H
O      0.76697  0.66363  0.50557     O
C      0.76807  0.19999  0.77667     C
O      0.76855  0.61068  0.60017     O
H      0.76867  0.00553  0.37833     H
C      0.76874  0.10645  0.37247     C
H      0.76913  0.56707  0.35337     H
H      0.76923  0.03747  0.12957     H
H      0.76943  0.20217  0.62607     H
C      0.76943  0.73317  0.67817     C
H      0.76953  0.07397  0.56337     H
C      0.76983  0.51587  0.86847     C
O      0.77001  0.10031  0.82777     O
C      0.77013  0.19017  0.42617     C
O      0.77032  0.15497  0.85677     O
H      0.77083  0.53747  0.39377     H
O      0.77095  0.69515  0.93487     O
Mn     0.77096  0.13276  0.74338    Mn
C      0.77114  0.09138  0.28637     C
H      0.77117  0.78783  0.32493     H
C      0.77311  0.67104  0.96087     C
H      0.77353  0.52907  0.92047     H
C      0.77377  0.74333  0.34953     C
C      0.77413  0.57697  0.78777     C
O      0.77476  0.72184  0.60367     O
C      0.77517  0.89143  0.03083     C
C      0.77523  0.21707  0.36417     C
C      0.77743  0.51017  0.71257     C
H      0.77747  0.90213  0.97173     H
O      0.77793  0.11338  0.63237     O
O      0.77824  0.16757  0.66097     O
O      0.77835  0.73136  0.75967     O
O      0.78004  0.66878  0.70097     O
C      0.78183  0.53076  0.78607     C
Mn     0.78197  0.68699   0.3641    Mn
H      0.78223  0.02497  0.04787     H
C      0.78293  0.55817  0.36417     C
H      0.78493  0.51827  0.65247     H
O      0.78509  0.61062  0.79007     O
Mn     0.78578  0.62904  0.46639    Mn
C      0.78593  0.04357  0.08347     C
C      0.78606  0.06788  0.01947     C
H      0.78783  0.01667  0.67507     H
O      0.79117  0.66554  0.91067     O
H      0.79133  0.55587  0.30507     H
O      0.79224  0.18711  0.45437     O
O       0.7923  0.12451  0.42267     O
H      0.79283  0.09567  0.27897     H
H      0.79493  0.63597  0.24957     H
H      0.79587  0.90003  0.06043     H
H      0.79657  0.75133  0.35223     H
N      0.79745  0.38165   0.8595     N
H       0.7975     0.37   0.9878     H
H      0.79783  0.56727  0.62607     H
H      0.79793  0.23087  0.35337     H
Mn     0.79942  0.69513  0.58996    Mn
C      0.80001  0.56809  0.77667     C
C      0.80121  0.06923  0.71107     C
H      0.80253  0.05537  0.75867     H
C      0.80258  0.91774  0.45273     C
C      0.80283  0.22587  0.78777     C
Mn     0.80388  0.63774  0.68179    Mn
H      0.80427  0.91113  0.58713     H
Mn     0.80479  0.70971   0.8109    Mn
H      0.80493  0.23757  0.84567     H
H      0.80643  0.05257  0.11477     H
H      0.80703  0.06377  0.65117     H
O      0.80793  0.07793  0.95477     O
H      0.80843  0.24097  0.73597     H
H       0.8086   0.3972   0.7231     H
C      0.80983  0.57997  0.42617     C
C       0.8108   0.3821   0.9382     C
O      0.81135  0.66414  0.36357     O
Mn     0.81231  0.63588   0.9047    Mn
O      0.81289  0.60514  0.45437     O
H      0.81343  0.17107  0.28247     H
O      0.81388  0.14469  0.96977     O
C      0.81501  0.57679  0.67237     C
H      0.81507  0.93333  0.31913     H
C      0.81562  0.65191  0.27347     C
H      0.81663  0.57287  0.91197     H
C       0.8171   0.3973   0.7822     C
C      0.81747  0.92063  0.53513     C
O      0.82163  0.71798  0.47657     O
H      0.82303  0.15907  0.10417     H
C      0.82317  0.93393  0.37923     C
Mn     0.82341  0.11912  0.86695    Mn
Mn     0.82356  0.18769   0.9047    Mn
O      0.82454  0.10189  0.73317     O
O      0.82552  0.21491  0.79007     O
H      0.82563  0.12827  0.08377     H
O      0.82566  0.66643  0.57787     O
H      0.82573  0.66937  0.22917     H
H      0.82583  0.76047  0.49557     H
O       0.8259    0.159  0.75547     O
C      0.82643  0.58115  0.85087     C
H      0.82893  0.64237  0.28247     H
H      0.82923  0.56807  0.66267     H
C      0.83038  0.14896  0.05987     C
O      0.83152  0.57294  0.45067     O
O      0.83243  0.61068  0.66097     O
Mn     0.83281  0.13722  0.65155    Mn
Mn     0.83385  0.19612  0.68179    Mn
O      0.83423  0.72266  0.67237     O
O      0.83514   0.7604  0.88267     O
C      0.83628  0.18438  0.27347     C
H      0.83743  0.76527  0.67067     H
H      0.83773  0.69097  0.05087     H
C      0.84023  0.75219  0.48247     C
O      0.84076  0.17434  0.57787     O
H      0.84083  0.57287  0.83777     H
H      0.84093  0.66397  0.10417     H
O        0.841  0.66691  0.75547     O
H      0.84103  0.20507  0.24957     H
O      0.84114  0.11843  0.54327     O
O      0.84212  0.23145  0.60017     O
Mn      0.8431  0.14565  0.42864    Mn
Mn     0.84325  0.21422  0.46639    Mn
C       0.8435   0.3994   0.9541     C
H      0.84363  0.17427  0.22917     H
O      0.84503  0.61536  0.85677     O
C       0.8492   0.4127   0.7982     C
C      0.84957  0.93603  0.55113     C
H      0.85003  0.76047  0.42137     H
C      0.85104  0.68143  0.05987     C
H       0.8516      0.4   0.0142     H
C      0.85165  0.75655  0.66097     C
O      0.85278  0.18865  0.36357     O
H      0.85323  0.16227  0.05087     H
O      0.85377   0.7282  0.87897     O
Mn     0.85435  0.69746  0.42864    Mn
O      0.85531   0.6692  0.96977     O
C      0.85587  0.95123  0.39513     C
C      0.85683  0.75337  0.90717     C
H      0.85807  0.93613  0.61023     H
H      0.85823  0.09237  0.59737     H
O      0.85873  0.25541  0.37857     O
H      0.85963  0.26957  0.68217     H
H      0.86023  0.28077  0.21857     H
H      0.86173  0.09577  0.48767     H
Mn     0.86187  0.62363  0.52244    Mn
H       0.8624   0.4222   0.7462     H
Mn     0.86278   0.6956  0.65155    Mn
C      0.86383  0.10747  0.54557     C
C      0.86409  0.41559   0.8806     C
H      0.86413  0.27797  0.57467     H
C      0.86545  0.26411  0.62227     C
C      0.86665  0.76525  0.55667     C
Mn     0.86724  0.63821  0.74338    Mn
H      0.86873  0.10247  0.97997     H
H      0.86883  0.76607  0.70727     H
H      0.86917  0.96333  0.34553     H
N      0.86922  0.95168  0.47383     N
H       0.8701    0.582   0.9811     H
H       0.8708   0.4333   0.2729     H
H      0.87173  0.69737  0.08377     H
H      0.87383  0.23767  0.05437     H
O      0.87436  0.20883  0.91067     O
O      0.87442  0.14623  0.87897     O
H      0.87533  0.77747  0.02827     H
O      0.87549   0.6678  0.42267     O
H      0.87883  0.31667  0.65827     H
C       0.8806  0.26546  0.31387     C
C      0.88073  0.28977  0.24987     C
Mn     0.88088   0.7043  0.86695    Mn
O      0.88157  0.72272  0.54327     O
H      0.88173  0.81507  0.68087     H
C      0.88373  0.77517  0.96917     C
H      0.88443  0.30837  0.28547     H
Mn     0.88469  0.64635  0.96924    Mn
C      0.88483  0.80258  0.54727     C
O      0.88662  0.66456  0.63237     O
O      0.88831  0.60198  0.57367     O
O      0.88842  0.16577  0.67237     O
O      0.88873  0.21996  0.70097     O
H       0.8892   0.4312   0.3616     H
C      0.88923  0.82317  0.62077     C
C      0.89143  0.11627  0.96917     C
C       0.8915   0.4419   0.3025     C
O       0.8919   0.6115  0.72967     O
C      0.89253  0.75637  0.54557     C
C       0.8929     0.59   0.9838     C
H      0.89313  0.80427  0.41287     H
C      0.89355   0.6623  0.37247     C
H       0.8955   0.5455   0.0084     H
C      0.89552  0.24196  0.04697     C
Mn      0.8957  0.20058  0.58996    Mn
O      0.89571  0.63819  0.39847     O
H      0.89583  0.79587  0.93957     H
O      0.89634  0.17837  0.47657     O
C      0.89653  0.14317  0.90717     C
O      0.89665  0.23303  0.50557     O
C      0.89683  0.81747  0.46487     C
H      0.89713  0.25937  0.76997     H
H      0.89723  0.13117  0.70727     H
C      0.89723  0.60017  0.65517     C
H      0.89743  0.29587  0.20377     H
H      0.89753  0.76627  0.97997     H
C      0.89792  0.22689  0.96087     C
H        0.898   0.3278    0.955     H
O      0.89811  0.72266  0.73317     O
C      0.89859  0.13335  0.55667     C
O      0.89969  0.66971  0.82777     O
H      0.90003  0.10417  0.93957     H
H      0.90003  0.66547  0.23347     H
H      0.90023  0.30667  0.77277     H
O       0.9003  0.25617  0.30057     O
C      0.90036  0.27174  0.62837     C
H       0.9004   0.4646   0.3133     H
H       0.9006   0.4361   0.0406     H
H       0.9007   0.4716    0.821     H
H       0.9008   0.4751   0.9307     H
H      0.90123  0.23337  0.09987     H
H       0.9014   0.4055    0.004     H
C      0.90142  0.43474     0.89     C
H       0.9017   0.5956   0.8619     H
C      0.90193  0.32717  0.66027     C
H      0.90213  0.12467  0.02827     H
H      0.90353  0.56467  0.71167     H
H      0.90423  0.76597  0.48767     H
H      0.90433  0.69717  0.27897     H
C      0.90463  0.85587  0.60487     C
C      0.90489  0.14835  0.66097     C
Mn     0.90491  0.19521   0.8109    Mn
Mn     0.90501  0.21803   0.3641    Mn
C      0.90511  0.25431  0.71337     C
H      0.90583  0.86917  0.65447     H
H       0.9062   0.3987   0.8289     H
H       0.9062   0.4229   0.7547     H
O      0.90627  0.40808    0.216     O
H      0.90763  0.76587  0.59737     H
H        0.908   0.3231   0.0564     H
C       0.9081   0.5686   0.0064     C
C      0.90862  0.67977  0.28637     C
H       0.9094   0.5511   0.3812     H
H      0.90983  0.26477  0.04347     H
C      0.91012  0.42844   0.9943     C
C       0.9103   0.4695   0.8789     C
H      0.91043  0.14997  0.42137     H
H      0.91113  0.10687  0.41287     H
C      0.91195  0.15977  0.48247     C
H      0.91253  0.27977  0.48887     H
H       0.9128   0.5269   0.4481     H
C       0.9133   0.4368   0.2405     C
C      0.91353  0.84957  0.44887     C
C       0.9136   0.5999   0.9198     C
C      0.91363  0.26619  0.53787     C
C      0.91448  0.42138   0.8158     C
N      0.91472  0.62245   0.9775     N
H      0.91533  0.37857  0.68557     H
C      0.91543  0.58247  0.66987     C
C       0.9158   0.3337   0.9968     C
C      0.91613  0.32087  0.72837     C
N      0.91753  0.86922  0.52617     N
C      0.91774  0.11517  0.54727     C
H      0.91823  0.57467  0.61027     H
H       0.9195   0.5308    0.092     H
C      0.92063  0.10317  0.46487     C
C      0.92094   0.3083  0.65117     C
C      0.92097  0.68253  0.61997     C
H      0.92193  0.85807  0.38977     H
O      0.92207  0.73001  0.95477     O
O      0.92283   0.6892  0.03277     O
C      0.92333  0.36377  0.68287     C
H       0.9234   0.5263   0.9845     H
O      0.92419  0.22905  0.93487     O
C       0.9243   0.5474   0.4168     C
O      0.92525  0.16486  0.88267     O
H      0.92603  0.69557  0.56337     H
H       0.9269   0.5669   0.8939     H
H      0.92783  0.16257  0.67067     H
H      0.92793  0.26227  0.72187     H
C       0.9286   0.5828   0.9383     C
H      0.92893  0.36057  0.80477     H
H      0.92893  0.66767  0.61147     H
H       0.9302   0.3274   0.9699     H
C      0.93077  0.73199  0.71107     C
H      0.93143  0.68827  0.28987     H
C        0.932   0.6289   0.0554     C
C      0.93212  0.71819  0.01947     C
C      0.93285  0.68589  0.79547     C
C      0.93323  0.35297  0.74687     C
H      0.93333  0.11827  0.68087     H
H       0.9334   0.6452   0.0976     H
C       0.9335   0.3696   0.0115     C
C      0.93393  0.11077  0.62077     C
H      0.93463  0.17417  0.49557     H
C      0.93468  0.53212   0.0444     C
H       0.9349   0.5641   0.4629     H
O      0.93531  0.38033    0.093     O
C      0.93603  0.08647  0.44887     C
H      0.93613  0.07807  0.38977     H
H      0.93613  0.27277  0.54737     H
H      0.93613  0.59687  0.69677     H
H      0.93623  0.74327  0.65117     H
O      0.93666   0.5254   0.2881     O
C       0.9384  0.70471  0.70497     C
O      0.93847  0.45891   0.2123     O
H      0.93943  0.66997  0.78597     H
C       0.9407   0.6328   0.9775     C
O      0.94395  0.49219   0.8766     O
O      0.94401  0.44491   0.0057     O
O      0.94401  0.50879   0.0665     O
H      0.94463  0.74717  0.75867     H
C      0.94483  0.32937  0.58727     C
O      0.94483  0.38626    0.937     O
C      0.94598  0.58761   0.0155     C
H      0.94643  0.70057  0.84447     H
O      0.94707  0.22524  0.60367     O
H      0.94743  0.75387  0.11477     H
C      0.94753  0.32427  0.66557     C
C      0.94848  0.54727   0.3528     C
O      0.94869  0.43699   0.8099     O
C       0.9488   0.6115   0.0794     C
H      0.94893  0.32127  0.53027     H
C      0.95123  0.09537  0.60487     C
N      0.95168  0.08247  0.52617     N
O        0.953  0.22165  0.75967     O
H       0.9539   0.6555   0.9646     H
H      0.95477  0.20343  0.35223     H
H      0.95487  0.26673  0.23573     H
N      0.95578   0.3744  0.68917     N
C      0.95643  0.74237  0.08347     C
C       0.9566   0.6142   0.0011     C
Mn     0.95696  0.42842  0.14423    Mn
N      0.95894  0.24805  0.35583     N
H      0.95983  0.31347  0.66147     H
H        0.961   0.6156   0.1364     H
C      0.96196  0.56703   0.0383     C
C      0.96223  0.36357  0.61127     C
Mn     0.96237  0.50992  0.20028    Mn
H      0.96253  0.73177  0.12957     H
H      0.96333  0.09417  0.65447     H
C      0.96373  0.23057  0.67817     C
H      0.96507  0.28723  0.36873     H
H       0.9661   0.5792   0.1778     H
C      0.96613  0.35877  0.68917     C
Mn     0.96921  0.49023  0.76197    Mn
H       0.9693   0.5077   0.4171     H
H       0.9695   0.5405   0.6123     H
C      0.96957  0.22623  0.34953     C
C      0.96977  0.26533  0.27793     C
Mn     0.97107  0.50052  0.98488    Mn
H       0.9711   0.5638   0.8967     H
O      0.97152  0.40914   0.2682     O
Mn     0.97154  0.43763  0.92329    Mn
H      0.97277  0.23503  0.47143     H
H      0.97333  0.73977  0.56057     H
C      0.97457  0.27403  0.35583     C
C      0.97496  0.72069  0.68217     C
H      0.97503  0.75727  0.04787     H
H       0.9757   0.4801   0.3842     H
O      0.97747  0.56697   0.3661     O
H       0.9784   0.5765   0.6232     H
H      0.97853  0.37847  0.56907     H
Mn     0.97968  0.42832  0.69743    Mn
H       0.9797   0.6265   0.0052     H
H      0.98013  0.68697  0.67187     H
C      0.98037  0.24693  0.41353     C
C      0.98078   0.5803   0.1288     C
H      0.98333  0.77117  0.67507     H
C      0.98414  0.57178   0.9533     C
C      0.98524  0.50295   0.3932     C
C       0.9869  0.56219   0.6197     C
C      0.98753  0.73807  0.60497     C
H      0.98793  0.70567  0.80307     H
H      0.98883  0.36827  0.70207     H
H      0.98977  0.74843  0.27693     H
C      0.99093  0.71007  0.66777     C
C      0.99383  0.75857  0.67307     C
H      0.99407  0.73053  0.36343     H
H      0.99447  0.76313  0.37833     H
C      0.99563  0.43541   0.2942     C
C      0.99603  0.71787  0.74607     C
H       0.9967   0.6028   0.1193     H
O      0.99696  0.56332   0.1611     O
H       0.9973   0.4897   0.5625     H
O      0.99747  0.51945   0.3031     O
O      0.99789   0.4446   0.0343     O
H       0.9988   0.4321   0.4332     H
O      0.99887  0.54103    0.756     O
H        0.999   0.5946   0.9448     H
C      0.99963  0.24877  0.66347     C
O      0.99976  0.50743   0.0888     O
