data_I
_chemical_name_common  '/home/zhangsd/repos/MofS-CGCNN/ML/data/TSD/clean_cifs/AYUPOZ_clean'
_cell_length_a 10.87220
_cell_length_b 10.87220
_cell_length_c  8.90980
_cell_angle_alpha 90.00000
_cell_angle_beta  90.00000
_cell_angle_gamma 90.00000
_space_group_name_H-M_alt      'P 1'


loop_
_space_group_symop_operation_xyz
  'x, y, z' 

loop_
_atom_site_label
_atom_site_fract_x
_atom_site_fract_y
_atom_site_fract_z
_atom_site_type_symbol
O        0.066    0.554   0.9353     O
F       0.0831   0.9019   0.8729     F
F       0.0852   0.0951   0.5774     F
F       0.0951   0.9148   0.3274     F
F       0.0981   0.0831   0.1229     F
Ni     0.10031  0.89726  0.09935    Ni
Ni     0.10274  0.10031  0.34935    Ni
O       0.1057   0.7083   0.1212     O
S      0.16034  0.60755    0.032     S
O       0.2071   0.5126   0.1363     O
O       0.2613   0.6591   0.9385     O
O       0.2917   0.1057   0.3712     O
O       0.3409   0.2613   0.1885     O
F       0.3801   0.4405   0.3998     F
Ni     0.38473  0.44291  0.17192    Ni
S      0.39245  0.16034    0.282     S
F       0.4051   0.4345   0.9505     F
F       0.4345   0.5949   0.7005     F
F       0.4405   0.6199   0.1498     F
Ni     0.44291  0.61527  0.92192    Ni
O        0.446    0.066   0.1853     O
O       0.4874   0.2071   0.3863     O
O       0.5126   0.7929   0.8863     O
O        0.554    0.934   0.6853     O
Ni     0.55709  0.38473  0.42192    Ni
F       0.5595   0.3801   0.6498     F
F       0.5655   0.4051   0.2005     F
F       0.5949   0.5655   0.4505     F
S      0.60755  0.83966    0.782     S
Ni     0.61527  0.55709  0.67192    Ni
F       0.6199   0.5595   0.8998     F
O       0.6591   0.7387   0.6885     O
O       0.7083   0.8943   0.8712     O
O       0.7387   0.3409   0.4385     O
O       0.7929   0.4874   0.6363     O
S      0.83966  0.39245    0.532     S
O       0.8943   0.2917   0.6212     O
Ni     0.89726  0.89969  0.84935    Ni
Ni     0.89969  0.10274  0.59935    Ni
F       0.9019   0.9169   0.6229     F
F       0.9049   0.0852   0.8274     F
F       0.9148   0.9049   0.0774     F
F       0.9169   0.0981   0.3729     F
O        0.934    0.446   0.4353     O
