data_I
_chemical_name_common  '/home/zhangsd/repos/MofS-CGCNN/ML/data/TSD/clean_cifs/BAKYOE_clean'
_cell_length_a 12.47400
_cell_length_b 15.24800
_cell_length_c 16.89900
_cell_angle_alpha 90.00000
_cell_angle_beta  90.00000
_cell_angle_gamma 90.00000
_space_group_name_H-M_alt      'P 1'


loop_
_space_group_symop_operation_xyz
  'x, y, z' 

loop_
_atom_site_label
_atom_site_fract_x
_atom_site_fract_y
_atom_site_fract_z
_atom_site_type_symbol
Mg         0.0      0.0      0.0    Mg
Mg         0.0      0.5      0.5    Mg
O       0.0039   0.0864   0.0952     O
O       0.0039   0.4136   0.5952     O
C        0.013   0.6595   0.2825     C
C        0.013   0.8405   0.7825     C
O       0.0158   0.1039   0.9258     O
O       0.0158   0.3961   0.4258     O
C       0.0479   0.2121   0.8287     C
C       0.0479   0.2879   0.3287     C
C       0.0486   0.5908   0.3419     C
C       0.0486   0.9092   0.8419     C
C       0.0555   0.7494   0.1674     C
C       0.0555   0.7506   0.6674     C
C        0.083   0.1405   0.8846     C
C        0.083   0.3595   0.3846     C
C        0.083   0.6837   0.2217     C
C        0.083   0.8163   0.7217     C
C       0.0839   0.2038   0.2089     C
C       0.0839   0.2962   0.7089     C
H       0.1022   0.6917     0.57     H
H       0.1022   0.8083     0.07     H
C       0.1154   0.2334    0.765     C
C       0.1154   0.2666    0.265     C
N       0.1203   0.7322   0.6028     N
N       0.1203   0.7678   0.1028     N
H       0.1231   0.1607   0.1035     H
H       0.1231   0.3393   0.6035     H
O       0.1321   0.5491   0.3229     O
O       0.1321   0.9509   0.8229     O
N       0.1449   0.1943   0.1411     N
N       0.1449   0.3057   0.6411     N
H        0.149   0.6557   0.2173     H
H        0.149   0.8443   0.7173     H
O       0.1617   0.5135   0.5036     O
O       0.1617   0.9865   0.0036     O
H       0.1785   0.7387   0.0956     H
H       0.1785   0.7613   0.5956     H
O       0.1806   0.1216   0.8847     O
O       0.1806   0.3784   0.3847     O
H       0.1815   0.2056   0.7599     H
H       0.1815   0.2944   0.2599     H
H       0.2047    0.222   0.1365     H
H       0.2047    0.278   0.6365     H
N         0.25      0.0    0.042     N
O         0.25      0.0   0.1216     O
Mg        0.25      0.0  0.89148    Mg
Mg        0.25      0.5  0.39148    Mg
N         0.25      0.5    0.542     N
O         0.25      0.5   0.6216     O
H       0.2953    0.722   0.6365     H
H       0.2953    0.778   0.1365     H
H       0.3185   0.7056   0.2599     H
H       0.3185   0.7944   0.7599     H
O       0.3194   0.6216   0.3847     O
O       0.3194   0.8784   0.8847     O
H       0.3215   0.2387   0.5956     H
H       0.3215   0.2613   0.0956     H
O       0.3383   0.0135   0.0036     O
O       0.3383   0.4865   0.5036     O
H        0.351   0.1557   0.7173     H
H        0.351   0.3443   0.2173     H
N       0.3551   0.6943   0.6411     N
N       0.3551   0.8057   0.1411     N
O       0.3679   0.0491   0.8229     O
O       0.3679   0.4509   0.3229     O
H       0.3769   0.6607   0.6035     H
H       0.3769   0.8393   0.1035     H
N       0.3797   0.2322   0.1028     N
N       0.3797   0.2678   0.6028     N
C       0.3846   0.7334    0.265     C
C       0.3846   0.7666    0.765     C
H       0.3978   0.1917     0.07     H
H       0.3978   0.3083     0.57     H
C       0.4161   0.7038   0.7089     C
C       0.4161   0.7962   0.2089     C
C        0.417   0.1837   0.7217     C
C        0.417   0.3163   0.2217     C
C        0.417   0.6405   0.3846     C
C        0.417   0.8595   0.8846     C
C       0.4445   0.2494   0.6674     C
C       0.4445   0.2506   0.1674     C
C       0.4514   0.0908   0.8419     C
C       0.4514   0.4092   0.3419     C
C       0.4521   0.7121   0.3287     C
C       0.4521   0.7879   0.8287     C
O       0.4842   0.6039   0.4258     O
O       0.4842   0.8961   0.9258     O
C        0.487   0.1595   0.7825     C
C        0.487   0.3405   0.2825     C
O       0.4961   0.5864   0.5952     O
O       0.4961   0.9136   0.0952     O
Mg         0.5      0.0      0.0    Mg
Mg         0.5      0.5      0.5    Mg
O       0.5039   0.0864   0.9048     O
O       0.5039   0.4136   0.4048     O
C        0.513   0.6595   0.7175     C
C        0.513   0.8405   0.2175     C
O       0.5158   0.1039   0.0742     O
O       0.5158   0.3961   0.5742     O
C       0.5479   0.2121   0.1713     C
C       0.5479   0.2879   0.6713     C
C       0.5486   0.5908   0.6581     C
C       0.5486   0.9092   0.1581     C
C       0.5555   0.7494   0.8326     C
C       0.5555   0.7506   0.3326     C
C        0.583   0.1405   0.1154     C
C        0.583   0.3595   0.6154     C
C        0.583   0.6837   0.7783     C
C        0.583   0.8163   0.2783     C
C       0.5839   0.2038   0.7911     C
C       0.5839   0.2962   0.2911     C
H       0.6022   0.6917     0.43     H
H       0.6022   0.8083     0.93     H
C       0.6154   0.2334    0.235     C
C       0.6154   0.2666    0.735     C
N       0.6203   0.7322   0.3972     N
N       0.6203   0.7678   0.8972     N
H       0.6231   0.1607   0.8965     H
H       0.6231   0.3393   0.3965     H
O       0.6321   0.5491   0.6771     O
O       0.6321   0.9509   0.1771     O
N       0.6449   0.1943   0.8589     N
N       0.6449   0.3057   0.3589     N
H        0.649   0.6557   0.7827     H
H        0.649   0.8443   0.2827     H
O       0.6617   0.5135   0.4964     O
O       0.6617   0.9865   0.9964     O
H       0.6785   0.7387   0.9044     H
H       0.6785   0.7613   0.4044     H
O       0.6806   0.1216   0.1153     O
O       0.6806   0.3784   0.6153     O
H       0.6815   0.2056   0.2401     H
H       0.6815   0.2944   0.7401     H
H       0.7047    0.222   0.8635     H
H       0.7047    0.278   0.3635     H
Mg        0.75      0.0  0.10852    Mg
O         0.75      0.0   0.8784     O
N         0.75      0.0    0.958     N
O         0.75      0.5   0.3784     O
N         0.75      0.5    0.458     N
Mg        0.75      0.5  0.60852    Mg
H       0.7953    0.722   0.3635     H
H       0.7953    0.778   0.8635     H
H       0.8185   0.7056   0.7401     H
H       0.8185   0.7944   0.2401     H
O       0.8194   0.6216   0.6153     O
O       0.8194   0.8784   0.1153     O
H       0.8215   0.2387   0.4044     H
H       0.8215   0.2613   0.9044     H
O       0.8383   0.0135   0.9964     O
O       0.8383   0.4865   0.4964     O
H        0.851   0.1557   0.2827     H
H        0.851   0.3443   0.7827     H
N       0.8551   0.6943   0.3589     N
N       0.8551   0.8057   0.8589     N
O       0.8679   0.0491   0.1771     O
O       0.8679   0.4509   0.6771     O
H       0.8769   0.6607   0.3965     H
H       0.8769   0.8393   0.8965     H
N       0.8797   0.2322   0.8972     N
N       0.8797   0.2678   0.3972     N
C       0.8846   0.7334    0.735     C
C       0.8846   0.7666    0.235     C
H       0.8978   0.1917     0.93     H
H       0.8978   0.3083     0.43     H
C       0.9161   0.7038   0.2911     C
C       0.9161   0.7962   0.7911     C
C        0.917   0.1837   0.2783     C
C        0.917   0.3163   0.7783     C
C        0.917   0.6405   0.6154     C
C        0.917   0.8595   0.1154     C
C       0.9445   0.2494   0.3326     C
C       0.9445   0.2506   0.8326     C
C       0.9514   0.0908   0.1581     C
C       0.9514   0.4092   0.6581     C
C       0.9521   0.7121   0.6713     C
C       0.9521   0.7879   0.1713     C
O       0.9842   0.6039   0.5742     O
O       0.9842   0.8961   0.0742     O
C        0.987   0.1595   0.2175     C
C        0.987   0.3405   0.7175     C
O       0.9961   0.5864   0.4048     O
O       0.9961   0.9136   0.9048     O
