data_I
_chemical_name_common  '/home/zhangsd/repos/MofS-CGCNN/ML/data/TSD/clean_cifs/BASTIA_clean'
_cell_length_a  8.51120
_cell_length_b 25.33900
_cell_length_c 17.77400
_cell_angle_alpha 90.00000
_cell_angle_beta  90.00000
_cell_angle_gamma 90.00000
_space_group_name_H-M_alt      'P 1'


loop_
_space_group_symop_operation_xyz
  'x, y, z' 

loop_
_atom_site_label
_atom_site_fract_x
_atom_site_fract_y
_atom_site_fract_z
_atom_site_type_symbol
C       0.0106  0.51749   0.6288     C
C       0.0106  0.98251   0.1288     C
H       0.0341    0.045   0.0079     H
H       0.0341    0.455   0.5079     H
Ag     0.03838    0.727   0.9496    Ag
Ag     0.03838    0.773   0.4496    Ag
O       0.0391  0.16041  0.76468     O
O       0.0391  0.33959  0.26468     O
O        0.044  0.58131  0.19348     O
O        0.044  0.91869  0.69348     O
C       0.0483  0.04626   0.6448     C
C       0.0483  0.45374   0.1448     C
H       0.0513   0.2053   0.9008     H
H       0.0513   0.2947   0.4008     H
C       0.0547  0.56244   0.5097     C
C       0.0547  0.93756   0.0097     C
H       0.0606   0.5954   0.3569     H
H       0.0606   0.9046   0.8569     H
O       0.0622   0.5244  0.88961     O
O       0.0622   0.9756  0.38961     O
O       0.0774  0.02137  0.16016     O
O       0.0774  0.47863  0.66016     O
O       0.0873  0.03071  0.71063     O
O       0.0873  0.46929  0.21063     O
N       0.0968  0.20818   0.0108     N
N       0.0968  0.29182   0.5108     N
H       0.0982   0.6389   0.0815     H
H       0.0982   0.8611   0.5815     H
C       0.1034  0.18982   0.9412     C
C       0.1034  0.31018   0.4412     C
C       0.1059  0.55558   0.5828     C
C       0.1059  0.94442   0.0828     C
H       0.1204    0.067   0.5023     H
H       0.1204    0.433   0.0023     H
N       0.1259  0.60897   0.3883     N
N       0.1259  0.89103   0.8883     N
C        0.133  0.09203    0.611     C
C        0.133  0.40797    0.111     C
O       0.1354  0.02456  0.87169     O
O       0.1354  0.47544  0.37169     O
C       0.1395  0.59618   0.4633     C
C       0.1395  0.90382   0.9633     C
C       0.1519  0.13484   0.7418     C
C       0.1519  0.36516   0.2418     C
C       0.1603  0.09298   0.5338     C
C       0.1603  0.40702   0.0338     C
Tb     0.16462  0.02407  0.28287    Tb
Tb     0.16462  0.47593  0.78287    Tb
C       0.1835  0.61966   0.0637     C
C       0.1835  0.88034   0.5637     C
N       0.1844  0.65963    0.933     N
N       0.1844  0.84037    0.433     N
C       0.1892  0.13301   0.6588     C
C       0.1892  0.36699   0.1588     C
C       0.1901  0.17424   0.0532     C
C       0.1901  0.32576   0.5532     C
H       0.1902    0.202   0.1607     H
H       0.1902    0.298   0.6607     H
C       0.1912   0.5741   0.1863     C
C       0.1912   0.9259   0.6863     C
N       0.1926   0.1469   0.9352     N
N       0.1926   0.3531   0.4352     N
H       0.2115   0.1297   0.8945     H
H       0.2115   0.3703   0.3945     H
O       0.2212  0.55988  0.73981     O
O       0.2212  0.94012  0.23981     O
C       0.2244  0.17462   0.1299     C
C       0.2244  0.32538   0.6299     C
C       0.2331  0.64654   0.3729     C
C       0.2331  0.85346   0.8729     C
C       0.2381  0.62707   0.9909     C
C       0.2381  0.87293   0.4909     C
C       0.2416   0.5831   0.6093     C
C       0.2416   0.9169   0.1093     C
H       0.2472   0.6615   0.3256     H
H       0.2472   0.8385   0.8256     H
O       0.2487  0.11164  0.28579     O
O       0.2487  0.38836  0.78579     O
C       0.2495  0.13484   0.0058     C
C       0.2495  0.36516   0.5058     C
C       0.2505  0.13484   0.5058     C
C       0.2505  0.36516   0.0058     C
O       0.2513  0.11164  0.78579     O
O       0.2513  0.38836  0.28579     O
H       0.2528   0.6615   0.8256     H
H       0.2528   0.8385   0.3256     H
C       0.2584   0.5831   0.1093     C
C       0.2584   0.9169   0.6093     C
C       0.2619  0.62707   0.4909     C
C       0.2619  0.87293   0.9909     C
C       0.2669  0.64654   0.8729     C
C       0.2669  0.85346   0.3729     C
C       0.2756  0.17462   0.6299     C
C       0.2756  0.32538   0.1299     C
O       0.2788  0.55988  0.23981     O
O       0.2788  0.94012  0.73981     O
H       0.2885   0.1297   0.3945     H
H       0.2885   0.3703   0.8945     H
N       0.3074   0.1469   0.4352     N
N       0.3074   0.3531   0.9352     N
C       0.3088   0.5741   0.6863     C
C       0.3088   0.9259   0.1863     C
H       0.3098    0.202   0.6607     H
H       0.3098    0.298   0.1607     H
C       0.3099  0.17424   0.5532     C
C       0.3099  0.32576   0.0532     C
C       0.3108  0.13301   0.1588     C
C       0.3108  0.36699   0.6588     C
N       0.3156  0.65963    0.433     N
N       0.3156  0.84037    0.933     N
C       0.3165  0.61966   0.5637     C
C       0.3165  0.88034   0.0637     C
Tb     0.33538  0.02407  0.78287    Tb
Tb     0.33538  0.47593  0.28287    Tb
C       0.3397  0.09298   0.0338     C
C       0.3397  0.40702   0.5338     C
C       0.3481  0.13484   0.2418     C
C       0.3481  0.36516   0.7418     C
C       0.3605  0.59618   0.9633     C
C       0.3605  0.90382   0.4633     C
O       0.3646  0.02456  0.37169     O
O       0.3646  0.47544  0.87169     O
C        0.367  0.09203    0.111     C
C        0.367  0.40797    0.611     C
N       0.3741  0.60897   0.8883     N
N       0.3741  0.89103   0.3883     N
H       0.3796    0.067   0.0023     H
H       0.3796    0.433   0.5023     H
C       0.3941  0.55558   0.0828     C
C       0.3941  0.94442   0.5828     C
C       0.3966  0.18982   0.4412     C
C       0.3966  0.31018   0.9412     C
H       0.4018   0.6389   0.5815     H
H       0.4018   0.8611   0.0815     H
N       0.4032  0.20818   0.5108     N
N       0.4032  0.29182   0.0108     N
O       0.4127  0.03071  0.21063     O
O       0.4127  0.46929  0.71063     O
O       0.4226  0.02137  0.66016     O
O       0.4226  0.47863  0.16016     O
O       0.4378   0.5244  0.38961     O
O       0.4378   0.9756  0.88961     O
H       0.4394   0.5954   0.8569     H
H       0.4394   0.9046   0.3569     H
C       0.4453  0.56244   0.0097     C
C       0.4453  0.93756   0.5097     C
H       0.4487   0.2053   0.4008     H
H       0.4487   0.2947   0.9008     H
C       0.4517  0.04626   0.1448     C
C       0.4517  0.45374   0.6448     C
O        0.456  0.58131  0.69348     O
O        0.456  0.91869  0.19348     O
O       0.4609  0.16041  0.26468     O
O       0.4609  0.33959  0.76468     O
Ag     0.46162    0.727   0.4496    Ag
Ag     0.46162    0.773   0.9496    Ag
H       0.4659    0.045   0.5079     H
H       0.4659    0.455   0.0079     H
C       0.4894  0.51749   0.1288     C
C       0.4894  0.98251   0.6288     C
C       0.5106  0.01749   0.3712     C
C       0.5106  0.48251   0.8712     C
H       0.5341    0.545   0.9921     H
H       0.5341    0.955   0.4921     H
Ag     0.53838    0.227   0.0504    Ag
Ag     0.53838    0.273   0.5504    Ag
O       0.5391  0.66041  0.23532     O
O       0.5391  0.83959  0.73532     O
O        0.544  0.08131  0.80652     O
O        0.544  0.41869  0.30652     O
C       0.5483  0.54626   0.3552     C
C       0.5483  0.95374   0.8552     C
H       0.5513   0.7053   0.0992     H
H       0.5513   0.7947   0.5992     H
C       0.5547  0.06244   0.4903     C
C       0.5547  0.43756   0.9903     C
H       0.5606   0.0954   0.6431     H
H       0.5606   0.4046   0.1431     H
O       0.5622   0.0244  0.11039     O
O       0.5622   0.4756  0.61039     O
O       0.5774  0.52137  0.83984     O
O       0.5774  0.97863  0.33984     O
O       0.5873  0.53071  0.28937     O
O       0.5873  0.96929  0.78937     O
N       0.5968  0.70818   0.9892     N
N       0.5968  0.79182   0.4892     N
H       0.5982   0.1389   0.9185     H
H       0.5982   0.3611   0.4185     H
C       0.6034  0.68982   0.0588     C
C       0.6034  0.81018   0.5588     C
C       0.6059  0.05558   0.4172     C
C       0.6059  0.44442   0.9172     C
H       0.6204    0.567   0.4977     H
H       0.6204    0.933   0.9977     H
N       0.6259  0.10897   0.6117     N
N       0.6259  0.39103   0.1117     N
C        0.633  0.59203    0.389     C
C        0.633  0.90797    0.889     C
O       0.6354  0.52456  0.12831     O
O       0.6354  0.97544  0.62831     O
C       0.6395  0.09618   0.5367     C
C       0.6395  0.40382   0.0367     C
C       0.6519  0.63484   0.2582     C
C       0.6519  0.86516   0.7582     C
C       0.6603  0.59298   0.4662     C
C       0.6603  0.90702   0.9662     C
Tb     0.66462  0.52407  0.71713    Tb
Tb     0.66462  0.97593  0.21713    Tb
C       0.6835  0.11966   0.9363     C
C       0.6835  0.38034   0.4363     C
N       0.6844  0.15963    0.067     N
N       0.6844  0.34037    0.567     N
C       0.6892  0.63301   0.3412     C
C       0.6892  0.86699   0.8412     C
C       0.6901  0.67424   0.9468     C
C       0.6901  0.82576   0.4468     C
H       0.6902    0.702   0.8393     H
H       0.6902    0.798   0.3393     H
C       0.6912   0.0741   0.8137     C
C       0.6912   0.4259   0.3137     C
N       0.6926   0.6469   0.0648     N
N       0.6926   0.8531   0.5648     N
H       0.7115   0.6297   0.1055     H
H       0.7115   0.8703   0.6055     H
O       0.7212  0.05988  0.26019     O
O       0.7212  0.44012  0.76019     O
C       0.7244  0.67462   0.8701     C
C       0.7244  0.82538   0.3701     C
C       0.7331  0.14654   0.6271     C
C       0.7331  0.35346   0.1271     C
C       0.7381  0.12707   0.0091     C
C       0.7381  0.37293   0.5091     C
C       0.7416   0.0831   0.3907     C
C       0.7416   0.4169   0.8907     C
H       0.7472   0.1615   0.6744     H
H       0.7472   0.3385   0.1744     H
O       0.7487  0.61164  0.71421     O
O       0.7487  0.88836  0.21421     O
C       0.7495  0.63484   0.9942     C
C       0.7495  0.86516   0.4942     C
C       0.7505  0.63484   0.4942     C
C       0.7505  0.86516   0.9942     C
O       0.7513  0.61164  0.21421     O
O       0.7513  0.88836  0.71421     O
H       0.7528   0.1615   0.1744     H
H       0.7528   0.3385   0.6744     H
C       0.7584   0.0831   0.8907     C
C       0.7584   0.4169   0.3907     C
C       0.7619  0.12707   0.5091     C
C       0.7619  0.37293   0.0091     C
C       0.7669  0.14654   0.1271     C
C       0.7669  0.35346   0.6271     C
C       0.7756  0.67462   0.3701     C
C       0.7756  0.82538   0.8701     C
O       0.7788  0.05988  0.76019     O
O       0.7788  0.44012  0.26019     O
H       0.7885   0.6297   0.6055     H
H       0.7885   0.8703   0.1055     H
N       0.8074   0.6469   0.5648     N
N       0.8074   0.8531   0.0648     N
C       0.8088   0.0741   0.3137     C
C       0.8088   0.4259   0.8137     C
H       0.8098    0.702   0.3393     H
H       0.8098    0.798   0.8393     H
C       0.8099  0.67424   0.4468     C
C       0.8099  0.82576   0.9468     C
C       0.8108  0.63301   0.8412     C
C       0.8108  0.86699   0.3412     C
N       0.8156  0.15963    0.567     N
N       0.8156  0.34037    0.067     N
C       0.8165  0.11966   0.4363     C
C       0.8165  0.38034   0.9363     C
Tb     0.83538  0.52407  0.21713    Tb
Tb     0.83538  0.97593  0.71713    Tb
C       0.8397  0.59298   0.9662     C
C       0.8397  0.90702   0.4662     C
C       0.8481  0.63484   0.7582     C
C       0.8481  0.86516   0.2582     C
C       0.8605  0.09618   0.0367     C
C       0.8605  0.40382   0.5367     C
O       0.8646  0.52456  0.62831     O
O       0.8646  0.97544  0.12831     O
C        0.867  0.59203    0.889     C
C        0.867  0.90797    0.389     C
N       0.8741  0.10897   0.1117     N
N       0.8741  0.39103   0.6117     N
H       0.8796    0.567   0.9977     H
H       0.8796    0.933   0.4977     H
C       0.8941  0.05558   0.9172     C
C       0.8941  0.44442   0.4172     C
C       0.8966  0.68982   0.5588     C
C       0.8966  0.81018   0.0588     C
H       0.9018   0.1389   0.4185     H
H       0.9018   0.3611   0.9185     H
N       0.9032  0.70818   0.4892     N
N       0.9032  0.79182   0.9892     N
O       0.9127  0.53071  0.78937     O
O       0.9127  0.96929  0.28937     O
O       0.9226  0.52137  0.33984     O
O       0.9226  0.97863  0.83984     O
O       0.9378   0.0244  0.61039     O
O       0.9378   0.4756  0.11039     O
H       0.9394   0.0954   0.1431     H
H       0.9394   0.4046   0.6431     H
C       0.9453  0.06244   0.9903     C
C       0.9453  0.43756   0.4903     C
H       0.9487   0.7053   0.5992     H
H       0.9487   0.7947   0.0992     H
C       0.9517  0.54626   0.8552     C
C       0.9517  0.95374   0.3552     C
O        0.956  0.08131  0.30652     O
O        0.956  0.41869  0.80652     O
O       0.9609  0.66041  0.73532     O
O       0.9609  0.83959  0.23532     O
Ag     0.96162    0.227   0.5504    Ag
Ag     0.96162    0.273   0.0504    Ag
H       0.9659    0.545   0.4921     H
H       0.9659    0.955   0.9921     H
C       0.9894  0.01749   0.8712     C
C       0.9894  0.48251   0.3712     C
