data_I
_chemical_name_common  '/home/zhangsd/repos/MofS-CGCNN/ML/data/TSD/clean_cifs/BAXLOD_clean'
_cell_length_a 12.29860
_cell_length_b 12.29860
_cell_length_c  5.24440
_cell_angle_alpha 90.00000
_cell_angle_beta  90.00000
_cell_angle_gamma 90.00000
_space_group_name_H-M_alt      'P 1'


loop_
_space_group_symop_operation_xyz
  'x, y, z' 

loop_
_atom_site_label
_atom_site_fract_x
_atom_site_fract_y
_atom_site_fract_z
_atom_site_type_symbol
Ni     0.01225  0.67929   0.2561    Ni
O       0.0315  0.43071   0.0253     O
H       0.0935   0.4043   0.3812     H
O       0.1026   0.2092   0.8741     O
C       0.1029   0.4978   0.9575     C
N       0.1246   0.3823   0.5667     N
O       0.1269   0.5837    0.076     O
O      0.12774   0.7443   0.5052     O
C       0.1694   0.4754   0.7164     C
H       0.1715   0.5408   0.6097     H
C       0.1862   0.2045   0.7361     C
H       0.1968   0.2612   0.3652     H
C       0.2045   0.8138   0.4861     C
C       0.2056   0.2932   0.5351     C
O       0.2092   0.8974   0.6241     O
O       0.2557  0.12774   0.7552     O
H       0.2612   0.8032   0.1152     H
H       0.2886   0.6264   0.3388     H
C       0.2932   0.7944   0.2851     C
S       0.3085  0.43873  0.81643     S
C       0.3192   0.3437   0.5538     C
Ni     0.32071  0.01225   0.5061    Ni
H       0.3382    0.381    0.397     H
C       0.3437   0.6808   0.3038     C
H       0.3736   0.2886   0.5888     H
H        0.381   0.6618    0.147     H
N       0.3823   0.8754   0.3167     N
H       0.4043   0.9065   0.1312     H
O       0.4163   0.1269    0.326     O
O      0.43071   0.9685   0.7753     O
S      0.43873   0.6915  0.56643     S
H       0.4592   0.1715   0.8597     H
C       0.4754   0.8306   0.4664     C
C       0.4978   0.8971   0.7075     C
C       0.5022   0.1029   0.2075     C
C       0.5246   0.1694   0.9664     C
H       0.5408   0.8285   0.3597     H
S      0.56127   0.3085  0.06643     S
O      0.56929   0.0315   0.2753     O
O       0.5837   0.8731    0.826     O
H       0.5957   0.0935   0.6312     H
N       0.6177   0.1246   0.8167     N
H        0.619   0.3382    0.647     H
H       0.6264   0.7114   0.0888     H
C       0.6563   0.3192   0.8038     C
H       0.6618    0.619    0.897     H
Ni     0.67929  0.98775   0.0061    Ni
C       0.6808   0.6563   0.0538     C
S       0.6915  0.56127  0.31643     S
C       0.7068   0.2056   0.7851     C
H       0.7114   0.3736   0.8388     H
H       0.7388   0.1968   0.6152     H
O       0.7443  0.87226   0.2552     O
O       0.7908   0.1026   0.1241     O
C       0.7944   0.7068   0.0351     C
C       0.7955   0.1862   0.9861     C
H       0.8032   0.7388   0.8652     H
C       0.8138   0.7955   0.2361     C
H       0.8285   0.4592   0.1097     H
C       0.8306   0.5246   0.2164     C
O      0.87226   0.2557   0.0052     O
O       0.8731   0.4163    0.576     O
N       0.8754   0.6177   0.0667     N
C       0.8971   0.5022   0.4575     C
O       0.8974   0.7908   0.3741     O
H       0.9065   0.5957   0.8812     H
O       0.9685  0.56929   0.5253     O
Ni     0.98775  0.32071   0.7561    Ni
