data_I
_chemical_name_common  '/home/zhangsd/repos/MofS-CGCNN/ML/data/TSD/clean_cifs/BAZFUF_clean'
_cell_length_a 27.47190
_cell_length_b 27.47190
_cell_length_c 27.47190
_cell_angle_alpha 90.00000
_cell_angle_beta  90.00000
_cell_angle_gamma 90.00000
_space_group_name_H-M_alt      'P 1'


loop_
_space_group_symop_operation_xyz
  'x, y, z' 

loop_
_atom_site_label
_atom_site_fract_x
_atom_site_fract_y
_atom_site_fract_z
_atom_site_type_symbol
Cu         0.0      0.5  0.20203    Cu
Cu         0.0      0.5  0.29797    Cu
Cu         0.0      0.5  0.70203    Cu
Cu         0.0      0.5  0.79797    Cu
O      0.05006  0.44983  0.29086     O
O      0.05006  0.44983  0.70914     O
O      0.05006  0.55017  0.29086     O
O      0.05006  0.55017  0.70914     O
O      0.05017  0.44994  0.20914     O
O      0.05017  0.44994  0.79086     O
O      0.05017  0.55006  0.20914     O
O      0.05017  0.55006  0.79086     O
C      0.06441  0.43559     0.25     C
C      0.06441  0.43559     0.75     C
C      0.06441  0.56441     0.25     C
C      0.06441  0.56441     0.75     C
C      0.10355  0.39645     0.25     C
C      0.10355  0.39645     0.75     C
C      0.10355  0.60355     0.25     C
C      0.10355  0.60355     0.75     C
H       0.1089   0.3897   0.3221     H
H       0.1089   0.3897   0.6779     H
H       0.1089   0.6103   0.3221     H
H       0.1089   0.6103   0.6779     H
H       0.1103   0.3911   0.1779     H
H       0.1103   0.3911   0.8221     H
H       0.1103   0.6089   0.1779     H
H       0.1103   0.6089   0.8221     H
C       0.1211  0.37812   0.2928     C
C       0.1211  0.37812   0.7072     C
C       0.1211  0.62188   0.2928     C
C       0.1211  0.62188   0.7072     C
C      0.12188   0.3789   0.2072     C
C      0.12188   0.3789   0.7928     C
C      0.12188   0.6211   0.2072     C
C      0.12188   0.6211   0.7928     C
C      0.15718  0.34214  0.29321     C
C      0.15718  0.34214  0.70679     C
C      0.15718  0.65786  0.29321     C
C      0.15718  0.65786  0.70679     C
C      0.15786  0.34282  0.20679     C
C      0.15786  0.34282  0.79321     C
C      0.15786  0.65718  0.20679     C
C      0.15786  0.65718  0.79321     C
H       0.1688   0.3302   0.3227     H
H       0.1688   0.3302   0.6773     H
H       0.1688   0.6698   0.3227     H
H       0.1688   0.6698   0.6773     H
H       0.1698   0.3312   0.1773     H
H       0.1698   0.3312   0.8227     H
H       0.1698   0.6688   0.1773     H
H       0.1698   0.6688   0.8227     H
C      0.17564  0.32436     0.25     C
C      0.17564  0.32436     0.75     C
C      0.17564  0.67564     0.25     C
C      0.17564  0.67564     0.75     C
H       0.1773   0.1698   0.3312     H
H       0.1773   0.1698   0.6688     H
H       0.1773   0.8302   0.3312     H
H       0.1773   0.8302   0.6688     H
H       0.1779   0.1103   0.3911     H
H       0.1779   0.1103   0.6089     H
H       0.1779   0.8897   0.3911     H
H       0.1779   0.8897   0.6089     H
H       0.1903     0.25   0.3097     H
H       0.1903     0.25   0.6903     H
H       0.1903     0.75   0.3097     H
H       0.1903     0.75   0.6903     H
Cu     0.20203      0.0      0.5    Cu
C      0.20679  0.15786  0.34282     C
C      0.20679  0.15786  0.65718     C
C      0.20679  0.84214  0.34282     C
C      0.20679  0.84214  0.65718     C
C       0.2072  0.12188   0.3789     C
C       0.2072  0.12188   0.6211     C
C       0.2072  0.87812   0.3789     C
C       0.2072  0.87812   0.6211     C
O      0.20914  0.05017  0.44994     O
O      0.20914  0.05017  0.55006     O
O      0.20914  0.94983  0.44994     O
O      0.20914  0.94983  0.55006     O
C      0.21407  0.28593     0.25     C
C      0.21407  0.28593     0.75     C
C      0.21407  0.71407     0.25     C
C      0.21407  0.71407     0.75     C
C       0.2142     0.25   0.2858     C
C       0.2142     0.25   0.7142     C
C       0.2142     0.75   0.2858     C
C       0.2142     0.75   0.7142     C
C         0.25  0.06441  0.43559     C
C         0.25  0.06441  0.56441     C
C         0.25  0.10355  0.39645     C
C         0.25  0.10355  0.60355     C
C         0.25  0.17564  0.32436     C
C         0.25  0.17564  0.67564     C
C         0.25  0.21407  0.28593     C
C         0.25  0.21407  0.71407     C
C         0.25   0.2858   0.2142     C
C         0.25   0.2858   0.7858     C
H         0.25   0.3097   0.1903     H
H         0.25   0.3097   0.8097     H
H         0.25   0.6903   0.1903     H
H         0.25   0.6903   0.8097     H
C         0.25   0.7142   0.2142     C
C         0.25   0.7142   0.7858     C
C         0.25  0.78593  0.28593     C
C         0.25  0.78593  0.71407     C
C         0.25  0.82436  0.32436     C
C         0.25  0.82436  0.67564     C
C         0.25  0.89645  0.39645     C
C         0.25  0.89645  0.60355     C
C         0.25  0.93559  0.43559     C
C         0.25  0.93559  0.56441     C
C       0.2858   0.2142     0.25     C
C       0.2858   0.2142     0.75     C
C       0.2858   0.7858     0.25     C
C       0.2858   0.7858     0.75     C
C      0.28593     0.25  0.21407     C
C      0.28593     0.25  0.78593     C
C      0.28593     0.75  0.21407     C
C      0.28593     0.75  0.78593     C
O      0.29086  0.05006  0.44983     O
O      0.29086  0.05006  0.55017     O
O      0.29086  0.94994  0.44983     O
O      0.29086  0.94994  0.55017     O
C       0.2928   0.1211  0.37812     C
C       0.2928   0.1211  0.62188     C
C       0.2928   0.8789  0.37812     C
C       0.2928   0.8789  0.62188     C
C      0.29321  0.15718  0.34214     C
C      0.29321  0.15718  0.65786     C
C      0.29321  0.84282  0.34214     C
C      0.29321  0.84282  0.65786     C
Cu     0.29797      0.0      0.5    Cu
H       0.3097   0.1903     0.25     H
H       0.3097   0.1903     0.75     H
H       0.3097   0.8097     0.25     H
H       0.3097   0.8097     0.75     H
H       0.3221   0.1089   0.3897     H
H       0.3221   0.1089   0.6103     H
H       0.3221   0.8911   0.3897     H
H       0.3221   0.8911   0.6103     H
H       0.3227   0.1688   0.3302     H
H       0.3227   0.1688   0.6698     H
H       0.3227   0.8312   0.3302     H
H       0.3227   0.8312   0.6698     H
C      0.32436     0.25  0.17564     C
C      0.32436     0.25  0.82436     C
C      0.32436     0.75  0.17564     C
C      0.32436     0.75  0.82436     C
H       0.3302   0.3227   0.1688     H
H       0.3302   0.3227   0.8312     H
H       0.3302   0.6773   0.1688     H
H       0.3302   0.6773   0.8312     H
H       0.3312   0.1773   0.1698     H
H       0.3312   0.1773   0.8302     H
H       0.3312   0.8227   0.1698     H
H       0.3312   0.8227   0.8302     H
C      0.34214  0.29321  0.15718     C
C      0.34214  0.29321  0.84282     C
C      0.34214  0.70679  0.15718     C
C      0.34214  0.70679  0.84282     C
C      0.34282  0.20679  0.15786     C
C      0.34282  0.20679  0.84214     C
C      0.34282  0.79321  0.15786     C
C      0.34282  0.79321  0.84214     C
C      0.37812   0.2928   0.1211     C
C      0.37812   0.2928   0.8789     C
C      0.37812   0.7072   0.1211     C
C      0.37812   0.7072   0.8789     C
C       0.3789   0.2072  0.12188     C
C       0.3789   0.2072  0.87812     C
C       0.3789   0.7928  0.12188     C
C       0.3789   0.7928  0.87812     C
H       0.3897   0.3221   0.1089     H
H       0.3897   0.3221   0.8911     H
H       0.3897   0.6779   0.1089     H
H       0.3897   0.6779   0.8911     H
H       0.3911   0.1779   0.1103     H
H       0.3911   0.1779   0.8897     H
H       0.3911   0.8221   0.1103     H
H       0.3911   0.8221   0.8897     H
C      0.39645     0.25  0.10355     C
C      0.39645     0.25  0.89645     C
C      0.39645     0.75  0.10355     C
C      0.39645     0.75  0.89645     C
C      0.43559     0.25  0.06441     C
C      0.43559     0.25  0.93559     C
C      0.43559     0.75  0.06441     C
C      0.43559     0.75  0.93559     C
O      0.44983  0.29086  0.05006     O
O      0.44983  0.29086  0.94994     O
O      0.44983  0.70914  0.05006     O
O      0.44983  0.70914  0.94994     O
O      0.44994  0.20914  0.05017     O
O      0.44994  0.20914  0.94983     O
O      0.44994  0.79086  0.05017     O
O      0.44994  0.79086  0.94983     O
Cu         0.5  0.20203      1.0    Cu
Cu         0.5  0.29797      0.0    Cu
Cu         0.5  0.70203      0.0    Cu
Cu         0.5  0.79797      0.0    Cu
O      0.55006  0.20914  0.05017     O
O      0.55006  0.20914  0.94983     O
O      0.55006  0.79086  0.05017     O
O      0.55006  0.79086  0.94983     O
O      0.55017  0.29086  0.05006     O
O      0.55017  0.29086  0.94994     O
O      0.55017  0.70914  0.05006     O
O      0.55017  0.70914  0.94994     O
C      0.56441     0.25  0.06441     C
C      0.56441     0.25  0.93559     C
C      0.56441     0.75  0.06441     C
C      0.56441     0.75  0.93559     C
C      0.60355     0.25  0.10355     C
C      0.60355     0.25  0.89645     C
C      0.60355     0.75  0.10355     C
C      0.60355     0.75  0.89645     C
H       0.6089   0.1779   0.1103     H
H       0.6089   0.1779   0.8897     H
H       0.6089   0.8221   0.1103     H
H       0.6089   0.8221   0.8897     H
H       0.6103   0.3221   0.1089     H
H       0.6103   0.3221   0.8911     H
H       0.6103   0.6779   0.1089     H
H       0.6103   0.6779   0.8911     H
C       0.6211   0.2072  0.12188     C
C       0.6211   0.2072  0.87812     C
C       0.6211   0.7928  0.12188     C
C       0.6211   0.7928  0.87812     C
C      0.62188   0.2928   0.1211     C
C      0.62188   0.2928   0.8789     C
C      0.62188   0.7072   0.1211     C
C      0.62188   0.7072   0.8789     C
C      0.65718  0.20679  0.15786     C
C      0.65718  0.20679  0.84214     C
C      0.65718  0.79321  0.15786     C
C      0.65718  0.79321  0.84214     C
C      0.65786  0.29321  0.15718     C
C      0.65786  0.29321  0.84282     C
C      0.65786  0.70679  0.15718     C
C      0.65786  0.70679  0.84282     C
H       0.6688   0.1773   0.1698     H
H       0.6688   0.1773   0.8302     H
H       0.6688   0.8227   0.1698     H
H       0.6688   0.8227   0.8302     H
H       0.6698   0.3227   0.1688     H
H       0.6698   0.3227   0.8312     H
H       0.6698   0.6773   0.1688     H
H       0.6698   0.6773   0.8312     H
C      0.67564     0.25  0.17564     C
C      0.67564     0.25  0.82436     C
C      0.67564     0.75  0.17564     C
C      0.67564     0.75  0.82436     C
H       0.6773   0.1688   0.3302     H
H       0.6773   0.1688   0.6698     H
H       0.6773   0.8312   0.3302     H
H       0.6773   0.8312   0.6698     H
H       0.6779   0.1089   0.3897     H
H       0.6779   0.1089   0.6103     H
H       0.6779   0.8911   0.3897     H
H       0.6779   0.8911   0.6103     H
H       0.6903   0.1903     0.25     H
H       0.6903   0.1903     0.75     H
H       0.6903   0.8097     0.25     H
H       0.6903   0.8097     0.75     H
Cu     0.70203      0.0      0.5    Cu
C      0.70679  0.15718  0.34214     C
C      0.70679  0.15718  0.65786     C
C      0.70679  0.84282  0.34214     C
C      0.70679  0.84282  0.65786     C
C       0.7072   0.1211  0.37812     C
C       0.7072   0.1211  0.62188     C
C       0.7072   0.8789  0.37812     C
C       0.7072   0.8789  0.62188     C
O      0.70914  0.05006  0.44983     O
O      0.70914  0.05006  0.55017     O
O      0.70914  0.94994  0.44983     O
O      0.70914  0.94994  0.55017     O
C      0.71407     0.25  0.21407     C
C      0.71407     0.25  0.78593     C
C      0.71407     0.75  0.21407     C
C      0.71407     0.75  0.78593     C
C       0.7142   0.2142     0.25     C
C       0.7142   0.2142     0.75     C
C       0.7142   0.7858     0.25     C
C       0.7142   0.7858     0.75     C
C         0.75  0.06441  0.43559     C
C         0.75  0.06441  0.56441     C
C         0.75  0.10355  0.39645     C
C         0.75  0.10355  0.60355     C
C         0.75  0.17564  0.32436     C
C         0.75  0.17564  0.67564     C
C         0.75  0.21407  0.28593     C
C         0.75  0.21407  0.71407     C
C         0.75   0.2858   0.2142     C
C         0.75   0.2858   0.7858     C
H         0.75   0.3097   0.1903     H
H         0.75   0.3097   0.8097     H
H         0.75   0.6903   0.1903     H
H         0.75   0.6903   0.8097     H
C         0.75   0.7142   0.2142     C
C         0.75   0.7142   0.7858     C
C         0.75  0.78593  0.28593     C
C         0.75  0.78593  0.71407     C
C         0.75  0.82436  0.32436     C
C         0.75  0.82436  0.67564     C
C         0.75  0.89645  0.39645     C
C         0.75  0.89645  0.60355     C
C         0.75  0.93559  0.43559     C
C         0.75  0.93559  0.56441     C
C       0.7858     0.25   0.2858     C
C       0.7858     0.25   0.7142     C
C       0.7858     0.75   0.2858     C
C       0.7858     0.75   0.7142     C
C      0.78593  0.28593     0.25     C
C      0.78593  0.28593     0.75     C
C      0.78593  0.71407     0.25     C
C      0.78593  0.71407     0.75     C
O      0.79086  0.05017  0.44994     O
O      0.79086  0.05017  0.55006     O
O      0.79086  0.94983  0.44994     O
O      0.79086  0.94983  0.55006     O
C       0.7928  0.12188   0.3789     C
C       0.7928  0.12188   0.6211     C
C       0.7928  0.87812   0.3789     C
C       0.7928  0.87812   0.6211     C
C      0.79321  0.15786  0.34282     C
C      0.79321  0.15786  0.65718     C
C      0.79321  0.84214  0.34282     C
C      0.79321  0.84214  0.65718     C
Cu     0.79797      0.0      0.5    Cu
H       0.8097     0.25   0.3097     H
H       0.8097     0.25   0.6903     H
H       0.8097     0.75   0.3097     H
H       0.8097     0.75   0.6903     H
H       0.8221   0.1103   0.3911     H
H       0.8221   0.1103   0.6089     H
H       0.8221   0.8897   0.3911     H
H       0.8221   0.8897   0.6089     H
H       0.8227   0.1698   0.3312     H
H       0.8227   0.1698   0.6688     H
H       0.8227   0.8302   0.3312     H
H       0.8227   0.8302   0.6688     H
C      0.82436  0.32436     0.25     C
C      0.82436  0.32436     0.75     C
C      0.82436  0.67564     0.25     C
C      0.82436  0.67564     0.75     C
H       0.8302   0.3312   0.1773     H
H       0.8302   0.3312   0.8227     H
H       0.8302   0.6688   0.1773     H
H       0.8302   0.6688   0.8227     H
H       0.8312   0.3302   0.3227     H
H       0.8312   0.3302   0.6773     H
H       0.8312   0.6698   0.3227     H
H       0.8312   0.6698   0.6773     H
C      0.84214  0.34282  0.20679     C
C      0.84214  0.34282  0.79321     C
C      0.84214  0.65718  0.20679     C
C      0.84214  0.65718  0.79321     C
C      0.84282  0.34214  0.29321     C
C      0.84282  0.34214  0.70679     C
C      0.84282  0.65786  0.29321     C
C      0.84282  0.65786  0.70679     C
C      0.87812   0.3789   0.2072     C
C      0.87812   0.3789   0.7928     C
C      0.87812   0.6211   0.2072     C
C      0.87812   0.6211   0.7928     C
C       0.8789  0.37812   0.2928     C
C       0.8789  0.37812   0.7072     C
C       0.8789  0.62188   0.2928     C
C       0.8789  0.62188   0.7072     C
H       0.8897   0.3911   0.1779     H
H       0.8897   0.3911   0.8221     H
H       0.8897   0.6089   0.1779     H
H       0.8897   0.6089   0.8221     H
H       0.8911   0.3897   0.3221     H
H       0.8911   0.3897   0.6779     H
H       0.8911   0.6103   0.3221     H
H       0.8911   0.6103   0.6779     H
C      0.89645  0.39645     0.25     C
C      0.89645  0.39645     0.75     C
C      0.89645  0.60355     0.25     C
C      0.89645  0.60355     0.75     C
C      0.93559  0.43559     0.25     C
C      0.93559  0.43559     0.75     C
C      0.93559  0.56441     0.25     C
C      0.93559  0.56441     0.75     C
O      0.94983  0.44994  0.20914     O
O      0.94983  0.44994  0.79086     O
O      0.94983  0.55006  0.20914     O
O      0.94983  0.55006  0.79086     O
O      0.94994  0.44983  0.29086     O
O      0.94994  0.44983  0.70914     O
O      0.94994  0.55017  0.29086     O
O      0.94994  0.55017  0.70914     O
