data_I
_chemical_name_common  '/home/zhangsd/repos/MofS-CGCNN/ML/data/TSD/clean_cifs/BENZUR_clean'
_cell_length_a  9.80900
_cell_length_b 11.05800
_cell_length_c 11.69800
_cell_angle_alpha 81.23000
_cell_angle_beta  81.57000
_cell_angle_gamma 81.25000
_space_group_name_H-M_alt      'P 1'


loop_
_space_group_symop_operation_xyz
  'x, y, z' 

loop_
_atom_site_label
_atom_site_fract_x
_atom_site_fract_y
_atom_site_fract_z
_atom_site_type_symbol
C        0.003   0.9796   0.3849     C
C       0.0041    0.903   0.5913     C
H       0.0051   0.9658   0.3082     H
H       0.0069    0.838   0.6519     H
C       0.0074    0.878   0.4744     C
C       0.0141   0.7548   0.4507     C
H       0.0163   0.4486   0.2104     H
C       0.0194    0.728   0.3355     C
C       0.0212   0.6539     0.54     C
N       0.0252   0.7066   0.2425     N
N       0.0292   0.5741   0.6148     N
Ba     0.05863  0.67533  0.00451    Ba
O      0.06449  0.44578  0.14405     O
H       0.1447   0.4088    0.156     H
N        0.216   0.4353   0.9088     N
N        0.243   0.7319   0.7943     N
H       0.2668   0.3822   0.6613     H
H       0.2897   0.3429   0.4734     H
H       0.2932   0.6868   0.5407     H
N       0.3103   0.2852   0.2225     N
H        0.316   0.6486   0.3537     H
C       0.3247   0.4189   0.8585     C
N        0.332   0.6097   0.0976     N
C       0.3495   0.7195   0.7403     C
C       0.3553   0.3686   0.6206     C
C       0.3689   0.3447   0.5079     C
C       0.3819   0.6731   0.5002     C
C       0.3954   0.6496   0.3882     C
C       0.4041   0.2902   0.2686     C
C       0.4255   0.6061   0.1452     C
C       0.4578   0.3975   0.7942     C
C       0.4723   0.3733   0.6768     C
C       0.4815   0.7015   0.6741     C
C       0.4979   0.6773   0.5572     C
C       0.5021   0.3227   0.4428     C
C       0.5185   0.2985   0.3259     C
C       0.5277   0.6267   0.3232     C
C       0.5422   0.6025   0.2058     C
C       0.5745   0.3939   0.8548     C
C       0.5959   0.7098   0.7314     C
C       0.6046   0.3504   0.6118     C
C       0.6181   0.3269   0.4998     C
C       0.6311   0.6553   0.4921     C
C       0.6447   0.6314   0.3794     C
C       0.6505   0.2805   0.2597     C
N        0.668   0.3903   0.9024     N
C       0.6753   0.5811   0.1415     C
H        0.684   0.3514   0.6463     H
N       0.6897   0.7148   0.7775     N
H       0.7068   0.3132   0.4593     H
H       0.7103   0.6571   0.5266     H
H       0.7332   0.6178   0.3387     H
N        0.757   0.2681   0.2057     N
N        0.784   0.5647   0.0912     N
H       0.8553   0.5912    0.844     H
O      0.93551  0.55422  0.85595     O
Ba     0.94137  0.32467  0.99549    Ba
N       0.9708   0.4259   0.3852     N
N       0.9748   0.2934   0.7575     N
C       0.9788   0.3461     0.46     C
C       0.9806    0.272   0.6645     C
H       0.9837   0.5514   0.7896     H
C       0.9859   0.2452   0.5493     C
C       0.9926    0.122   0.5256     C
H       0.9931    0.162   0.3481     H
H       0.9949   0.0342   0.6918     H
C       0.9959    0.097   0.4087     C
C        0.997   0.0204   0.6151     C
