data_I
_chemical_name_common  '/home/zhangsd/repos/MofS-CGCNN/ML/data/TSD/clean_cifs/BENZOL_clean'
_cell_length_a  9.78100
_cell_length_b 11.00700
_cell_length_c 11.38200
_cell_angle_alpha 80.46000
_cell_angle_beta  82.42000
_cell_angle_gamma 81.98000
_space_group_name_H-M_alt      'P 1'


loop_
_space_group_symop_operation_xyz
  'x, y, z' 

loop_
_atom_site_label
_atom_site_fract_x
_atom_site_fract_y
_atom_site_fract_z
_atom_site_type_symbol
C        0.001    0.016   0.6188     C
H       0.0021   0.0265   0.6981     H
C       0.0054   0.8782   0.4715     C
C       0.0054   0.8987   0.5912     C
H       0.0062   0.4504   0.2041     H
H       0.0086   0.8311   0.6523     H
C       0.0113   0.7572   0.4439     C
C       0.0124    0.731   0.3258     C
N        0.014   0.7077   0.2313     N
C       0.0198   0.6531   0.5357     C
N        0.028   0.5736   0.6135     N
O      0.05441  0.44762  0.13779     O
Sr     0.07137  0.66272  0.00273    Sr
H       0.1346   0.4107   0.1497     H
N       0.2206   0.4341   0.9126     N
N       0.2445   0.7219   0.8038     N
H       0.2681   0.3745   0.6616     H
H       0.2894   0.3359   0.4705     H
H       0.2929   0.6784   0.5462     H
N       0.3046   0.2859   0.2133     N
H       0.3138   0.6426   0.3549     H
N       0.3231   0.6088   0.0949     N
C       0.3292   0.4161   0.8629     C
C       0.3517   0.7128   0.7502     C
C       0.3561   0.3639   0.6196     C
C       0.3689    0.341   0.5053     C
C        0.381   0.6679   0.5044     C
C       0.3935   0.6459   0.3901     C
C       0.4003   0.2924   0.2588     C
C       0.4204   0.6069   0.1418     C
C       0.4613   0.3965    0.797     C
C       0.4753   0.3722   0.6773     C
C       0.4838   0.6988   0.6828     C
C       0.4993   0.6755   0.5628     C
C       0.5007   0.3245   0.4372     C
C       0.5162   0.3012   0.3172     C
C       0.5247   0.6278   0.3227     C
C       0.5387   0.6035    0.203     C
C       0.5796   0.3931   0.8582     C
C       0.5997   0.7076   0.7412     C
C       0.6065   0.3541   0.6099     C
C        0.619   0.3321   0.4956     C
C       0.6311    0.659   0.4947     C
C       0.6439   0.6361   0.3804     C
C       0.6483   0.2872   0.2498     C
C       0.6708   0.5839   0.1371     C
N       0.6769   0.3912   0.9051     N
H       0.6862   0.3574   0.6451     H
N       0.6954   0.7141   0.7867     N
H       0.7071   0.3216   0.4538     H
H       0.7106   0.6641   0.5295     H
H       0.7319   0.6255   0.3384     H
N       0.7555   0.2781   0.1962     N
N       0.7794   0.5659   0.0874     N
H       0.8654   0.5893   0.8503     H
Sr     0.92863  0.33728  0.99727    Sr
O      0.94559  0.55238  0.86221     O
N        0.972   0.4264   0.3865     N
C       0.9802   0.3469   0.4643     C
N        0.986   0.2923   0.7687     N
C       0.9876    0.269   0.6742     C
C       0.9887   0.2428   0.5561     C
H       0.9914   0.1689   0.3477     H
H       0.9938   0.5496   0.7959     H
C       0.9946   0.1013   0.4088     C
C       0.9946   0.1218   0.5285     C
H       0.9979   0.9735   0.3019     H
C        0.999    0.984   0.3812     C
