data_I
_chemical_name_common  '/home/zhangsd/repos/MofS-CGCNN/ML/data/TSD/clean_cifs/BEPREV01_clean'
_cell_length_a 29.15100
_cell_length_b 29.15100
_cell_length_c 23.07000
_cell_angle_alpha 90.00000
_cell_angle_beta  90.00000
_cell_angle_gamma 120.00000
_space_group_name_H-M_alt      'P 1'


loop_
_space_group_symop_operation_xyz
  'x, y, z' 

loop_
_atom_site_label
_atom_site_fract_x
_atom_site_fract_y
_atom_site_fract_z
_atom_site_type_symbol
H          0.0      0.0  0.20663     H
O          0.0      0.0     0.25     O
H          0.0      0.0  0.29337     H
H          0.0      0.0  0.70663     H
O          0.0      0.0     0.75     O
H          0.0      0.0  0.79337     H
Ni         0.0   0.0686     0.75    Ni
N          0.0  0.13995     0.75     N
C          0.0  0.23595     0.75     C
C          0.0  0.28735     0.75     C
N          0.0  0.38355     0.75     N
N          0.0  0.61645     0.25     N
C          0.0  0.71265     0.25     C
C          0.0  0.76405     0.25     C
N          0.0  0.86005     0.25     N
Ni         0.0   0.9314     0.25    Ni
C       0.0009   0.3783   0.0697     C
C       0.0009   0.6226   0.5697     C
H        0.001   0.4101   0.0603     H
H        0.001   0.5909   0.5603     H
C      0.00333  0.10027  0.17787     C
C      0.00333  0.90307  0.67787     C
C      0.00443  0.28947  0.09697     C
C      0.00443  0.71497  0.59697     C
C      0.00513  0.14887  0.15167     C
C      0.00513  0.85627  0.65167     C
C      0.00593  0.24067  0.11247     C
C      0.00593  0.76527  0.61247     C
C      0.04077  0.23153  0.38783     C
C      0.04077  0.80923  0.88783     C
C      0.04097  0.18743  0.36733     C
C      0.04097  0.85353  0.86733     C
O      0.04133  0.10409  0.30883     O
O      0.04133  0.93723  0.80883     O
C      0.04387  0.38163  0.76363     C
C      0.04387  0.66223  0.26363     C
C      0.04407  0.33243  0.40303     C
C      0.04407  0.71163  0.90303     C
C      0.04473  0.18657  0.75387     C
C      0.04473  0.85817  0.25387     C
C      0.04497  0.33423  0.76363     C
C      0.04497  0.71073  0.26363     C
C      0.04598  0.37932  0.41667     C
C      0.04598  0.66667  0.91667     C
O      0.04661  0.10155  0.18437     O
O      0.04661  0.94507  0.68437     O
C      0.04693  0.23467  0.75427     C
C      0.04693  0.81227  0.25427     C
C       0.0483   0.3772   0.0697     C
C       0.0483   0.6711   0.5697     C
N      0.05022  0.33333  0.08333     N
N      0.05022  0.71688  0.58333     N
C      0.05173  0.19607  0.14577     C
C      0.05173  0.85567  0.64577     C
C      0.05203  0.24147  0.12647     C
C      0.05203  0.81057  0.62647     C
O      0.05493  0.10155  0.68437     O
O      0.05493  0.95339  0.18437     O
H      0.05977  0.47793  0.78973     H
H      0.05977  0.58183  0.28973     H
O      0.06277  0.10409  0.80883     O
O      0.06277  0.95867  0.30883     O
H      0.06677  0.48003  0.42403     H
H      0.06677  0.58673  0.92403     H
Ni      0.0686      0.0     0.75    Ni
Ni      0.0686   0.0686     0.25    Ni
H      0.07267  0.26033  0.40243     H
H      0.07267  0.81233  0.90243     H
H        0.073    0.479   0.0691     H
H        0.073    0.594   0.5691     H
H      0.07327  0.18693  0.36613     H
H      0.07327  0.88633  0.86613     H
H      0.07577  0.33233  0.39363     H
H      0.07577  0.74343  0.89363     H
H      0.07677  0.33433  0.77303     H
H      0.07677  0.74243  0.27303     H
H      0.07713  0.18637  0.75657     H
H      0.07713  0.89077  0.25657     H
H      0.07993  0.26657  0.75737     H
H      0.07993  0.81337  0.25737     H
H      0.08433  0.19767  0.15487     H
H      0.08433  0.88667  0.65487     H
H      0.08483  0.27357  0.12307     H
H      0.08483  0.81127  0.62307     H
C      0.09187  0.47723  0.79313     C
C      0.09187  0.61463  0.29313     C
C      0.09267  0.43193  0.77913     C
C      0.09267  0.66073  0.27913     C
C      0.09693  0.10027  0.67787     C
C      0.09693  0.99667  0.17787     C
C      0.09738  0.43072  0.41667     C
C      0.09738  0.66667  0.91667     C
C       0.0986    0.426   0.0542     C
C       0.0986   0.6726   0.5542     C
C      0.09867  0.47893  0.42093     C
C      0.09867  0.61973  0.92093     C
C      0.10027  0.00333  0.32213     C
C      0.10027  0.09693  0.82213     C
O      0.10155  0.04661  0.31563     O
O      0.10155  0.05493  0.81563     O
C       0.1018   0.4759   0.0545     C
C       0.1018   0.6259   0.5545     C
O      0.10409  0.04133  0.19117     O
O      0.10409  0.06277  0.69117     O
H      0.10923  0.18637  0.25657     H
H      0.10923  0.92287  0.75657     H
H      0.11333  0.19767  0.65487     H
H      0.11333  0.91567  0.15487     H
H      0.11367  0.18693  0.86613     H
H      0.11367  0.92673  0.36613     H
H      0.13567  0.55333  0.82153     H
H      0.13567  0.58233  0.32153     H
C      0.13727  0.52233  0.81243     C
C      0.13727  0.61493  0.31243     C
N      0.13995      0.0     0.75     N
N      0.13995  0.13995     0.25     N
C      0.14183  0.18657  0.25387     C
C      0.14183  0.95527  0.75387     C
C      0.14257  0.43513  0.77883     C
C      0.14257  0.70743  0.27883     C
C      0.14373  0.14887  0.65167     C
C      0.14373  0.99487  0.15167     C
C       0.1439   0.4252   0.0402     C
C       0.1439   0.7187   0.5402     C
C      0.14433  0.19607  0.64577     C
C      0.14433  0.94827  0.14577     C
H       0.1446   0.3931   0.0436     H
H       0.1446   0.7515   0.5436     H
C       0.1456    0.432   0.4124     C
C       0.1456   0.7136   0.9124     C
H      0.14567  0.40633  0.76423     H
H      0.14567  0.73933  0.26423     H
C       0.1459   0.5202    0.034     C
C       0.1459   0.6257    0.534     C
H       0.1464    0.553   0.0328     H
H       0.1464   0.5934   0.5328     H
C      0.14647  0.18743  0.86733     C
C      0.14647  0.95903  0.36733     C
H       0.1467   0.4001   0.4093     H
H       0.1467   0.7466   0.9093     H
C      0.14677  0.52483  0.42053     C
C      0.14677  0.62193  0.92053     C
H      0.14697  0.55743  0.42323     H
H      0.14697  0.58953  0.92323     H
C      0.14887  0.00513  0.34833     C
C      0.14887  0.14373  0.84833     C
C      0.18447  0.52293  0.81833     C
C      0.18447  0.66153  0.31833     C
H      0.18637  0.07713  0.74343     H
H      0.18637  0.10923  0.24343     H
C      0.18657  0.04473  0.74613     C
C      0.18657  0.14183  0.24613     C
H      0.18663  0.26657  0.25737     H
H      0.18663  0.92007  0.75737     H
C      0.18687  0.47923  0.79933     C
C      0.18687  0.70763  0.29933     C
H      0.18693  0.07327  0.13387     H
H      0.18693  0.11367  0.63387     H
C      0.18743  0.04097  0.13267     C
C      0.18743  0.14647  0.63267     C
H      0.18767  0.26033  0.90243     H
H      0.18767  0.92733  0.40243     H
C      0.18773  0.23467  0.25427     C
C      0.18773  0.95307  0.75427     C
H      0.18873  0.27357  0.62307     H
H      0.18873  0.91517  0.12307     H
C        0.189   0.4706   0.0209     C
C        0.189   0.7184   0.5209     C
C      0.18943  0.24147  0.62647     C
C      0.18943  0.94797  0.12647     C
C       0.1896   0.5178    0.015     C
C       0.1896   0.6718    0.515     C
C      0.19077  0.23153  0.88783     C
C      0.19077  0.95923  0.38783     C
C       0.1915   0.4801   0.4128     C
C       0.1915   0.7114   0.9128     C
N      0.19338  0.52672  0.41667     N
N      0.19338  0.66667  0.91667     N
C      0.19607  0.05173  0.35423     C
C      0.19607  0.14433  0.85423     C
H      0.19767  0.08433  0.34513     H
H      0.19767  0.11333  0.84513     H
H      0.21967  0.47973  0.80053     H
H      0.21967  0.73993  0.30053     H
H         0.22    0.469   0.0118     H
H         0.22    0.751   0.5118     H
H       0.2241   0.4803   0.4101     H
H       0.2241   0.7438   0.9101     H
O      0.22924   0.6039   0.9755     O
O      0.22924  0.62534   0.4755     O
C      0.23153  0.04077  0.11217     C
C      0.23153  0.19077  0.61217     C
O      0.23179  0.61173  0.85103     O
O      0.23179  0.62005  0.35103     O
C      0.23307  0.56973  0.84453     C
C      0.23307  0.66333  0.34453     C
C      0.23467  0.04693  0.74573     C
C      0.23467  0.18773  0.24573     C
C      0.23473  0.24067  0.61247     C
C      0.23473  0.99407  0.11247     C
C      0.23595      0.0     0.75     C
C      0.23595  0.23595     0.25     C
C       0.2364   0.5664   0.9888     C
C       0.2364     0.67   0.4888     C
C      0.24067  0.00593  0.38753     C
C      0.24067  0.23473  0.88753     C
C      0.24147  0.05203  0.37353     C
C      0.24147  0.18943  0.87353     C
H       0.2485   0.3931   0.5436     H
H       0.2485   0.8554   0.0436     H
H        0.249    0.469   0.5118     H
H        0.249     0.78   0.0118     H
H       0.2534   0.4001   0.9093     H
H       0.2534   0.8533   0.4093     H
H       0.2562   0.4803   0.9101     H
H       0.2562   0.7759   0.4101     H
H      0.25657  0.33233  0.89363     H
H      0.25657  0.92423  0.39363     H
H      0.25757  0.33433  0.27303     H
H      0.25757  0.92323  0.77303     H
H      0.26007  0.47973  0.30053     H
H      0.26007  0.78033  0.80053     H
H      0.26033  0.07267  0.09757     H
H      0.26033  0.18767  0.59757     H
H      0.26067  0.40633  0.26423     H
H      0.26067  0.85433  0.76423     H
Ni     0.26473  0.59807  0.41667    Ni
Ni     0.26473  0.66667  0.91667    Ni
H      0.26657  0.07993  0.74263     H
H      0.26657  0.18663  0.24263     H
O      0.27057  0.56257  0.85783     O
O      0.27057  0.70799  0.35783     O
H      0.27357  0.08483  0.37693     H
H      0.27357  0.18873  0.87693     H
O       0.2784  0.56512   0.9823     O
O       0.2784  0.71328   0.4823     O
C       0.2813   0.4252   0.5402     C
C       0.2813   0.8561   0.0402     C
C       0.2816   0.4706   0.5209     C
C       0.2816    0.811   0.0209     C
N      0.28312  0.33333  0.58333     N
N      0.28312  0.94978  0.08333     N
C      0.28503  0.28947  0.59697     C
C      0.28503  0.99557  0.09697     C
C       0.2864    0.432   0.9124     C
C       0.2864   0.8544   0.4124     C
O      0.28672  0.56512   0.4823     O
O      0.28672   0.7216   0.9823     O
C      0.28735      0.0     0.75     C
C      0.28735  0.28735     0.25     C
C      0.28837  0.33243  0.90303     C
C      0.28837  0.95593  0.40303     C
C       0.2886   0.4801   0.9128     C
C       0.2886   0.8085   0.4128     C
C      0.28927  0.33423  0.26363     C
C      0.28927  0.95503  0.76363     C
C      0.28947  0.00443  0.40303     C
C      0.28947  0.28503  0.90303     C
O      0.29201  0.56257  0.35783     O
O      0.29201  0.72943  0.85783     O
C      0.29237  0.47923  0.29933     C
C      0.29237  0.81313  0.79933     C
C      0.29257  0.43513  0.27883     C
C      0.29257  0.85743  0.77883     C
C       0.3274    0.426   0.5542     C
C       0.3274   0.9014   0.0542     C
C       0.3282   0.5178    0.515     C
C       0.3282   0.8104    0.015     C
C       0.3289   0.3772   0.5697     C
C       0.3289   0.9517   0.0697     C
C         0.33   0.5664   0.4888     C
C         0.33   0.7636   0.9888     C
H      0.33233  0.07577  0.10637     H
H      0.33233  0.25657  0.60637     H
C      0.33243  0.04407  0.09697     C
C      0.33243  0.28837  0.59697     C
N      0.33333  0.05022  0.41667     N
N      0.33333  0.28312  0.91667     N
C      0.33333  0.37932  0.91667     C
C      0.33333  0.43072  0.91667     C
N      0.33333  0.52672  0.91667     N
Ni     0.33333  0.59807  0.91667    Ni
H      0.33333  0.66667   0.3733     H
O      0.33333  0.66667  0.41667     O
H      0.33333  0.66667  0.46003     H
H      0.33333  0.66667   0.8733     H
O      0.33333  0.66667  0.91667     O
H      0.33333  0.66667  0.96003     H
Ni     0.33333  0.73527  0.41667    Ni
N      0.33333  0.80662  0.41667     N
C      0.33333  0.90262  0.41667     C
C      0.33333  0.95402  0.41667     C
C      0.33423  0.04497  0.73637     C
C      0.33423  0.28927  0.23637     C
H      0.33433  0.07677  0.72697     H
H      0.33433  0.25757  0.22697     H
C      0.33667  0.56973  0.34453     C
C      0.33667  0.76693  0.84453     C
C      0.33777  0.38163  0.26363     C
C      0.33777  0.95613  0.76363     C
C      0.33847  0.52293  0.31833     C
C      0.33847  0.81553  0.81833     C
C      0.33927  0.43193  0.27913     C
C      0.33927  0.90733  0.77913     C
C       0.3741   0.4759   0.5545     C
C       0.3741   0.8982   0.0545     C
C       0.3743   0.5202    0.534     C
C       0.3743   0.8541    0.034     C
O      0.37466   0.6039   0.4755     O
O      0.37466  0.77076   0.9755     O
C       0.3772   0.0483   0.4303     C
C       0.3772   0.3289   0.9303     C
C       0.3774   0.3783   0.5697     C
C       0.3774   0.9991   0.0697     C
C      0.37807  0.52483  0.92053     C
C      0.37807  0.85323  0.42053     C
C       0.3783   0.0009   0.4303     C
C       0.3783   0.3774   0.9303     C
C      0.37932  0.04598  0.08333     C
C      0.37932  0.33333  0.58333     C
O      0.37995  0.61173  0.35103     O
O      0.37995  0.76821  0.85103     O
C      0.38027  0.47893  0.92093     C
C      0.38027  0.90133  0.42093     C
C      0.38163  0.04387  0.73637     C
C      0.38163  0.33777  0.23637     C
N      0.38355      0.0     0.75     N
N      0.38355  0.38355     0.25     N
C      0.38507  0.52233  0.31243     C
C      0.38507  0.86273  0.81243     C
C      0.38537  0.47723  0.29313     C
C      0.38537  0.90813  0.79313     C
O      0.38827  0.62005  0.85103     O
O      0.38827  0.76821  0.35103     O
H       0.3931   0.1446   0.4564     H
H       0.3931   0.2485   0.9564     H
O       0.3961  0.62534   0.9755     O
O       0.3961  0.77076   0.4755     O
H       0.4001   0.1467   0.0907     H
H       0.4001   0.2534   0.5907     H
Ni     0.40193  0.66667  0.41667    Ni
Ni     0.40193  0.73527  0.91667    Ni
H        0.406    0.479   0.5691     H
H        0.406    0.927   0.0691     H
H      0.40633  0.14567  0.73577     H
H      0.40633  0.26067  0.23577     H
H       0.4066    0.553   0.5328     H
H       0.4066   0.8536   0.0328     H
H       0.4091   0.4101   0.5603     H
H       0.4091    0.999   0.0603     H
H       0.4101    0.001   0.4397     H
H       0.4101   0.4091   0.9397     H
H      0.41047  0.55743  0.92323     H
H      0.41047  0.85303  0.42323     H
H      0.41327  0.48003  0.92403     H
H      0.41327  0.93323  0.42403     H
H      0.41767  0.55333  0.32153     H
H      0.41767  0.86433  0.82153     H
H      0.41817  0.47793  0.28973     H
H      0.41817  0.94023  0.78973     H
C       0.4252   0.1439   0.4598     C
C       0.4252   0.2813   0.9598     C
C        0.426   0.0986   0.4458     C
C        0.426   0.3274   0.9458     C
C      0.43027  0.66333  0.84453     C
C      0.43027  0.76693  0.34453     C
C      0.43072  0.09738  0.08333     C
C      0.43072  0.33333  0.58333     C
C      0.43193  0.09267  0.72087     C
C      0.43193  0.33927  0.22087     C
C        0.432   0.1456   0.0876     C
C        0.432   0.2864   0.5876     C
C       0.4336     0.67   0.9888     C
C       0.4336   0.7636   0.4888     C
O      0.43488  0.71328   0.9823     O
O      0.43488   0.7216   0.4823     O
C      0.43513  0.14257  0.72117     C
C      0.43513  0.29257  0.22117     C
O      0.43743  0.70799  0.85783     O
O      0.43743  0.72943  0.35783     O
H      0.44257  0.58953  0.42323     H
H      0.44257  0.85303  0.92323     H
H      0.44667  0.58233  0.82153     H
H      0.44667  0.86433  0.32153     H
H        0.447   0.5934   0.0328     H
H        0.447   0.8536   0.5328     H
H        0.469     0.22   0.4882     H
H        0.469    0.249   0.9882     H
C       0.4706    0.189   0.4791     C
C       0.4706   0.2816   0.9791     C
N      0.47328  0.66667  0.41667     N
N      0.47328  0.80662  0.91667     N
C      0.47517  0.62193  0.42053     C
C      0.47517  0.85323  0.92053     C
C       0.4759   0.1018   0.4455     C
C       0.4759   0.3741   0.9455     C
C      0.47707  0.66153  0.81833     C
C      0.47707  0.81553  0.31833     C
C      0.47723  0.09187  0.70687     C
C      0.47723  0.38537  0.20687     C
C      0.47767  0.61493  0.81243     C
C      0.47767  0.86273  0.31243     C
H      0.47793  0.05977  0.71027     H
H      0.47793  0.41817  0.21027     H
C      0.47893  0.09867  0.07907     C
C      0.47893  0.38027  0.57907     C
H        0.479    0.073   0.4309     H
H        0.479    0.406   0.9309     H
C      0.47923  0.18687  0.70067     C
C      0.47923  0.29237  0.20067     C
H      0.47973  0.21967  0.69947     H
H      0.47973  0.26007  0.19947     H
C       0.4798   0.6257    0.034     C
C       0.4798   0.8541    0.534     C
H      0.48003  0.06677  0.07597     H
H      0.48003  0.41327  0.57597     H
C       0.4801   0.1915   0.0872     C
C       0.4801   0.2886   0.5872     C
H       0.4803   0.2241   0.0899     H
H       0.4803   0.2562   0.5899     H
C       0.4822   0.6718    0.015     C
C       0.4822   0.8104    0.515     C
C       0.5178   0.1896    0.485     C
C       0.5178   0.3282    0.985     C
H       0.5197   0.7438   0.4101     H
H       0.5197   0.7759   0.9101     H
C       0.5199   0.7114   0.4128     C
C       0.5199   0.8085   0.9128     C
H      0.51997  0.58673  0.42403     H
H      0.51997  0.93323  0.92403     H
C       0.5202   0.1459    0.466     C
C       0.5202   0.3743    0.966     C
H      0.52027  0.73993  0.80053     H
H      0.52027  0.78033  0.30053     H
C      0.52077  0.70763  0.79933     C
C      0.52077  0.81313  0.29933     C
H        0.521    0.594   0.0691     H
H        0.521    0.927   0.5691     H
C      0.52107  0.61973  0.42093     C
C      0.52107  0.90133  0.92093     C
H      0.52207  0.58183  0.78973     H
H      0.52207  0.94023  0.28973     H
C      0.52233  0.13727  0.68757     C
C      0.52233  0.38507  0.18757     C
C      0.52277  0.61463  0.79313     C
C      0.52277  0.90813  0.29313     C
C      0.52293  0.18447  0.68167     C
C      0.52293  0.33847  0.18167     C
C       0.5241   0.6259   0.0545     C
C       0.5241   0.8982   0.5545     C
C      0.52483  0.14677  0.07947     C
C      0.52483  0.37807  0.57947     C
N      0.52672  0.19338  0.08333     N
N      0.52672  0.33333  0.58333     N
C       0.5294   0.7184   0.0209     C
C       0.5294    0.811   0.5209     C
H        0.531    0.751   0.0118     H
H        0.531     0.78   0.5118     H
H        0.553   0.1464   0.4672     H
H        0.553   0.4066   0.9672     H
H      0.55333  0.13567  0.67847     H
H      0.55333  0.41767  0.17847     H
H      0.55743  0.14697  0.07677     H
H      0.55743  0.41047  0.57677     H
O      0.56257  0.27057  0.64217     O
O      0.56257  0.29201  0.14217     O
C      0.56487  0.70743  0.77883     C
C      0.56487  0.85743  0.27883     C
O      0.56512   0.2784   0.5177     O
O      0.56512  0.28672   0.0177     O
C       0.5664   0.2364   0.5112     C
C       0.5664     0.33   0.0112     C
C        0.568   0.7136   0.4124     C
C        0.568   0.8544   0.9124     C
C      0.56807  0.66073  0.77913     C
C      0.56807  0.90733  0.27913     C
C      0.56928  0.66667  0.41667     C
C      0.56928  0.90262  0.91667     C
C      0.56973  0.23307  0.65547     C
C      0.56973  0.33667  0.15547     C
C        0.574   0.6726   0.0542     C
C        0.574   0.9014   0.5542     C
C       0.5748   0.7187   0.0402     C
C       0.5748   0.8561   0.5402     C
H      0.58183  0.05977  0.21027     H
H      0.58183  0.52207  0.71027     H
H      0.58233  0.13567  0.17847     H
H      0.58233  0.44667  0.67847     H
H      0.58673  0.06677  0.57597     H
H      0.58673  0.51997  0.07597     H
H      0.58953  0.14697  0.57677     H
H      0.58953  0.44257  0.07677     H
H       0.5899   0.5909   0.0603     H
H       0.5899    0.999   0.5603     H
H       0.5909    0.001   0.9397     H
H       0.5909   0.5899   0.4397     H
H       0.5934   0.1464   0.9672     H
H       0.5934    0.447   0.4672     H
H      0.59367  0.73933  0.76423     H
H      0.59367  0.85433  0.26423     H
H        0.594    0.073   0.9309     H
H        0.594    0.521   0.4309     H
Ni     0.59807  0.26473  0.08333    Ni
Ni     0.59807  0.33333  0.58333    Ni
H       0.5999   0.7466   0.4093     H
H       0.5999   0.8533   0.9093     H
O       0.6039  0.22924   0.5245     O
O       0.6039  0.37466   0.0245     O
H       0.6069   0.7515   0.0436     H
H       0.6069   0.8554   0.5436     H
O      0.61173  0.23179  0.64897     O
O      0.61173  0.37995  0.14897     O
C      0.61463  0.09187  0.20687     C
C      0.61463  0.52277  0.70687     C
C      0.61493  0.13727  0.18757     C
C      0.61493  0.47767  0.68757     C
N      0.61645      0.0     0.25     N
N      0.61645  0.61645     0.75     N
C      0.61837  0.66223  0.76363     C
C      0.61837  0.95613  0.26363     C
C      0.61973  0.09867  0.57907     C
C      0.61973  0.52107  0.07907     C
O      0.62005  0.23179  0.14897     O
O      0.62005  0.38827  0.64897     O
C      0.62068  0.66667  0.41667     C
C      0.62068  0.95402  0.91667     C
C       0.6217   0.6226   0.0697     C
C       0.6217   0.9991   0.5697     C
C      0.62193  0.14677  0.57947     C
C      0.62193  0.47517  0.07947     C
C       0.6226   0.0009   0.9303     C
C       0.6226   0.6217   0.4303     C
C       0.6228   0.6711   0.0697     C
C       0.6228   0.9517   0.5697     C
O      0.62534  0.22924   0.0245     O
O      0.62534   0.3961   0.5245     O
C       0.6257   0.1459    0.966     C
C       0.6257   0.4798    0.466     C
C       0.6259   0.1018   0.9455     C
C       0.6259   0.5241   0.4455     C
C      0.66073  0.09267  0.22087     C
C      0.66073  0.56807  0.72087     C
C      0.66153  0.18447  0.18167     C
C      0.66153  0.47707  0.68167     C
C      0.66223  0.04387  0.23637     C
C      0.66223  0.61837  0.73637     C
C      0.66333  0.23307  0.15547     C
C      0.66333  0.43027  0.65547     C
H      0.66567  0.74243  0.77303     H
H      0.66567  0.92323  0.27303     H
C      0.66577  0.71073  0.76363     C
C      0.66577  0.95503  0.26363     C
C      0.66667  0.04598  0.58333     C
C      0.66667  0.09738  0.58333     C
N      0.66667  0.19338  0.58333     N
Ni     0.66667  0.26473  0.58333    Ni
H      0.66667  0.33333  0.03997     H
O      0.66667  0.33333  0.08333     O
H      0.66667  0.33333   0.1267     H
H      0.66667  0.33333  0.53997     H
O      0.66667  0.33333  0.58333     O
H      0.66667  0.33333   0.6267     H
Ni     0.66667  0.40193  0.08333    Ni
N      0.66667  0.47328  0.08333     N
C      0.66667  0.56928  0.08333     C
C      0.66667  0.62068  0.08333     C
N      0.66667  0.71688  0.08333     N
N      0.66667  0.94978  0.58333     N
C      0.66757  0.71163  0.40303     C
C      0.66757  0.95593  0.90303     C
H      0.66767  0.74343  0.39363     H
H      0.66767  0.92423  0.89363     H
C         0.67   0.2364   0.0112     C
C         0.67   0.4336   0.5112     C
C       0.6711   0.0483   0.9303     C
C       0.6711   0.6228   0.4303     C
C       0.6718   0.1896    0.985     C
C       0.6718   0.4822    0.485     C
C       0.6726   0.0986   0.9458     C
C       0.6726    0.574   0.4458     C
C      0.70743  0.14257  0.22117     C
C      0.70743  0.56487  0.72117     C
C      0.70763  0.18687  0.20067     C
C      0.70763  0.52077  0.70067     C
O      0.70799  0.27057  0.14217     O
O      0.70799  0.43743  0.64217     O
C      0.71053  0.71497  0.09697     C
C      0.71053  0.99557  0.59697     C
C      0.71073  0.04497  0.23637     C
C      0.71073  0.66577  0.73637     C
C       0.7114   0.1915   0.5872     C
C       0.7114   0.5199   0.0872     C
C      0.71163  0.04407  0.59697     C
C      0.71163  0.66757  0.09697     C
C      0.71265      0.0     0.25     C
C      0.71265  0.71265     0.75     C
O      0.71328   0.2784   0.0177     O
O      0.71328  0.43488   0.5177     O
C       0.7136   0.1456   0.5876     C
C       0.7136    0.568   0.0876     C
C      0.71497  0.00443  0.90303     C
C      0.71497  0.71053  0.40303     C
N      0.71688  0.05022  0.91667     N
N      0.71688  0.66667  0.41667     N
C       0.7184    0.189   0.9791     C
C       0.7184   0.5294   0.4791     C
C       0.7187   0.1439   0.9598     C
C       0.7187   0.5748   0.4598     C
O       0.7216  0.28672   0.5177     O
O       0.7216  0.43488   0.0177     O
H      0.72643  0.81127  0.12307     H
H      0.72643  0.91517  0.62307     H
O      0.72943  0.29201  0.64217     O
O      0.72943  0.43743  0.14217     O
H      0.73343  0.81337  0.75737     H
H      0.73343  0.92007  0.25737     H
Ni     0.73527  0.33333  0.08333    Ni
Ni     0.73527  0.40193  0.58333    Ni
H      0.73933  0.14567  0.23577     H
H      0.73933  0.59367  0.73577     H
H      0.73967  0.81233  0.40243     H
H      0.73967  0.92733  0.90243     H
H      0.73993  0.21967  0.19947     H
H      0.73993  0.52027  0.69947     H
H      0.74243  0.07677  0.22697     H
H      0.74243  0.66567  0.72697     H
H      0.74343  0.07577  0.60637     H
H      0.74343  0.66767  0.10637     H
H       0.7438   0.2241   0.5899     H
H       0.7438   0.5197   0.0899     H
H       0.7466   0.1467   0.5907     H
H       0.7466   0.5999   0.0907     H
H        0.751     0.22   0.9882     H
H        0.751    0.531   0.4882     H
H       0.7515   0.1446   0.9564     H
H       0.7515   0.6069   0.4564     H
C      0.75853  0.81057  0.12647     C
C      0.75853  0.94797  0.62647     C
C      0.75933  0.76527  0.11247     C
C      0.75933  0.99407  0.61247     C
C       0.7636     0.33   0.5112     C
C       0.7636   0.4336   0.0112     C
C      0.76405      0.0     0.25     C
C      0.76405  0.76405     0.75     C
C      0.76527  0.00593  0.88753     C
C      0.76527  0.75933  0.38753     C
C      0.76533  0.81227  0.75427     C
C      0.76533  0.95307  0.25427     C
C      0.76693  0.33667  0.65547     C
C      0.76693  0.43027  0.15547     C
O      0.76821  0.37995  0.64897     O
O      0.76821  0.38827  0.14897     O
C      0.76847  0.80923  0.38783     C
C      0.76847  0.95923  0.88783     C
O      0.77076  0.37466   0.5245     O
O      0.77076   0.3961   0.0245     O
H       0.7759   0.2562   0.0899     H
H       0.7759   0.5197   0.5899     H
H         0.78    0.249   0.4882     H
H         0.78    0.531   0.9882     H
H      0.78033  0.26007  0.69947     H
H      0.78033  0.52027  0.19947     H
H      0.80233  0.88667  0.15487     H
H      0.80233  0.91567  0.65487     H
C      0.80393  0.85567  0.14577     C
C      0.80393  0.94827  0.64577     C
N      0.80662  0.33333  0.08333     N
N      0.80662  0.47328  0.58333     N
C       0.8085   0.2886   0.0872     C
C       0.8085   0.5199   0.5872     C
C      0.80923  0.04077  0.61217     C
C      0.80923  0.76847  0.11217     C
C       0.8104   0.3282    0.485     C
C       0.8104   0.4822    0.985     C
C      0.81057  0.05203  0.87353     C
C      0.81057  0.75853  0.37353     C
C        0.811   0.2816   0.4791     C
C        0.811   0.5294   0.9791     C
H      0.81127  0.08483  0.87693     H
H      0.81127  0.72643  0.37693     H
C      0.81227  0.04693  0.24573     C
C      0.81227  0.76533  0.74573     C
H      0.81233  0.07267  0.59757     H
H      0.81233  0.73967  0.09757     H
C      0.81257  0.85353  0.36733     C
C      0.81257  0.95903  0.86733     C
H      0.81307  0.88633  0.36613     H
H      0.81307  0.92673  0.86613     H
C      0.81313  0.29237  0.70067     C
C      0.81313  0.52077  0.20067     C
H      0.81337  0.07993  0.24263     H
H      0.81337  0.73343  0.74263     H
C      0.81343  0.85817  0.75387     C
C      0.81343  0.95527  0.25387     C
H      0.81363  0.89077  0.75657     H
H      0.81363  0.92287  0.25657     H
C      0.81553  0.33847  0.68167     C
C      0.81553  0.47707  0.18167     C
C      0.85113  0.85627  0.15167     C
C      0.85113  0.99487  0.65167     C
H      0.85303  0.41047  0.07677     H
H      0.85303  0.44257  0.57677     H
C      0.85323  0.37807  0.07947     C
C      0.85323  0.47517  0.57947     C
H       0.8533   0.2534   0.0907     H
H       0.8533   0.5999   0.5907     H
C      0.85353  0.04097  0.63267     C
C      0.85353  0.81257  0.13267     C
H       0.8536   0.4066   0.4672     H
H       0.8536    0.447   0.9672     H
C       0.8541   0.3743    0.466     C
C       0.8541   0.4798    0.966     C
H      0.85433  0.26067  0.73577     H
H      0.85433  0.59367  0.23577     H
C       0.8544   0.2864   0.0876     C
C       0.8544    0.568   0.5876     C
H       0.8554   0.2485   0.4564     H
H       0.8554   0.6069   0.9564     H
C      0.85567  0.05173  0.85423     C
C      0.85567  0.80393  0.35423     C
C       0.8561   0.2813   0.4598     C
C       0.8561   0.5748   0.9598     C
C      0.85627  0.00513  0.84833     C
C      0.85627  0.85113  0.34833     C
C      0.85743  0.29257  0.72117     C
C      0.85743  0.56487  0.22117     C
C      0.85817  0.04473  0.24613     C
C      0.85817  0.81343  0.74613     C
N      0.86005      0.0     0.25     N
N      0.86005  0.86005     0.75     N
C      0.86273  0.38507  0.68757     C
C      0.86273  0.47767  0.18757     C
H      0.86433  0.41767  0.67847     H
H      0.86433  0.44667  0.17847     H
H      0.88633  0.07327  0.63387     H
H      0.88633  0.81307  0.13387     H
H      0.88667  0.08433  0.84513     H
H      0.88667  0.80233  0.34513     H
H      0.89077  0.07713  0.24343     H
H      0.89077  0.81363  0.74343     H
O      0.89591  0.93723  0.30883     O
O      0.89591  0.95867  0.80883     O
C       0.8982   0.3741   0.4455     C
C       0.8982   0.5241   0.9455     C
O      0.89845  0.94507  0.18437     O
O      0.89845  0.95339  0.68437     O
C      0.89973  0.90307  0.17787     C
C      0.89973  0.99667  0.67787     C
C      0.90133  0.38027  0.07907     C
C      0.90133  0.52107  0.57907     C
C       0.9014   0.3274   0.4458     C
C       0.9014    0.574   0.9458     C
C      0.90262  0.33333  0.08333     C
C      0.90262  0.56928  0.58333     C
C      0.90307  0.00333  0.82213     C
C      0.90307  0.89973  0.32213     C
C      0.90733  0.33927  0.72087     C
C      0.90733  0.56807  0.22087     C
C      0.90813  0.38537  0.70687     C
C      0.90813  0.52277  0.20687     C
H      0.91517  0.18873  0.37693     H
H      0.91517  0.72643  0.87693     H
H      0.91567  0.11333  0.34513     H
H      0.91567  0.80233  0.84513     H
H      0.92007  0.18663  0.74263     H
H      0.92007  0.73343  0.24263     H
H      0.92287  0.10923  0.74343     H
H      0.92287  0.81363  0.24343     H
H      0.92323  0.25757  0.72697     H
H      0.92323  0.66567  0.22697     H
H      0.92423  0.25657  0.10637     H
H      0.92423  0.66767  0.60637     H
H      0.92673  0.11367  0.13387     H
H      0.92673  0.81307  0.63387     H
H        0.927    0.406   0.4309     H
H        0.927    0.521   0.9309     H
H      0.92733  0.18767  0.09757     H
H      0.92733  0.73967  0.59757     H
Ni      0.9314      0.0     0.25    Ni
Ni      0.9314   0.9314     0.75    Ni
H      0.93323  0.41327  0.07597     H
H      0.93323  0.51997  0.57597     H
O      0.93723  0.04133  0.69117     O
O      0.93723  0.89591  0.19117     O
H      0.94023  0.41817  0.71027     H
H      0.94023  0.52207  0.21027     H
O      0.94507  0.04661  0.81563     O
O      0.94507  0.89845  0.31563     O
C      0.94797  0.18943  0.37353     C
C      0.94797  0.75853  0.87353     C
C      0.94827  0.14433  0.35423     C
C      0.94827  0.80393  0.85423     C
N      0.94978  0.28312  0.41667     N
N      0.94978  0.66667  0.91667     N
C       0.9517   0.3289   0.4303     C
C       0.9517   0.6228   0.9303     C
C      0.95307  0.18773  0.74573     C
C      0.95307  0.76533  0.24573     C
O      0.95339  0.05493  0.31563     O
O      0.95339  0.89845  0.81563     O
C      0.95402  0.33333  0.08333     C
C      0.95402  0.62068  0.58333     C
C      0.95503  0.28927  0.73637     C
C      0.95503  0.66577  0.23637     C
C      0.95527  0.14183  0.74613     C
C      0.95527  0.81343  0.24613     C
C      0.95593  0.28837  0.09697     C
C      0.95593  0.66757  0.59697     C
C      0.95613  0.33777  0.73637     C
C      0.95613  0.61837  0.23637     C
O      0.95867  0.06277  0.19117     O
O      0.95867  0.89591  0.69117     O
C      0.95903  0.14647  0.13267     C
C      0.95903  0.81257  0.63267     C
C      0.95923  0.19077  0.11217     C
C      0.95923  0.76847  0.61217     C
C      0.99407  0.23473  0.38753     C
C      0.99407  0.75933  0.88753     C
C      0.99487  0.14373  0.34833     C
C      0.99487  0.85113  0.84833     C
C      0.99557  0.28503  0.40303     C
C      0.99557  0.71053  0.90303     C
C      0.99667  0.09693  0.32213     C
C      0.99667  0.89973  0.82213     C
H        0.999   0.4091   0.4397     H
H        0.999   0.5899   0.9397     H
C       0.9991   0.3774   0.4303     C
C       0.9991   0.6217   0.9303     C
