data_I
_chemical_name_common  '/home/zhangsd/repos/MofS-CGCNN/ML/data/TSD/clean_cifs/BEPROF_clean'
_cell_length_a 18.71450
_cell_length_b 18.71450
_cell_length_c 18.71450
_cell_angle_alpha 99.40970
_cell_angle_beta  99.40970
_cell_angle_gamma 99.40970
_space_group_name_H-M_alt      'P 1'


loop_
_space_group_symop_operation_xyz
  'x, y, z' 

loop_
_atom_site_label
_atom_site_fract_x
_atom_site_fract_y
_atom_site_fract_z
_atom_site_type_symbol
C       0.0039    0.433   0.2884     C
C      0.00935  0.49065     0.25     C
C       0.0141    0.161   0.3798     C
C       0.0145   0.1779   0.3109     C
H       0.0345   0.5743   0.6845     H
C      0.04195  0.45805     0.75     C
H       0.0474   0.3494    0.315     H
H       0.0485   0.3653   0.5499     H
H       0.0494   0.4457   0.8564     H
H       0.0499   0.8653   0.5485     H
C       0.0514   0.8554   0.5968     C
C       0.0524   0.3877   0.2873     C
C       0.0524   0.8189    0.731     C
H       0.0528   0.8031   0.7767     H
H       0.0543   0.4506   0.6436     H
H       0.0594   0.1608   0.4112     H
C       0.0665   0.4312   0.8121     C
C        0.067   0.4961   0.2116     C
C       0.0688   0.4335   0.6879     C
H       0.0743   0.5345   0.1845     H
C       0.0856   0.1934   0.2849     C
H       0.0888   0.3392   0.4406     H
O       0.0904  0.23325  0.23707     O
C       0.0968   0.3554   0.5514     C
N      0.10715  0.39285     0.25     N
C       0.1123   0.4476   0.2127     C
C       0.1156   0.3839   0.8109     C
C       0.1161   0.3844   0.6891     C
C       0.1198    0.858    0.641     C
C       0.1201    0.838   0.7087     C
C       0.1202    0.339   0.4859     C
H       0.1347   0.4515   0.9501     H
O      0.13683  0.16604  0.31506     O
N      0.14005  0.35995     0.75     N
C        0.141    0.358   0.6198     C
C        0.142    0.359   0.8802     C
H       0.1436   0.9506   0.5543     H
C       0.1446   0.4032   0.9486     C
H       0.1506   0.4526    0.185     H
H       0.1608   0.4112   0.0594     H
C        0.161   0.3798   0.0141     C
C        0.162   0.2913   0.8799     C
H        0.163   0.2602   0.8347     H
H       0.1653    0.837   0.7398     H
O      0.16604  0.31506  0.13683     O
C       0.1779   0.3109   0.0145     C
Ni     0.18019  0.31981     0.25    Ni
C       0.1811    0.269   0.9476     C
H       0.1845   0.0743   0.5345     H
O      0.18494  0.33396  0.36317     O
H        0.185   0.1506   0.4526     H
C       0.1879   0.9335   0.5688     C
C       0.1891   0.3221   0.4855     C
C       0.1891   0.8844   0.6161     C
C       0.1934   0.2849   0.0856     C
H       0.1969   0.2233   0.9472     H
C       0.2087    0.338   0.6201     C
C       0.2116    0.067   0.4961     C
C       0.2127   0.1123   0.4476     C
C       0.2151   0.3066   0.4144     C
H       0.2233   0.9472   0.1969     H
C        0.231   0.3189   0.5524     C
O      0.23325  0.23707   0.0904     O
O      0.23707   0.0904  0.23325     O
H       0.2398    0.337   0.6653     H
C         0.25  0.00935  0.49065     C
N         0.25  0.10715  0.39285     N
Ni        0.25  0.18019  0.31981    Ni
O         0.25     0.25     0.25     O
N         0.25  0.85995  0.64005     N
C         0.25  0.95805  0.54195     C
H       0.2602   0.8347    0.163     H
O      0.26293  0.26675   0.4096     O
O      0.26675   0.4096  0.26293     O
C        0.269   0.9476   0.1811     C
H       0.2767   0.3031   0.5528     H
C       0.2849   0.0856   0.1934     C
C       0.2873   0.0524   0.3877     C
C       0.2884   0.0039    0.433     C
C       0.2913   0.8799    0.162     C
H       0.3031   0.5528   0.2767     H
C       0.3066   0.4144   0.2151     C
C       0.3109   0.0145   0.1779     C
C       0.3109   0.8839   0.6156     C
C       0.3121   0.9312   0.5665     C
H        0.315   0.0474   0.3494     H
O      0.31506  0.13683  0.16604     O
H       0.3155   0.9655   0.4257     H
C       0.3189   0.5524    0.231     C
Ni     0.31981     0.25  0.18019    Ni
C       0.3221   0.4855   0.1891     C
O      0.33396  0.36317  0.18494     O
H       0.3347   0.7602    0.663     H
H        0.337   0.6653   0.2398     H
C        0.338   0.6201   0.2087     C
C        0.339   0.4859   0.1202     C
H       0.3392   0.4406   0.0888     H
H       0.3494    0.315   0.0474     H
C       0.3554   0.5514   0.0968     C
H       0.3564   0.9457   0.5494     H
C        0.358   0.6198    0.141     C
C        0.359   0.8802    0.142     C
N      0.35995     0.75  0.14005     N
O      0.36317  0.18494  0.33396     O
H       0.3653   0.5499   0.0485     H
C       0.3798   0.0141    0.161     C
C       0.3799   0.7913    0.662     C
C       0.3802    0.859    0.642     C
C       0.3839   0.8109   0.1156     C
C       0.3844   0.6891   0.1161     C
C       0.3877   0.2873   0.0524     C
N      0.39285     0.25  0.10715     N
C       0.4032   0.9486   0.1446     C
O       0.4096  0.26293  0.26675     O
H       0.4112   0.0594   0.1608     H
C       0.4144   0.2151   0.3066     C
H       0.4257   0.3155   0.9655     H
C       0.4312   0.8121   0.0665     C
C        0.433   0.2884   0.0039     C
C       0.4335   0.6879   0.0688     C
H       0.4406   0.0888   0.3392     H
H       0.4457   0.8564   0.0494     H
H       0.4472   0.7233   0.6969     H
C       0.4476   0.2127   0.1123     C
C       0.4476    0.769   0.6811     C
C       0.4486   0.9032   0.6446     C
H       0.4501   0.9515   0.6347     H
H       0.4506   0.6436   0.0543     H
H       0.4515   0.9501   0.1347     H
H       0.4526    0.185   0.1506     H
C      0.45805     0.75  0.04195     C
H       0.4655   0.8155   0.9257     H
C       0.4855   0.1891   0.3221     C
C       0.4859   0.1202    0.339     C
C      0.49065     0.25  0.00935     C
C       0.4961   0.2116    0.067     C
C       0.5039   0.7884    0.933     C
C      0.50935     0.75  0.99065     C
C       0.5141   0.8798    0.661     C
C       0.5145   0.8109   0.6779     C
H       0.5345   0.1845   0.0743     H
C      0.54195     0.25  0.95805     C
H       0.5474    0.815   0.8494     H
H       0.5485   0.0499   0.8653     H
H       0.5494   0.3564   0.9457     H
H       0.5499   0.0485   0.3653     H
C       0.5514   0.0968   0.3554     C
C       0.5524    0.231   0.3189     C
C       0.5524   0.7873   0.8877     C
H       0.5528   0.2767   0.3031     H
H       0.5543   0.1436   0.9506     H
H       0.5594   0.9112   0.6608     H
C       0.5665   0.3121   0.9312     C
C        0.567   0.7116   0.9961     C
C       0.5688   0.1879   0.9335     C
H       0.5743   0.6845   0.0345     H
C       0.5856   0.7849   0.6934     C
H       0.5888   0.9406   0.8392     H
O       0.5904  0.73707  0.73325     O
C       0.5968   0.0514   0.8554     C
N      0.60715     0.75  0.89285     N
C       0.6123   0.7127   0.9476     C
C       0.6156   0.3109   0.8839     C
C       0.6161   0.1891   0.8844     C
C       0.6198    0.141    0.358     C
C       0.6201   0.2087    0.338     C
C       0.6202   0.9859    0.839     C
H       0.6347   0.4501   0.9515     H
O      0.63683  0.81506  0.66604     O
N      0.64005     0.25  0.85995     N
C        0.641   0.1198    0.858     C
C        0.642   0.3802    0.859     C
H       0.6436   0.0543   0.4506     H
C       0.6446   0.4486   0.9032     C
H       0.6506    0.685   0.9526     H
H       0.6608   0.5594   0.9112     H
C        0.661   0.5141   0.8798     C
C        0.662   0.3799   0.7913     C
H        0.663   0.3347   0.7602     H
H       0.6653   0.2398    0.337     H
O      0.66604  0.63683  0.81506     O
C       0.6779   0.5145   0.8109     C
Ni     0.68019     0.75  0.81981    Ni
C       0.6811   0.4476    0.769     C
H       0.6845   0.0345   0.5743     H
O      0.68494  0.86317  0.83396     O
H        0.685   0.9526   0.6506     H
C       0.6879   0.0688   0.4335     C
C       0.6891   0.1161   0.3844     C
C       0.6891   0.9855   0.8221     C
C       0.6934   0.5856   0.7849     C
H       0.6969   0.4472   0.7233     H
C       0.7087   0.1201    0.838     C
C       0.7116   0.9961    0.567     C
C       0.7127   0.9476   0.6123     C
C       0.7151   0.9144   0.8066     C
H       0.7233   0.6969   0.4472     H
C        0.731   0.0524   0.8189     C
O      0.73325   0.5904  0.73707     O
O      0.73707  0.73325   0.5904     O
H       0.7398   0.1653    0.837     H
C         0.75  0.04195  0.45805     C
N         0.75  0.14005  0.35995     N
O         0.75     0.75     0.75     O
Ni        0.75  0.81981  0.68019    Ni
N         0.75  0.89285  0.60715     N
C         0.75  0.99065  0.50935     C
H       0.7602    0.663   0.3347     H
O      0.76293   0.9096  0.76675     O
O      0.76675  0.76293   0.9096     O
C        0.769   0.6811   0.4476     C
H       0.7767   0.0528   0.8031     H
C       0.7849   0.6934   0.5856     C
C       0.7873   0.8877   0.5524     C
C       0.7884    0.933   0.5039     C
C       0.7913    0.662   0.3799     C
H       0.8031   0.7767   0.0528     H
C       0.8066   0.7151   0.9144     C
C       0.8109   0.1156   0.3839     C
C       0.8109   0.6779   0.5145     C
C       0.8121   0.0665   0.4312     C
H        0.815   0.8494   0.5474     H
O      0.81506  0.66604  0.63683     O
H       0.8155   0.9257   0.4655     H
C       0.8189    0.731   0.0524     C
Ni     0.81981  0.68019     0.75    Ni
C       0.8221   0.6891   0.9855     C
O      0.83396  0.68494  0.86317     O
H       0.8347    0.163   0.2602     H
H        0.837   0.7398   0.1653     H
C        0.838   0.7087   0.1201     C
C        0.839   0.6202   0.9859     C
H       0.8392   0.5888   0.9406     H
H       0.8494   0.5474    0.815     H
C       0.8554   0.5968   0.0514     C
H       0.8564   0.0494   0.4457     H
C        0.858    0.641   0.1198     C
C        0.859    0.642   0.3802     C
N      0.85995  0.64005     0.25     N
O      0.86317  0.83396  0.68494     O
H       0.8653   0.5485   0.0499     H
C       0.8798    0.661   0.5141     C
C       0.8799    0.162   0.2913     C
C       0.8802    0.142    0.359     C
C       0.8839   0.6156   0.3109     C
C       0.8844   0.6161   0.1891     C
C       0.8877   0.5524   0.7873     C
N      0.89285  0.60715     0.75     N
C       0.9032   0.6446   0.4486     C
O       0.9096  0.76675  0.76293     O
H       0.9112   0.6608   0.5594     H
C       0.9144   0.8066   0.7151     C
H       0.9257   0.4655   0.8155     H
C       0.9312   0.5665   0.3121     C
C        0.933   0.5039   0.7884     C
C       0.9335   0.5688   0.1879     C
H       0.9406   0.8392   0.5888     H
H       0.9457   0.5494   0.3564     H
H       0.9472   0.1969   0.2233     H
C       0.9476   0.1811    0.269     C
C       0.9476   0.6123   0.7127     C
C       0.9486   0.1446   0.4032     C
H       0.9501   0.1347   0.4515     H
H       0.9506   0.5543   0.1436     H
H       0.9515   0.6347   0.4501     H
H       0.9526   0.6506    0.685     H
C      0.95805  0.54195     0.25     C
H       0.9655   0.4257   0.3155     H
C       0.9855   0.8221   0.6891     C
C       0.9859    0.839   0.6202     C
C      0.99065  0.50935     0.75     C
C       0.9961    0.567   0.7116     C
