data_I
_chemical_name_common  '/home/zhangsd/repos/MofS-CGCNN/ML/data/TSD/clean_cifs/BEPREV03_clean'
_cell_length_a 29.10600
_cell_length_b 29.10600
_cell_length_c 23.41700
_cell_angle_alpha 90.00000
_cell_angle_beta  90.00000
_cell_angle_gamma 120.00000
_space_group_name_H-M_alt      'P 1'


loop_
_space_group_symop_operation_xyz
  'x, y, z' 

loop_
_atom_site_label
_atom_site_fract_x
_atom_site_fract_y
_atom_site_fract_z
_atom_site_type_symbol
H          0.0      0.0  0.20733     H
O          0.0      0.0     0.25     O
H          0.0      0.0  0.29267     H
H          0.0      0.0  0.70733     H
O          0.0      0.0     0.75     O
H          0.0      0.0  0.79267     H
Ni         0.0  0.06885     0.75    Ni
N          0.0  0.14055     0.75     N
C          0.0  0.23645     0.75     C
C          0.0  0.28805     0.75     C
N          0.0  0.38435     0.75     N
N          0.0  0.61565     0.25     N
C          0.0  0.71195     0.25     C
C          0.0  0.76355     0.25     C
N          0.0  0.85945     0.25     N
Ni         0.0  0.93115     0.25    Ni
H       0.0012   0.4095    0.058     H
H       0.0012   0.5917    0.558     H
C       0.0014   0.3781   0.0687     C
C       0.0014   0.6233   0.5687     C
C      0.00363  0.10027  0.17837     C
C      0.00363  0.90337  0.67837     C
C      0.00503  0.28917  0.09687     C
C      0.00503  0.71587  0.59687     C
C      0.00593  0.14897  0.15237     C
C      0.00593  0.85697  0.65237     C
C      0.00653  0.24037  0.11247     C
C      0.00653  0.76617  0.61247     C
C      0.04027  0.23173  0.38553     C
C      0.04027  0.80853  0.88553     C
C      0.04067  0.18733  0.36503     C
C      0.04067  0.85333  0.86503     C
O      0.04095  0.10442  0.30643     O
O      0.04095  0.93652  0.80643     O
C      0.04337  0.33193  0.40203     C
C      0.04337  0.71143  0.90203     C
C      0.04417  0.38253  0.76353     C
C      0.04417  0.66163  0.26353     C
C      0.04477  0.33473  0.76463     C
C      0.04477  0.71003  0.26463     C
C      0.04503  0.18677  0.75327     C
C      0.04503  0.85827  0.25327     C
C      0.04528  0.37862  0.41667     C
C      0.04528  0.66667  0.91667     C
C      0.04673  0.23507  0.75337     C
C      0.04673  0.81167  0.25337     C
O       0.0472  0.10084  0.18367     O
O       0.0472  0.94637  0.68367     O
C       0.0492   0.3775   0.0698     C
C       0.0492   0.6717   0.5698     C
N      0.05102  0.33333  0.08333     N
N      0.05102  0.71768  0.58333     N
C      0.05263  0.19597  0.14567     C
C      0.05263  0.85667  0.64567     C
C      0.05273  0.24147  0.12587     C
C      0.05273  0.81127  0.62587     C
O      0.05363  0.10084  0.68367     O
O      0.05363   0.9528  0.18367     O
H      0.05967  0.47853  0.78833     H
H      0.05967  0.58113  0.28833     H
O      0.06348  0.10442  0.80643     O
O      0.06348  0.95905  0.30643     O
H      0.06617  0.47933  0.42243     H
H      0.06617  0.58683  0.92243     H
Ni     0.06885      0.0     0.75    Ni
Ni     0.06885  0.06885     0.25    Ni
H       0.0721   0.4779    0.065     H
H       0.0721   0.5942    0.565     H
H      0.07247  0.26123  0.39833     H
H      0.07247  0.81123  0.89833     H
H      0.07317  0.18723  0.36293     H
H      0.07317  0.88593  0.86293     H
H      0.07497  0.33213  0.39133     H
H      0.07497  0.74283  0.89133     H
H      0.07617  0.33453  0.77533     H
H      0.07617  0.74163  0.27533     H
H      0.07753  0.18657  0.75577     H
H      0.07753  0.89097  0.25577     H
H      0.07983  0.26717  0.75577     H
H      0.07983  0.81267  0.25577     H
H      0.08523  0.19767  0.15447     H
H      0.08523  0.88757  0.65447     H
H      0.08553  0.27367  0.12167     H
H      0.08553  0.81187  0.62167     H
C      0.09187  0.47793  0.79253     C
C      0.09187  0.61393  0.29253     C
C      0.09297  0.43283  0.77913     C
C      0.09297  0.66013  0.27913     C
C      0.09663  0.10027  0.67837     C
C      0.09663  0.99637  0.17837     C
C      0.09688  0.43022  0.41667     C
C      0.09688  0.66667  0.91667     C
C      0.09827  0.47833  0.42003     C
C      0.09827  0.61993  0.92003     C
C       0.0995   0.4263   0.0542     C
C       0.0995   0.6732   0.5542     C
C      0.10027  0.00363  0.32163     C
C      0.10027  0.09663  0.82163     C
O      0.10084   0.0472  0.31633     O
O      0.10084  0.05363  0.81633     O
C       0.1016   0.4752   0.0522     C
C       0.1016   0.6264   0.5522     C
O      0.10442  0.04095  0.19357     O
O      0.10442  0.06348  0.69357     O
H      0.10903  0.18657  0.25577     H
H      0.10903  0.92247  0.75577     H
H      0.11243  0.19767  0.65447     H
H      0.11243  0.91477  0.15447     H
H      0.11407  0.18723  0.86293     H
H      0.11407  0.92683  0.36293     H
H      0.13567  0.55423  0.82113     H
H      0.13567  0.58143  0.32113     H
C      0.13737  0.52333  0.81233     C
C      0.13737  0.61403  0.31233     C
N      0.14055      0.0     0.75     N
N      0.14055  0.14055     0.25     N
C      0.14173  0.18677  0.25327     C
C      0.14173  0.95497  0.75327     C
C      0.14187  0.43493  0.78113     C
C      0.14187  0.70693  0.28113     C
C      0.14303  0.14897  0.65237     C
C      0.14303  0.99407  0.15237     C
C      0.14333  0.19597  0.64567     C
C      0.14333  0.94737  0.14567     C
H      0.14457  0.40543  0.76833     H
H      0.14457  0.73913  0.26833     H
C       0.1446   0.4252   0.0408     C
C       0.1446   0.7194   0.5408     C
C        0.145   0.4316   0.4133     C
C        0.145   0.7134   0.9133     C
H       0.1452    0.393    0.045     H
H       0.1452   0.7522    0.545     H
H        0.146   0.3995   0.4109     H
C        0.146     0.52   0.0317     C
C        0.146    0.626   0.5317     C
H        0.146   0.7465   0.9109     H
H       0.1461   0.5526   0.0296     H
H       0.1461   0.5935   0.5296     H
C      0.14657  0.52493  0.41993     C
C      0.14657  0.62163  0.91993     C
C      0.14667  0.18733  0.86503     C
C      0.14667  0.95933  0.36503     C
H      0.14677  0.55763  0.42243     H
H      0.14677  0.58913  0.92243     H
C      0.14897  0.00593  0.34763     C
C      0.14897  0.14303  0.84763     C
C      0.18437  0.52363  0.81903     C
C      0.18437  0.66073  0.31903     C
H      0.18657  0.07753  0.74423     H
H      0.18657  0.10903  0.24423     H
C      0.18667  0.47933  0.80163     C
C      0.18667  0.70733  0.30163     C
C      0.18677  0.04503  0.74673     C
C      0.18677  0.14173  0.24673     C
H      0.18723  0.07317  0.13707     H
H      0.18723  0.11407  0.63707     H
C      0.18733  0.04067  0.13497     C
C      0.18733  0.14667  0.63497     C
H      0.18733  0.26717  0.25577     H
H      0.18733  0.92017  0.75577     H
H      0.18813  0.27367  0.62167     H
H      0.18813  0.91447  0.12167     H
C      0.18833  0.23507  0.25337     C
C      0.18833  0.95327  0.75337     C
C      0.18873  0.24147  0.62587     C
C      0.18873  0.94727  0.12587     C
H      0.18877  0.26123  0.89833     H
H      0.18877  0.92753  0.39833     H
C         0.19   0.4707    0.021     C
C         0.19   0.7193    0.521     C
C       0.1903   0.5177   0.0143     C
C       0.1903   0.6726   0.5143     C
C      0.19147  0.23173  0.88553     C
C      0.19147  0.95973  0.38553     C
C       0.1916   0.4799   0.4134     C
C       0.1916   0.7117   0.9134     C
N      0.19278  0.52612  0.41667     N
N      0.19278  0.66667  0.91667     N
C      0.19597  0.05263  0.35433     C
C      0.19597  0.14333  0.85433     C
H      0.19767  0.08523  0.34553     H
H      0.19767  0.11243  0.84553     H
H      0.21927  0.47943  0.80373     H
H      0.21927  0.73983  0.30373     H
H       0.2209    0.469   0.0122     H
H       0.2209   0.7519   0.5122     H
H       0.2243   0.4801   0.4109     H
H       0.2243   0.7442   0.9109     H
O      0.22891  0.60319   0.9731     O
O      0.22891  0.62572   0.4731     O
C      0.23173  0.04027  0.11447     C
C      0.23173  0.19147  0.61447     C
O       0.2325  0.61303  0.85033     O
O       0.2325  0.61946  0.35033     O
C      0.23307  0.57003  0.84503     C
C      0.23307  0.66303  0.34503     C
C      0.23383  0.24037  0.61247     C
C      0.23383  0.99347  0.11247     C
C      0.23507  0.04673  0.74663     C
C      0.23507  0.18833  0.24663     C
C      0.23645      0.0     0.75     C
C      0.23645  0.23645     0.25     C
C       0.2367   0.5664   0.9883     C
C       0.2367   0.6703   0.4883     C
C      0.24037  0.00653  0.38753     C
C      0.24037  0.23383  0.88753     C
C      0.24147  0.05273  0.37413     C
C      0.24147  0.18873  0.87413     C
H       0.2478    0.393    0.545     H
H       0.2478   0.8548    0.045     H
H       0.2481    0.469   0.5122     H
H       0.2481   0.7791   0.0122     H
H       0.2535   0.3995   0.9109     H
H       0.2535    0.854   0.4109     H
H       0.2558   0.4801   0.9109     H
H       0.2558   0.7757   0.4109     H
H      0.25717  0.33213  0.89133     H
H      0.25717  0.92503  0.39133     H
H      0.25837  0.33453  0.27533     H
H      0.25837  0.92383  0.77533     H
H      0.26017  0.47943  0.30373     H
H      0.26017  0.78073  0.80373     H
H      0.26087  0.40543  0.26833     H
H      0.26087  0.85543  0.76833     H
H      0.26123  0.07247  0.10167     H
H      0.26123  0.18877  0.60167     H
Ni     0.26448  0.59782  0.41667    Ni
Ni     0.26448  0.66667  0.91667    Ni
H      0.26717  0.07983  0.74423     H
H      0.26717  0.18733  0.24423     H
O      0.26986  0.56224  0.86023     O
O      0.26986  0.70761  0.36023     O
H      0.27367  0.08553  0.37833     H
H      0.27367  0.18813  0.87833     H
O       0.2797  0.56583    0.983     O
O       0.2797  0.71387    0.483     O
C       0.2806   0.4252   0.5408     C
C       0.2806   0.8554   0.0408     C
C       0.2807   0.4707    0.521     C
C       0.2807     0.81    0.021     C
N      0.28232  0.33333  0.58333     N
N      0.28232  0.94898  0.08333     N
C      0.28413  0.28917  0.59687     C
C      0.28413  0.99497  0.09687     C
O      0.28613  0.56583    0.483     O
O      0.28613   0.7203    0.983     O
C       0.2866   0.4316   0.9133     C
C       0.2866    0.855   0.4133     C
C      0.28805      0.0     0.75     C
C      0.28805  0.28805     0.25     C
C       0.2883   0.4799   0.9134     C
C       0.2883   0.8084   0.4134     C
C      0.28857  0.33193  0.90203     C
C      0.28857  0.95663  0.40203     C
C      0.28917  0.00503  0.40313     C
C      0.28917  0.28413  0.90313     C
C      0.28997  0.33473  0.26463     C
C      0.28997  0.95523  0.76463     C
O      0.29239  0.56224  0.36023     O
O      0.29239  0.73014  0.86023     O
C      0.29267  0.47933  0.30163     C
C      0.29267  0.81333  0.80163     C
C      0.29307  0.43493  0.28113     C
C      0.29307  0.85813  0.78113     C
C       0.3268   0.4263   0.5542     C
C       0.3268   0.9005   0.0542     C
C       0.3274   0.5177   0.5143     C
C       0.3274   0.8097   0.0143     C
C       0.3283   0.3775   0.5698     C
C       0.3283   0.9508   0.0698     C
C       0.3297   0.5664   0.4883     C
C       0.3297   0.7633   0.9883     C
C      0.33193  0.04337  0.09797     C
C      0.33193  0.28857  0.59797     C
H      0.33213  0.07497  0.10867     H
H      0.33213  0.25717  0.60867     H
N      0.33333  0.05102  0.41667     N
N      0.33333  0.28232  0.91667     N
C      0.33333  0.37862  0.91667     C
C      0.33333  0.43022  0.91667     C
N      0.33333  0.52612  0.91667     N
Ni     0.33333  0.59782  0.91667    Ni
H      0.33333  0.66667    0.374     H
O      0.33333  0.66667  0.41667     O
H      0.33333  0.66667  0.45933     H
H      0.33333  0.66667    0.874     H
O      0.33333  0.66667  0.91667     O
H      0.33333  0.66667  0.95933     H
Ni     0.33333  0.73552  0.41667    Ni
N      0.33333  0.80722  0.41667     N
C      0.33333  0.90312  0.41667     C
C      0.33333  0.95472  0.41667     C
H      0.33453  0.07617  0.72467     H
H      0.33453  0.25837  0.22467     H
C      0.33473  0.04477  0.73537     C
C      0.33473  0.28997  0.23537     C
C      0.33697  0.57003  0.34503     C
C      0.33697  0.76693  0.84503     C
C      0.33837  0.38253  0.26353     C
C      0.33837  0.95583  0.76353     C
C      0.33927  0.52363  0.31903     C
C      0.33927  0.81563  0.81903     C
C      0.33987  0.43283  0.27913     C
C      0.33987  0.90703  0.77913     C
C       0.3736   0.4752   0.5522     C
C       0.3736   0.8984   0.0522     C
C        0.374     0.52   0.5317     C
C        0.374    0.854   0.0317     C
O      0.37428  0.60319   0.4731     O
O      0.37428  0.77109   0.9731     O
C       0.3767   0.3781   0.5687     C
C       0.3767   0.9986   0.0687     C
C       0.3775   0.0492   0.4302     C
C       0.3775   0.3283   0.9302     C
C       0.3781   0.0014   0.4313     C
C       0.3781   0.3767   0.9313     C
C      0.37837  0.52493  0.91993     C
C      0.37837  0.85343  0.41993     C
C      0.37862  0.04528  0.08333     C
C      0.37862  0.33333  0.58333     C
C      0.38007  0.47833  0.92003     C
C      0.38007  0.90173  0.42003     C
O      0.38054  0.61303  0.35033     O
O      0.38054   0.7675  0.85033     O
C      0.38253  0.04417  0.73647     C
C      0.38253  0.33837  0.23647     C
N      0.38435      0.0     0.75     N
N      0.38435  0.38435     0.25     N
C      0.38597  0.52333  0.31233     C
C      0.38597  0.86263  0.81233     C
C      0.38607  0.47793  0.29253     C
C      0.38607  0.90813  0.79253     C
O      0.38697  0.61946  0.85033     O
O      0.38697   0.7675  0.35033     O
H        0.393   0.1452    0.455     H
H        0.393   0.2478    0.955     H
O      0.39681  0.62572   0.9731     O
O      0.39681  0.77109   0.4731     O
H       0.3995    0.146   0.0891     H
H       0.3995   0.2535   0.5891     H
Ni     0.40218  0.66667  0.41667    Ni
Ni     0.40218  0.73552  0.91667    Ni
H      0.40543  0.14457  0.73167     H
H      0.40543  0.26087  0.23167     H
H       0.4058   0.4779    0.565     H
H       0.4058   0.9279    0.065     H
H       0.4065   0.5526   0.5296     H
H       0.4065   0.8539   0.0296     H
H       0.4083   0.4095    0.558     H
H       0.4083   0.9988    0.058     H
H       0.4095   0.0012    0.442     H
H       0.4095   0.4083    0.942     H
H      0.41087  0.55763  0.92243     H
H      0.41087  0.85323  0.42243     H
H      0.41317  0.47933  0.92243     H
H      0.41317  0.93383  0.42243     H
H      0.41857  0.55423  0.32113     H
H      0.41857  0.86433  0.82113     H
H      0.41887  0.47853  0.28833     H
H      0.41887  0.94033  0.78833     H
C       0.4252   0.1446   0.4592     C
C       0.4252   0.2806   0.9592     C
C       0.4263   0.0995   0.4458     C
C       0.4263   0.3268   0.9458     C
C      0.42997  0.66303  0.84503     C
C      0.42997  0.76693  0.34503     C
C      0.43022  0.09688  0.08333     C
C      0.43022  0.33333  0.58333     C
C       0.4316    0.145   0.0867     C
C       0.4316   0.2866   0.5867     C
C      0.43283  0.09297  0.72087     C
C      0.43283  0.33987  0.22087     C
C       0.4336   0.6703   0.9883     C
C       0.4336   0.7633   0.4883     C
O      0.43417  0.71387    0.983     O
O      0.43417   0.7203    0.483     O
C      0.43493  0.14187  0.71887     C
C      0.43493  0.29307  0.21887     C
O      0.43776  0.70761  0.86023     O
O      0.43776  0.73014  0.36023     O
H      0.44237  0.58913  0.42243     H
H      0.44237  0.85323  0.92243     H
H      0.44577  0.58143  0.82113     H
H      0.44577  0.86433  0.32113     H
H       0.4474   0.5935   0.0296     H
H       0.4474   0.8539   0.5296     H
H        0.469   0.2209   0.4878     H
H        0.469   0.2481   0.9878     H
C       0.4707     0.19    0.479     C
C       0.4707   0.2807    0.979     C
N      0.47388  0.66667  0.41667     N
N      0.47388  0.80722  0.91667     N
C      0.47507  0.62163  0.41993     C
C      0.47507  0.85343  0.91993     C
C       0.4752   0.1016   0.4478     C
C       0.4752   0.3736   0.9478     C
C      0.47637  0.66073  0.81903     C
C      0.47637  0.81563  0.31903     C
C      0.47667  0.61403  0.81233     C
C      0.47667  0.86263  0.31233     C
H       0.4779   0.0721    0.435     H
H       0.4779   0.4058    0.935     H
C      0.47793  0.09187  0.70747     C
C      0.47793  0.38607  0.20747     C
C      0.47833  0.09827  0.07997     C
C      0.47833  0.38007  0.57997     C
H      0.47853  0.05967  0.71167     H
H      0.47853  0.41887  0.21167     H
H      0.47933  0.06617  0.07757     H
C      0.47933  0.18667  0.69837     C
C      0.47933  0.29267  0.19837     C
H      0.47933  0.41317  0.57757     H
H      0.47943  0.21927  0.69627     H
H      0.47943  0.26017  0.19627     H
C       0.4799   0.1916   0.0866     C
C       0.4799   0.2883   0.5866     C
C         0.48    0.626   0.0317     C
C         0.48    0.854   0.5317     C
H       0.4801   0.2243   0.0891     H
H       0.4801   0.2558   0.5891     H
C       0.4823   0.6726   0.0143     C
C       0.4823   0.8097   0.5143     C
C       0.5177   0.1903   0.4857     C
C       0.5177   0.3274   0.9857     C
H       0.5199   0.7442   0.4109     H
H       0.5199   0.7757   0.9109     H
C         0.52    0.146   0.4683     C
C         0.52    0.374   0.9683     C
C       0.5201   0.7117   0.4134     C
C       0.5201   0.8084   0.9134     C
H      0.52057  0.73983  0.80373     H
H      0.52057  0.78073  0.30373     H
H      0.52067  0.58683  0.42243     H
C      0.52067  0.70733  0.80163     C
C      0.52067  0.81333  0.30163     C
H      0.52067  0.93383  0.92243     H
H      0.52147  0.58113  0.78833     H
H      0.52147  0.94033  0.28833     H
C      0.52167  0.61993  0.42003     C
C      0.52167  0.90173  0.92003     C
C      0.52207  0.61393  0.79253     C
C      0.52207  0.90813  0.29253     C
H       0.5221   0.5942    0.065     H
H       0.5221   0.9279    0.565     H
C      0.52333  0.13737  0.68767     C
C      0.52333  0.38597  0.18767     C
C      0.52363  0.18437  0.68097     C
C      0.52363  0.33927  0.18097     C
C       0.5248   0.6264   0.0522     C
C       0.5248   0.8984   0.5522     C
C      0.52493  0.14657  0.08007     C
C      0.52493  0.37837  0.58007     C
N      0.52612  0.19278  0.08333     N
N      0.52612  0.33333  0.58333     N
C       0.5293   0.7193    0.021     C
C       0.5293     0.81    0.521     C
H        0.531   0.7519   0.0122     H
H        0.531   0.7791   0.5122     H
H       0.5526   0.1461   0.4704     H
H       0.5526   0.4065   0.9704     H
H      0.55423  0.13567  0.67887     H
H      0.55423  0.41857  0.17887     H
H      0.55763  0.14677  0.07757     H
H      0.55763  0.41087  0.57757     H
O      0.56224  0.26986  0.63977     O
O      0.56224  0.29239  0.13977     O
C      0.56507  0.70693  0.78113     C
C      0.56507  0.85813  0.28113     C
O      0.56583   0.2797    0.517     O
O      0.56583  0.28613    0.017     O
C       0.5664   0.2367   0.5117     C
C       0.5664   0.3297   0.0117     C
C      0.56717  0.66013  0.77913     C
C      0.56717  0.90703  0.27913     C
C       0.5684   0.7134   0.4133     C
C       0.5684    0.855   0.9133     C
C      0.56978  0.66667  0.41667     C
C      0.56978  0.90312  0.91667     C
C      0.57003  0.23307  0.65497     C
C      0.57003  0.33697  0.15497     C
C       0.5737   0.6732   0.0542     C
C       0.5737   0.9005   0.5542     C
C       0.5748   0.7194   0.0408     C
C       0.5748   0.8554   0.5408     C
H      0.58113  0.05967  0.21167     H
H      0.58113  0.52147  0.71167     H
H      0.58143  0.13567  0.17887     H
H      0.58143  0.44577  0.67887     H
H      0.58683  0.06617  0.57757     H
H      0.58683  0.52067  0.07757     H
H      0.58913  0.14677  0.57757     H
H      0.58913  0.44237  0.07757     H
H       0.5905   0.5917    0.058     H
H       0.5905   0.9988    0.558     H
H       0.5917   0.0012    0.942     H
H       0.5917   0.5905    0.442     H
H       0.5935   0.1461   0.9704     H
H       0.5935   0.4474   0.4704     H
H       0.5942   0.0721    0.935     H
H       0.5942   0.5221    0.435     H
H      0.59457  0.73913  0.76833     H
H      0.59457  0.85543  0.26833     H
Ni     0.59782  0.26448  0.08333    Ni
Ni     0.59782  0.33333  0.58333    Ni
H       0.6005   0.7465   0.4109     H
H       0.6005    0.854   0.9109     H
O      0.60319  0.22891   0.5269     O
O      0.60319  0.37428   0.0269     O
H        0.607   0.7522    0.045     H
H        0.607   0.8548    0.545     H
O      0.61303   0.2325  0.64967     O
O      0.61303  0.38054  0.14967     O
C      0.61393  0.09187  0.20747     C
C      0.61393  0.52207  0.70747     C
C      0.61403  0.13737  0.18767     C
C      0.61403  0.47667  0.68767     C
N      0.61565      0.0     0.25     N
N      0.61565  0.61565     0.75     N
C      0.61747  0.66163  0.76353     C
C      0.61747  0.95583  0.26353     C
O      0.61946   0.2325  0.14967     O
O      0.61946  0.38697  0.64967     O
C      0.61993  0.09827  0.57997     C
C      0.61993  0.52167  0.07997     C
C      0.62138  0.66667  0.41667     C
C      0.62138  0.95472  0.91667     C
C      0.62163  0.14657  0.58007     C
C      0.62163  0.47507  0.08007     C
C       0.6219   0.6233   0.0687     C
C       0.6219   0.9986   0.5687     C
C       0.6225   0.6717   0.0698     C
C       0.6225   0.9508   0.5698     C
C       0.6233   0.0014   0.9313     C
C       0.6233   0.6219   0.4313     C
O      0.62572  0.22891   0.0269     O
O      0.62572  0.39681   0.5269     O
C        0.626    0.146   0.9683     C
C        0.626     0.48   0.4683     C
C       0.6264   0.1016   0.9478     C
C       0.6264   0.5248   0.4478     C
C      0.66013  0.09297  0.22087     C
C      0.66013  0.56717  0.72087     C
C      0.66073  0.18437  0.18097     C
C      0.66073  0.47637  0.68097     C
C      0.66163  0.04417  0.23647     C
C      0.66163  0.61747  0.73647     C
C      0.66303  0.23307  0.15497     C
C      0.66303  0.42997  0.65497     C
C      0.66527  0.71003  0.76463     C
C      0.66527  0.95523  0.26463     C
H      0.66547  0.74163  0.77533     H
H      0.66547  0.92383  0.27533     H
C      0.66667  0.04528  0.58333     C
C      0.66667  0.09688  0.58333     C
N      0.66667  0.19278  0.58333     N
Ni     0.66667  0.26448  0.58333    Ni
H      0.66667  0.33333  0.04067     H
O      0.66667  0.33333  0.08333     O
H      0.66667  0.33333    0.126     H
H      0.66667  0.33333  0.54067     H
O      0.66667  0.33333  0.58333     O
H      0.66667  0.33333    0.626     H
Ni     0.66667  0.40218  0.08333    Ni
N      0.66667  0.47388  0.08333     N
C      0.66667  0.56978  0.08333     C
C      0.66667  0.62138  0.08333     C
N      0.66667  0.71768  0.08333     N
N      0.66667  0.94898  0.58333     N
H      0.66787  0.74283  0.39133     H
H      0.66787  0.92503  0.89133     H
C      0.66807  0.71143  0.40203     C
C      0.66807  0.95663  0.90203     C
C       0.6703   0.2367   0.0117     C
C       0.6703   0.4336   0.5117     C
C       0.6717   0.0492   0.9302     C
C       0.6717   0.6225   0.4302     C
C       0.6726   0.1903   0.9857     C
C       0.6726   0.4823   0.4857     C
C       0.6732   0.0995   0.9458     C
C       0.6732   0.5737   0.4458     C
C      0.70693  0.14187  0.21887     C
C      0.70693  0.56507  0.71887     C
C      0.70733  0.18667  0.19837     C
C      0.70733  0.52067  0.69837     C
O      0.70761  0.26986  0.13977     O
O      0.70761  0.43776  0.63977     O
C      0.71003  0.04477  0.23537     C
C      0.71003  0.66527  0.73537     C
C      0.71083  0.71587  0.09687     C
C      0.71083  0.99497  0.59687     C
C      0.71143  0.04337  0.59797     C
C      0.71143  0.66807  0.09797     C
C       0.7117   0.1916   0.5866     C
C       0.7117   0.5201   0.0866     C
C      0.71195      0.0     0.25     C
C      0.71195  0.71195     0.75     C
C       0.7134    0.145   0.5867     C
C       0.7134   0.5684   0.0867     C
O      0.71387   0.2797    0.017     O
O      0.71387  0.43417    0.517     O
C      0.71587  0.00503  0.90313     C
C      0.71587  0.71083  0.40313     C
N      0.71768  0.05102  0.91667     N
N      0.71768  0.66667  0.41667     N
C       0.7193     0.19    0.979     C
C       0.7193   0.5293    0.479     C
C       0.7194   0.1446   0.9592     C
C       0.7194   0.5748   0.4592     C
O       0.7203  0.28613    0.517     O
O       0.7203  0.43417    0.017     O
H      0.72633  0.81187  0.12167     H
H      0.72633  0.91447  0.62167     H
O      0.73014  0.29239  0.63977     O
O      0.73014  0.43776  0.13977     O
H      0.73283  0.81267  0.75577     H
H      0.73283  0.92017  0.25577     H
Ni     0.73552  0.33333  0.08333    Ni
Ni     0.73552  0.40218  0.58333    Ni
H      0.73877  0.81123  0.39833     H
H      0.73877  0.92753  0.89833     H
H      0.73913  0.14457  0.23167     H
H      0.73913  0.59457  0.73167     H
H      0.73983  0.21927  0.19627     H
H      0.73983  0.52057  0.69627     H
H      0.74163  0.07617  0.22467     H
H      0.74163  0.66547  0.72467     H
H      0.74283  0.07497  0.60867     H
H      0.74283  0.66787  0.10867     H
H       0.7442   0.2243   0.5891     H
H       0.7442   0.5199   0.0891     H
H       0.7465    0.146   0.5891     H
H       0.7465   0.6005   0.0891     H
H       0.7519   0.2209   0.9878     H
H       0.7519    0.531   0.4878     H
H       0.7522   0.1452    0.955     H
H       0.7522    0.607    0.455     H
C      0.75853  0.81127  0.12587     C
C      0.75853  0.94727  0.62587     C
C      0.75963  0.76617  0.11247     C
C      0.75963  0.99347  0.61247     C
C       0.7633   0.3297   0.5117     C
C       0.7633   0.4336   0.0117     C
C      0.76355      0.0     0.25     C
C      0.76355  0.76355     0.75     C
C      0.76493  0.81167  0.75337     C
C      0.76493  0.95327  0.25337     C
C      0.76617  0.00653  0.88753     C
C      0.76617  0.75963  0.38753     C
C      0.76693  0.33697  0.65497     C
C      0.76693  0.42997  0.15497     C
O       0.7675  0.38054  0.64967     O
O       0.7675  0.38697  0.14967     O
C      0.76827  0.80853  0.38553     C
C      0.76827  0.95973  0.88553     C
O      0.77109  0.37428   0.5269     O
O      0.77109  0.39681   0.0269     O
H       0.7757   0.2558   0.0891     H
H       0.7757   0.5199   0.5891     H
H       0.7791   0.2481   0.4878     H
H       0.7791    0.531   0.9878     H
H      0.78073  0.26017  0.69627     H
H      0.78073  0.52057  0.19627     H
H      0.80233  0.88757  0.15447     H
H      0.80233  0.91477  0.65447     H
C      0.80403  0.85667  0.14567     C
C      0.80403  0.94737  0.64567     C
N      0.80722  0.33333  0.08333     N
N      0.80722  0.47388  0.58333     N
C       0.8084   0.2883   0.0866     C
C       0.8084   0.5201   0.5866     C
C      0.80853  0.04027  0.61447     C
C      0.80853  0.76827  0.11447     C
C       0.8097   0.3274   0.4857     C
C       0.8097   0.4823   0.9857     C
C         0.81   0.2807    0.479     C
C         0.81   0.5293    0.979     C
H      0.81123  0.07247  0.60167     H
H      0.81123  0.73877  0.10167     H
C      0.81127  0.05273  0.87413     C
C      0.81127  0.75853  0.37413     C
C      0.81167  0.04673  0.24663     C
C      0.81167  0.76493  0.74663     C
H      0.81187  0.08553  0.87833     H
H      0.81187  0.72633  0.37833     H
H      0.81267  0.07983  0.24423     H
H      0.81267  0.73283  0.74423     H
C      0.81267  0.85333  0.36503     C
C      0.81267  0.95933  0.86503     C
H      0.81277  0.88593  0.36293     H
H      0.81277  0.92683  0.86293     H
C      0.81323  0.85827  0.75327     C
C      0.81323  0.95497  0.25327     C
C      0.81333  0.29267  0.69837     C
C      0.81333  0.52067  0.19837     C
H      0.81343  0.89097  0.75577     H
H      0.81343  0.92247  0.25577     H
C      0.81563  0.33927  0.68097     C
C      0.81563  0.47637  0.18097     C
C      0.85103  0.85697  0.15237     C
C      0.85103  0.99407  0.65237     C
H      0.85323  0.41087  0.07757     H
H      0.85323  0.44237  0.57757     H
C      0.85333  0.04067  0.63497     C
C      0.85333  0.81267  0.13497     C
C      0.85343  0.37837  0.08007     C
C      0.85343  0.47507  0.58007     C
H       0.8539   0.4065   0.4704     H
H       0.8539   0.4474   0.9704     H
H        0.854   0.2535   0.0891     H
C        0.854    0.374   0.4683     C
C        0.854     0.48   0.9683     C
H        0.854   0.6005   0.5891     H
H       0.8548   0.2478    0.455     H
H       0.8548    0.607    0.955     H
C        0.855   0.2866   0.0867     C
C        0.855   0.5684   0.5867     C
C       0.8554   0.2806   0.4592     C
C       0.8554   0.5748   0.9592     C
H      0.85543  0.26087  0.73167     H
H      0.85543  0.59457  0.23167     H
C      0.85667  0.05263  0.85433     C
C      0.85667  0.80403  0.35433     C
C      0.85697  0.00593  0.84763     C
C      0.85697  0.85103  0.34763     C
C      0.85813  0.29307  0.71887     C
C      0.85813  0.56507  0.21887     C
C      0.85827  0.04503  0.24673     C
C      0.85827  0.81323  0.74673     C
N      0.85945      0.0     0.25     N
N      0.85945  0.85945     0.75     N
C      0.86263  0.38597  0.68767     C
C      0.86263  0.47667  0.18767     C
H      0.86433  0.41857  0.67887     H
H      0.86433  0.44577  0.17887     H
H      0.88593  0.07317  0.63707     H
H      0.88593  0.81277  0.13707     H
H      0.88757  0.08523  0.84553     H
H      0.88757  0.80233  0.34553     H
H      0.89097  0.07753  0.24423     H
H      0.89097  0.81343  0.74423     H
O      0.89558  0.93652  0.30643     O
O      0.89558  0.95905  0.80643     O
C       0.8984   0.3736   0.4478     C
C       0.8984   0.5248   0.9478     C
O      0.89916  0.94637  0.18367     O
O      0.89916   0.9528  0.68367     O
C      0.89973  0.90337  0.17837     C
C      0.89973  0.99637  0.67837     C
C       0.9005   0.3268   0.4458     C
C       0.9005   0.5737   0.9458     C
C      0.90173  0.38007  0.07997     C
C      0.90173  0.52167  0.57997     C
C      0.90312  0.33333  0.08333     C
C      0.90312  0.56978  0.58333     C
C      0.90337  0.00363  0.82163     C
C      0.90337  0.89973  0.32163     C
C      0.90703  0.33987  0.72087     C
C      0.90703  0.56717  0.22087     C
C      0.90813  0.38607  0.70747     C
C      0.90813  0.52207  0.20747     C
H      0.91447  0.18813  0.37833     H
H      0.91447  0.72633  0.87833     H
H      0.91477  0.11243  0.34553     H
H      0.91477  0.80233  0.84553     H
H      0.92017  0.18733  0.74423     H
H      0.92017  0.73283  0.24423     H
H      0.92247  0.10903  0.74423     H
H      0.92247  0.81343  0.24423     H
H      0.92383  0.25837  0.72467     H
H      0.92383  0.66547  0.22467     H
H      0.92503  0.25717  0.10867     H
H      0.92503  0.66787  0.60867     H
H      0.92683  0.11407  0.13707     H
H      0.92683  0.81277  0.63707     H
H      0.92753  0.18877  0.10167     H
H      0.92753  0.73877  0.60167     H
H       0.9279   0.4058    0.435     H
H       0.9279   0.5221    0.935     H
Ni     0.93115      0.0     0.25    Ni
Ni     0.93115  0.93115     0.75    Ni
H      0.93383  0.41317  0.07757     H
H      0.93383  0.52067  0.57757     H
O      0.93652  0.04095  0.69357     O
O      0.93652  0.89558  0.19357     O
H      0.94033  0.41887  0.71167     H
H      0.94033  0.52147  0.21167     H
O      0.94637   0.0472  0.81633     O
O      0.94637  0.89916  0.31633     O
C      0.94727  0.18873  0.37413     C
C      0.94727  0.75853  0.87413     C
C      0.94737  0.14333  0.35433     C
C      0.94737  0.80403  0.85433     C
N      0.94898  0.28232  0.41667     N
N      0.94898  0.66667  0.91667     N
C       0.9508   0.3283   0.4302     C
C       0.9508   0.6225   0.9302     C
O       0.9528  0.05363  0.31633     O
O       0.9528  0.89916  0.81633     O
C      0.95327  0.18833  0.74663     C
C      0.95327  0.76493  0.24663     C
C      0.95472  0.33333  0.08333     C
C      0.95472  0.62138  0.58333     C
C      0.95497  0.14173  0.74673     C
C      0.95497  0.81323  0.24673     C
C      0.95523  0.28997  0.73537     C
C      0.95523  0.66527  0.23537     C
C      0.95583  0.33837  0.73647     C
C      0.95583  0.61747  0.23647     C
C      0.95663  0.28857  0.09797     C
C      0.95663  0.66807  0.59797     C
O      0.95905  0.06348  0.19357     O
O      0.95905  0.89558  0.69357     O
C      0.95933  0.14667  0.13497     C
C      0.95933  0.81267  0.63497     C
C      0.95973  0.19147  0.11447     C
C      0.95973  0.76827  0.61447     C
C      0.99347  0.23383  0.38753     C
C      0.99347  0.75963  0.88753     C
C      0.99407  0.14303  0.34763     C
C      0.99407  0.85103  0.84763     C
C      0.99497  0.28413  0.40313     C
C      0.99497  0.71083  0.90313     C
C      0.99637  0.09663  0.32163     C
C      0.99637  0.89973  0.82163     C
C       0.9986   0.3767   0.4313     C
C       0.9986   0.6219   0.9313     C
H       0.9988   0.4083    0.442     H
H       0.9988   0.5905    0.942     H
