data_I
_chemical_name_common  '/home/zhangsd/repos/MofS-CGCNN/ML/data/TSD/clean_cifs/BEPREV_clean'
_cell_length_a 29.10600
_cell_length_b 29.10600
_cell_length_c 23.41700
_cell_angle_alpha 90.00000
_cell_angle_beta  90.00000
_cell_angle_gamma 120.00000
_space_group_name_H-M_alt      'P 1'


loop_
_space_group_symop_operation_xyz
  'x, y, z' 

loop_
_atom_site_label
_atom_site_fract_x
_atom_site_fract_y
_atom_site_fract_z
_atom_site_type_symbol
H          0.0      0.0  0.20733     H
O          0.0      0.0     0.25     O
H          0.0      0.0  0.29267     H
H          0.0      0.0  0.70733     H
O          0.0      0.0     0.75     O
H          0.0      0.0  0.79267     H
Ni         0.0  0.06884     0.75    Ni
N          0.0  0.14045     0.75     N
C          0.0  0.23675     0.75     C
C          0.0  0.28815     0.75     C
N          0.0  0.38445     0.75     N
N          0.0  0.61555     0.25     N
C          0.0  0.71185     0.25     C
C          0.0  0.76325     0.25     C
N          0.0  0.85955     0.25     N
Ni         0.0  0.93116     0.25    Ni
H       0.0009   0.4092   0.0578     H
H       0.0009   0.5917   0.5578     H
C       0.0012   0.3779   0.0687     C
C       0.0012   0.6233   0.5687     C
C      0.00373  0.10037  0.17837     C
C      0.00373  0.90337  0.67837     C
C      0.00503  0.28927  0.09707     C
C      0.00503  0.71577  0.59707     C
C      0.00593  0.14867  0.15247     C
C      0.00593  0.85727  0.65247     C
C      0.00623  0.24017  0.11257     C
C      0.00623  0.76607  0.61257     C
C      0.04017  0.23143  0.38583     C
C      0.04017  0.80873  0.88583     C
C      0.04067  0.18753  0.36523     C
C      0.04067  0.85313  0.86523     C
O      0.04094  0.10443  0.30643     O
O      0.04094   0.9365  0.80643     O
C      0.04337  0.33213  0.40203     C
C      0.04337  0.71123  0.90203     C
C      0.04407  0.38243  0.76373     C
C      0.04407  0.66163  0.26373     C
C      0.04457  0.33453  0.76463     C
C      0.04457  0.71003  0.26463     C
C      0.04518  0.37852  0.41667     C
C      0.04518  0.66667  0.91667     C
C      0.04523  0.18687  0.75337     C
C      0.04523  0.85837  0.25337     C
C      0.04693  0.23507  0.75317     C
C      0.04693  0.81187  0.25317     C
O       0.0471   0.1008  0.18387     O
O       0.0471  0.94631  0.68387     O
C       0.0491   0.3774   0.0696     C
C       0.0491   0.6717   0.5696     C
N      0.05112  0.33333  0.08333     N
N      0.05112  0.71778  0.58333     N
C      0.05263  0.19597  0.14537     C
C      0.05263  0.85667  0.64537     C
C      0.05283  0.24157  0.12607     C
C      0.05283  0.81127  0.62607     C
O      0.05369   0.1008  0.68387     O
O      0.05369   0.9529  0.18387     O
H      0.05947  0.47833  0.78893     H
H      0.05947  0.58113  0.28893     H
O       0.0635  0.10443  0.80643     O
O       0.0635  0.95906  0.30643     O
H      0.06617  0.47963  0.42193     H
H      0.06617  0.58653  0.92193     H
Ni     0.06884      0.0     0.75    Ni
Ni     0.06884  0.06884     0.25    Ni
H      0.07227  0.26083  0.39923     H
H      0.07227  0.81143  0.89923     H
H       0.0725   0.4781   0.0659     H
H       0.0725   0.5944   0.5659     H
H      0.07337  0.18773  0.36313     H
H      0.07337  0.88563  0.86313     H
H      0.07497  0.33243  0.39113     H
H      0.07497  0.74253  0.89113     H
H      0.07587  0.33423  0.77553     H
H      0.07587  0.74163  0.27553     H
H      0.07773  0.18657  0.75597     H
H      0.07773  0.89117  0.25597     H
H      0.08013  0.26717  0.75527     H
H      0.08013  0.81297  0.25527     H
H      0.08533  0.19767  0.15377     H
H      0.08533  0.88767  0.65377     H
H      0.08553  0.27387  0.12227     H
H      0.08553  0.81167  0.62227     H
C      0.09177  0.47793  0.79273     C
C      0.09177  0.61383  0.29273     C
C      0.09317  0.43273  0.77923     C
C      0.09317  0.66043  0.27923     C
C      0.09658  0.42992  0.41667     C
C      0.09658  0.66667  0.91667     C
C      0.09663  0.10037  0.67837     C
C      0.09663  0.99627  0.17837     C
C      0.09827  0.47853  0.41983     C
C      0.09827  0.61973  0.91983     C
C       0.0994   0.4265   0.0541     C
C       0.0994   0.6729   0.5541     C
C      0.10037  0.00373  0.32163     C
C      0.10037  0.09663  0.82163     C
O       0.1008   0.0471  0.31613     O
O       0.1008  0.05369  0.81613     O
C       0.1019   0.4754   0.0525     C
C       0.1019   0.6265   0.5525     C
O      0.10443  0.04094  0.19357     O
O      0.10443   0.0635  0.69357     O
H      0.10883  0.18657  0.25597     H
H      0.10883  0.92227  0.75597     H
H      0.11233  0.19767  0.65377     H
H      0.11233  0.91467  0.15377     H
H      0.11437  0.18773  0.86313     H
H      0.11437  0.92663  0.36313     H
H      0.13567  0.55433  0.82043     H
H      0.13567  0.58133  0.32043     H
C      0.13737  0.52333  0.81203     C
C      0.13737  0.61403  0.31203     C
N      0.14045      0.0     0.75     N
N      0.14045  0.14045     0.25     N
C      0.14163  0.18687  0.25337     C
C      0.14163  0.95477  0.75337     C
C      0.14207  0.43523  0.78083     C
C      0.14207  0.70683  0.28083     C
C      0.14273  0.14867  0.65247     C
C      0.14273  0.99407  0.15247     C
C      0.14333  0.19597  0.64537     C
C      0.14333  0.94737  0.14537     C
C       0.1446   0.4251   0.0406     C
C       0.1446   0.7195   0.5406     C
H      0.14477  0.40583  0.76743     H
H      0.14477  0.73893  0.26743     H
H        0.145   0.3928   0.0444     H
H        0.145   0.7522   0.5444     H
C       0.1452   0.4316   0.4135     C
C       0.1452   0.7136   0.9135     C
H       0.1456   0.5523   0.0298     H
H       0.1456   0.5933   0.5298     H
C       0.1458   0.5198   0.0319     C
C       0.1458    0.626   0.5319     C
H       0.1463   0.3995   0.4114     H
H       0.1463   0.7468   0.9114     H
C      0.14647  0.52503  0.42003     C
C      0.14647  0.62143  0.92003     C
H      0.14677  0.55783  0.42263     H
H      0.14677  0.58893  0.92263     H
C      0.14687  0.18753  0.86523     C
C      0.14687  0.95933  0.36523     C
C      0.14867  0.00593  0.34753     C
C      0.14867  0.14273  0.84753     C
C      0.18467  0.52393  0.81913     C
C      0.18467  0.66073  0.31913     C
C      0.18647  0.47913  0.80143     C
C      0.18647  0.70733  0.30143     C
H      0.18657  0.07773  0.74403     H
H      0.18657  0.10883  0.24403     H
C      0.18687  0.04523  0.74663     C
C      0.18687  0.14163  0.24663     C
H      0.18703  0.26717  0.25527     H
H      0.18703  0.91987  0.75527     H
C      0.18753  0.04067  0.13477     C
C      0.18753  0.14687  0.63477     C
H      0.18773  0.07337  0.13687     H
H      0.18773  0.11437  0.63687     H
C      0.18813  0.23507  0.25317     C
C      0.18813  0.95307  0.75317     C
H      0.18833  0.27387  0.62227     H
H      0.18833  0.91447  0.12227     H
H      0.18857  0.26083  0.89923     H
H      0.18857  0.92773  0.39923     H
C      0.18873  0.24157  0.62607     C
C      0.18873  0.94717  0.12607     C
C         0.19   0.4707   0.0213     C
C         0.19   0.7193   0.5213     C
C       0.1906    0.518   0.0142     C
C       0.1906   0.6726   0.5142     C
C      0.19127  0.23143  0.88583     C
C      0.19127  0.95983  0.38583     C
C       0.1917   0.4798   0.4133     C
C       0.1917   0.7119   0.9133     C
N      0.19288  0.52622  0.41667     N
N      0.19288  0.66667  0.91667     N
C      0.19597  0.05263  0.35463     C
C      0.19597  0.14333  0.85463     C
H      0.19767  0.08533  0.34623     H
H      0.19767  0.11233  0.84623     H
H      0.21897  0.47893  0.80353     H
H      0.21897  0.74003  0.30353     H
H        0.221    0.469   0.0129     H
H        0.221    0.752   0.5129     H
H       0.2245   0.4801   0.4107     H
H       0.2245   0.7444   0.9107     H
O       0.2289  0.60317   0.9731     O
O       0.2289  0.62573   0.4731     O
C      0.23143  0.04017  0.11417     C
C      0.23143  0.19127  0.61417     C
O      0.23254  0.61297  0.85053     O
O      0.23254  0.61956  0.35053     O
C      0.23297  0.57003  0.84503     C
C      0.23297  0.66293  0.34503     C
C      0.23393  0.24017  0.61257     C
C      0.23393  0.99377  0.11257     C
C      0.23507  0.04693  0.74683     C
C      0.23507  0.18813  0.24683     C
C       0.2367   0.5663   0.9883     C
C       0.2367   0.6704   0.4883     C
C      0.23675      0.0     0.75     C
C      0.23675  0.23675     0.25     C
C      0.24017  0.00623  0.38743     C
C      0.24017  0.23393  0.88743     C
C      0.24157  0.05283  0.37393     C
C      0.24157  0.18873  0.87393     C
H       0.2478   0.3928   0.5444     H
H       0.2478    0.855   0.0444     H
H        0.248    0.469   0.5129     H
H        0.248    0.779   0.0129     H
H       0.2532   0.3995   0.9114     H
H       0.2532   0.8537   0.4114     H
H       0.2556   0.4801   0.9107     H
H       0.2556   0.7755   0.4107     H
H      0.25747  0.33243  0.89113     H
H      0.25747  0.92503  0.39113     H
H      0.25837  0.33423  0.27553     H
H      0.25837  0.92413  0.77553     H
H      0.25997  0.47893  0.30353     H
H      0.25997  0.78103  0.80353     H
H      0.26083  0.07227  0.10077     H
H      0.26083  0.18857  0.60077     H
H      0.26107  0.40583  0.26743     H
H      0.26107  0.85523  0.76743     H
Ni     0.26449  0.59783  0.41667    Ni
Ni     0.26449  0.66667  0.91667    Ni
H      0.26717  0.08013  0.74473     H
H      0.26717  0.18703  0.24473     H
O      0.26984  0.56223  0.86023     O
O      0.26984   0.7076  0.36023     O
H      0.27387  0.08553  0.37773     H
H      0.27387  0.18833  0.87773     H
O      0.27964  0.56587   0.9828     O
O      0.27964  0.71377   0.4828     O
C       0.2805   0.4251   0.5406     C
C       0.2805   0.8554   0.0406     C
C       0.2807   0.4707   0.5213     C
C       0.2807     0.81   0.0213     C
N      0.28222  0.33333  0.58333     N
N      0.28222  0.94888  0.08333     N
C      0.28423  0.28927  0.59707     C
C      0.28423  0.99497  0.09707     C
O      0.28623  0.56587   0.4828     O
O      0.28623  0.72036   0.9828     O
C       0.2864   0.4316   0.9135     C
C       0.2864   0.8548   0.4135     C
C       0.2881   0.4798   0.9133     C
C       0.2881   0.8083   0.4133     C
C      0.28815      0.0     0.75     C
C      0.28815  0.28815     0.25     C
C      0.28877  0.33213  0.90203     C
C      0.28877  0.95663  0.40203     C
C      0.28927  0.00503  0.40293     C
C      0.28927  0.28423  0.90293     C
C      0.28997  0.33453  0.26463     C
C      0.28997  0.95543  0.76463     C
O       0.2924  0.56223  0.36023     O
O       0.2924  0.73016  0.86023     O
C      0.29267  0.47913  0.30143     C
C      0.29267  0.81353  0.80143     C
C      0.29317  0.43523  0.28083     C
C      0.29317  0.85793  0.78083     C
C       0.3271   0.4265   0.5541     C
C       0.3271   0.9006   0.0541     C
C       0.3274    0.518   0.5142     C
C       0.3274   0.8094   0.0142     C
C       0.3283   0.3774   0.5696     C
C       0.3283   0.9509   0.0696     C
C       0.3296   0.5663   0.4883     C
C       0.3296   0.7633   0.9883     C
C      0.33213  0.04337  0.09797     C
C      0.33213  0.28877  0.59797     C
H      0.33243  0.07497  0.10887     H
H      0.33243  0.25747  0.60887     H
N      0.33333  0.05112  0.41667     N
N      0.33333  0.28222  0.91667     N
C      0.33333  0.37852  0.91667     C
C      0.33333  0.42992  0.91667     C
N      0.33333  0.52622  0.91667     N
Ni     0.33333  0.59783  0.91667    Ni
H      0.33333  0.66667    0.374     H
O      0.33333  0.66667  0.41667     O
H      0.33333  0.66667  0.45933     H
H      0.33333  0.66667    0.874     H
O      0.33333  0.66667  0.91667     O
H      0.33333  0.66667  0.95933     H
Ni     0.33333  0.73551  0.41667    Ni
N      0.33333  0.80712  0.41667     N
C      0.33333  0.90342  0.41667     C
C      0.33333  0.95482  0.41667     C
H      0.33423  0.07587  0.72447     H
H      0.33423  0.25837  0.22447     H
C      0.33453  0.04457  0.73537     C
C      0.33453  0.28997  0.23537     C
C      0.33707  0.57003  0.34503     C
C      0.33707  0.76703  0.84503     C
C      0.33837  0.38243  0.26373     C
C      0.33837  0.95593  0.76373     C
C      0.33927  0.52393  0.31913     C
C      0.33927  0.81533  0.81913     C
C      0.33957  0.43273  0.27923     C
C      0.33957  0.90683  0.77923     C
C       0.3735   0.4754   0.5525     C
C       0.3735   0.8981   0.0525     C
C        0.374   0.5198   0.5319     C
C        0.374   0.8542   0.0319     C
O      0.37427  0.60317   0.4731     O
O      0.37427   0.7711   0.9731     O
C       0.3767   0.3779   0.5687     C
C       0.3767   0.9988   0.0687     C
C       0.3774   0.0491   0.4304     C
C       0.3774   0.3283   0.9304     C
C       0.3779   0.0012   0.4313     C
C       0.3779   0.3767   0.9313     C
C      0.37852  0.04518  0.08333     C
C      0.37852  0.33333  0.58333     C
C      0.37857  0.52503  0.92003     C
C      0.37857  0.85353  0.42003     C
C      0.38027  0.47853  0.91983     C
C      0.38027  0.90173  0.41983     C
O      0.38044  0.61297  0.35053     O
O      0.38044  0.76746  0.85053     O
C      0.38243  0.04407  0.73627     C
C      0.38243  0.33837  0.23627     C
N      0.38445      0.0     0.75     N
N      0.38445  0.38445     0.25     N
C      0.38597  0.52333  0.31203     C
C      0.38597  0.86263  0.81203     C
C      0.38617  0.47793  0.29273     C
C      0.38617  0.90823  0.79273     C
O      0.38703  0.61956  0.85053     O
O      0.38703  0.76746  0.35053     O
H       0.3928    0.145   0.4556     H
H       0.3928   0.2478   0.9556     H
O      0.39683  0.62573   0.9731     O
O      0.39683   0.7711   0.4731     O
H       0.3995   0.1463   0.0886     H
H       0.3995   0.2532   0.5886     H
Ni     0.40217  0.66667  0.41667    Ni
Ni     0.40217  0.73551  0.91667    Ni
H       0.4056   0.4781   0.5659     H
H       0.4056   0.9275   0.0659     H
H      0.40583  0.14477  0.73257     H
H      0.40583  0.26107  0.23257     H
H       0.4067   0.5523   0.5298     H
H       0.4067   0.8544   0.0298     H
H       0.4083   0.4092   0.5578     H
H       0.4083   0.9991   0.0578     H
H       0.4092   0.0009   0.4422     H
H       0.4092   0.4083   0.9422     H
H      0.41107  0.55783  0.92263     H
H      0.41107  0.85323  0.42263     H
H      0.41347  0.47963  0.92193     H
H      0.41347  0.93383  0.42193     H
H      0.41867  0.55433  0.32043     H
H      0.41867  0.86433  0.82043     H
H      0.41887  0.47833  0.28893     H
H      0.41887  0.94053  0.78893     H
C       0.4251   0.1446   0.4594     C
C       0.4251   0.2805   0.9594     C
C       0.4265   0.0994   0.4459     C
C       0.4265   0.3271   0.9459     C
C      0.42992  0.09658  0.08333     C
C      0.42992  0.33333  0.58333     C
C      0.42997  0.66293  0.84503     C
C      0.42997  0.76703  0.34503     C
C       0.4316   0.1452   0.0865     C
C       0.4316   0.2864   0.5865     C
C      0.43273  0.09317  0.72077     C
C      0.43273  0.33957  0.22077     C
C       0.4337   0.6704   0.9883     C
C       0.4337   0.7633   0.4883     C
O      0.43413  0.71377   0.9828     O
O      0.43413  0.72036   0.4828     O
C      0.43523  0.14207  0.71917     C
C      0.43523  0.29317  0.21917     C
O      0.43777   0.7076  0.86023     O
O      0.43777  0.73016  0.36023     O
H      0.44217  0.58893  0.42263     H
H      0.44217  0.85323  0.92263     H
H      0.44567  0.58133  0.82043     H
H      0.44567  0.86433  0.32043     H
H       0.4477   0.5933   0.0298     H
H       0.4477   0.8544   0.5298     H
H        0.469    0.221   0.4871     H
H        0.469    0.248   0.9871     H
C       0.4707     0.19   0.4787     C
C       0.4707   0.2807   0.9787     C
N      0.47378  0.66667  0.41667     N
N      0.47378  0.80712  0.91667     N
C      0.47497  0.62143  0.42003     C
C      0.47497  0.85353  0.92003     C
C       0.4754   0.1019   0.4475     C
C       0.4754   0.3735   0.9475     C
C      0.47607  0.66073  0.81913     C
C      0.47607  0.81533  0.31913     C
C      0.47667  0.61403  0.81203     C
C      0.47667  0.86263  0.31203     C
C      0.47793  0.09177  0.70727     C
C      0.47793  0.38617  0.20727     C
H       0.4781   0.0725   0.4341     H
H       0.4781   0.4056   0.9341     H
H      0.47833  0.05947  0.71107     H
H      0.47833  0.41887  0.21107     H
C      0.47853  0.09827  0.08017     C
C      0.47853  0.38027  0.58017     C
H      0.47893  0.21897  0.69647     H
H      0.47893  0.25997  0.19647     H
C      0.47913  0.18647  0.69857     C
C      0.47913  0.29267  0.19857     C
H      0.47963  0.06617  0.07807     H
H      0.47963  0.41347  0.57807     H
C       0.4798   0.1917   0.0867     C
C       0.4798   0.2881   0.5867     C
H       0.4801   0.2245   0.0893     H
H       0.4801   0.2556   0.5893     H
C       0.4802    0.626   0.0319     C
C       0.4802   0.8542   0.5319     C
C        0.482   0.6726   0.0142     C
C        0.482   0.8094   0.5142     C
C        0.518   0.1906   0.4858     C
C        0.518   0.3274   0.9858     C
C       0.5198   0.1458   0.4681     C
C       0.5198    0.374   0.9681     C
H       0.5199   0.7444   0.4107     H
H       0.5199   0.7755   0.9107     H
C       0.5202   0.7119   0.4133     C
C       0.5202   0.8083   0.9133     C
H      0.52037  0.58653  0.42193     H
H      0.52037  0.93383  0.92193     H
C      0.52087  0.70733  0.80143     C
C      0.52087  0.81353  0.30143     C
H      0.52107  0.74003  0.80353     H
H      0.52107  0.78103  0.30353     H
C      0.52147  0.61973  0.41983     C
C      0.52147  0.90173  0.91983     C
H      0.52167  0.58113  0.78893     H
H      0.52167  0.94053  0.28893     H
H       0.5219   0.5944   0.0659     H
H       0.5219   0.9275   0.5659     H
C      0.52207  0.61383  0.79273     C
C      0.52207  0.90823  0.29273     C
C      0.52333  0.13737  0.68797     C
C      0.52333  0.38597  0.18797     C
C      0.52393  0.18467  0.68087     C
C      0.52393  0.33927  0.18087     C
C       0.5246   0.6265   0.0525     C
C       0.5246   0.8981   0.5525     C
C      0.52503  0.14647  0.07997     C
C      0.52503  0.37857  0.57997     C
N      0.52622  0.19288  0.08333     N
N      0.52622  0.33333  0.58333     N
C       0.5293   0.7193   0.0213     C
C       0.5293     0.81   0.5213     C
H        0.531    0.752   0.0129     H
H        0.531    0.779   0.5129     H
H       0.5523   0.1456   0.4702     H
H       0.5523   0.4067   0.9702     H
H      0.55433  0.13567  0.67957     H
H      0.55433  0.41867  0.17957     H
H      0.55783  0.14677  0.07737     H
H      0.55783  0.41107  0.57737     H
O      0.56223  0.26984  0.63977     O
O      0.56223   0.2924  0.13977     O
C      0.56477  0.70683  0.78083     C
C      0.56477  0.85793  0.28083     C
O      0.56587  0.27964   0.5172     O
O      0.56587  0.28623   0.0172     O
C       0.5663   0.2367   0.5117     C
C       0.5663   0.3296   0.0117     C
C      0.56727  0.66043  0.77923     C
C      0.56727  0.90683  0.27923     C
C       0.5684   0.7136   0.4135     C
C       0.5684   0.8548   0.9135     C
C      0.57003  0.23297  0.65497     C
C      0.57003  0.33707  0.15497     C
C      0.57008  0.66667  0.41667     C
C      0.57008  0.90342  0.91667     C
C       0.5735   0.6729   0.0541     C
C       0.5735   0.9006   0.5541     C
C       0.5749   0.7195   0.0406     C
C       0.5749   0.8554   0.5406     C
H      0.58113  0.05947  0.21107     H
H      0.58113  0.52167  0.71107     H
H      0.58133  0.13567  0.17957     H
H      0.58133  0.44567  0.67957     H
H      0.58653  0.06617  0.57807     H
H      0.58653  0.52037  0.07807     H
H      0.58893  0.14677  0.57737     H
H      0.58893  0.44217  0.07737     H
H       0.5908   0.5917   0.0578     H
H       0.5908   0.9991   0.5578     H
H       0.5917   0.0009   0.9422     H
H       0.5917   0.5908   0.4422     H
H       0.5933   0.1456   0.9702     H
H       0.5933   0.4477   0.4702     H
H      0.59417  0.73893  0.76743     H
H      0.59417  0.85523  0.26743     H
H       0.5944   0.0725   0.9341     H
H       0.5944   0.5219   0.4341     H
Ni     0.59783  0.26449  0.08333    Ni
Ni     0.59783  0.33333  0.58333    Ni
H       0.6005   0.7468   0.4114     H
H       0.6005   0.8537   0.9114     H
O      0.60317   0.2289   0.5269     O
O      0.60317  0.37427   0.0269     O
H       0.6072   0.7522   0.0444     H
H       0.6072    0.855   0.5444     H
O      0.61297  0.23254  0.64947     O
O      0.61297  0.38044  0.14947     O
C      0.61383  0.09177  0.20727     C
C      0.61383  0.52207  0.70727     C
C      0.61403  0.13737  0.18797     C
C      0.61403  0.47667  0.68797     C
N      0.61555      0.0     0.25     N
N      0.61555  0.61555     0.75     N
C      0.61757  0.66163  0.76373     C
C      0.61757  0.95593  0.26373     C
O      0.61956  0.23254  0.14947     O
O      0.61956  0.38703  0.64947     O
C      0.61973  0.09827  0.58017     C
C      0.61973  0.52147  0.08017     C
C      0.62143  0.14647  0.57997     C
C      0.62143  0.47497  0.07997     C
C      0.62148  0.66667  0.41667     C
C      0.62148  0.95482  0.91667     C
C       0.6221   0.6233   0.0687     C
C       0.6221   0.9988   0.5687     C
C       0.6226   0.6717   0.0696     C
C       0.6226   0.9509   0.5696     C
C       0.6233   0.0012   0.9313     C
C       0.6233   0.6221   0.4313     C
O      0.62573   0.2289   0.0269     O
O      0.62573  0.39683   0.5269     O
C        0.626   0.1458   0.9681     C
C        0.626   0.4802   0.4681     C
C       0.6265   0.1019   0.9475     C
C       0.6265   0.5246   0.4475     C
C      0.66043  0.09317  0.22077     C
C      0.66043  0.56727  0.72077     C
C      0.66073  0.18467  0.18087     C
C      0.66073  0.47607  0.68087     C
C      0.66163  0.04407  0.23627     C
C      0.66163  0.61757  0.73627     C
C      0.66293  0.23297  0.15497     C
C      0.66293  0.42997  0.65497     C
C      0.66547  0.71003  0.76463     C
C      0.66547  0.95543  0.26463     C
H      0.66577  0.74163  0.77553     H
H      0.66577  0.92413  0.27553     H
C      0.66667  0.04518  0.58333     C
C      0.66667  0.09658  0.58333     C
N      0.66667  0.19288  0.58333     N
Ni     0.66667  0.26449  0.58333    Ni
H      0.66667  0.33333  0.04067     H
O      0.66667  0.33333  0.08333     O
H      0.66667  0.33333    0.126     H
H      0.66667  0.33333  0.54067     H
O      0.66667  0.33333  0.58333     O
H      0.66667  0.33333    0.626     H
Ni     0.66667  0.40217  0.08333    Ni
N      0.66667  0.47378  0.08333     N
C      0.66667  0.57008  0.08333     C
C      0.66667  0.62148  0.08333     C
N      0.66667  0.71778  0.08333     N
N      0.66667  0.94888  0.58333     N
H      0.66757  0.74253  0.39113     H
H      0.66757  0.92503  0.89113     H
C      0.66787  0.71123  0.40203     C
C      0.66787  0.95663  0.90203     C
C       0.6704   0.2367   0.0117     C
C       0.6704   0.4337   0.5117     C
C       0.6717   0.0491   0.9304     C
C       0.6717   0.6226   0.4304     C
C       0.6726   0.1906   0.9858     C
C       0.6726    0.482   0.4858     C
C       0.6729   0.0994   0.9459     C
C       0.6729   0.5735   0.4459     C
C      0.70683  0.14207  0.21917     C
C      0.70683  0.56477  0.71917     C
C      0.70733  0.18647  0.19857     C
C      0.70733  0.52087  0.69857     C
O       0.7076  0.26984  0.13977     O
O       0.7076  0.43777  0.63977     O
C      0.71003  0.04457  0.23537     C
C      0.71003  0.66547  0.73537     C
C      0.71073  0.71577  0.09707     C
C      0.71073  0.99497  0.59707     C
C      0.71123  0.04337  0.59797     C
C      0.71123  0.66787  0.09797     C
C      0.71185      0.0     0.25     C
C      0.71185  0.71185     0.75     C
C       0.7119   0.1917   0.5867     C
C       0.7119   0.5202   0.0867     C
C       0.7136   0.1452   0.5865     C
C       0.7136   0.5684   0.0865     C
O      0.71377  0.27964   0.0172     O
O      0.71377  0.43413   0.5172     O
C      0.71577  0.00503  0.90293     C
C      0.71577  0.71073  0.40293     C
N      0.71778  0.05112  0.91667     N
N      0.71778  0.66667  0.41667     N
C       0.7193     0.19   0.9787     C
C       0.7193   0.5293   0.4787     C
C       0.7195   0.1446   0.9594     C
C       0.7195   0.5749   0.4594     C
O      0.72036  0.28623   0.5172     O
O      0.72036  0.43413   0.0172     O
H      0.72613  0.81167  0.12227     H
H      0.72613  0.91447  0.62227     H
O      0.73016   0.2924  0.63977     O
O      0.73016  0.43777  0.13977     O
H      0.73283  0.81297  0.75527     H
H      0.73283  0.91987  0.25527     H
Ni     0.73551  0.33333  0.08333    Ni
Ni     0.73551  0.40217  0.58333    Ni
H      0.73893  0.14477  0.23257     H
H      0.73893  0.59417  0.73257     H
H      0.73917  0.81143  0.39923     H
H      0.73917  0.92773  0.89923     H
H      0.74003  0.21897  0.19647     H
H      0.74003  0.52107  0.69647     H
H      0.74163  0.07587  0.22447     H
H      0.74163  0.66577  0.72447     H
H      0.74253  0.07497  0.60887     H
H      0.74253  0.66757  0.10887     H
H       0.7444   0.2245   0.5893     H
H       0.7444   0.5199   0.0893     H
H       0.7468   0.1463   0.5886     H
H       0.7468   0.6005   0.0886     H
H        0.752    0.221   0.9871     H
H        0.752    0.531   0.4871     H
H       0.7522    0.145   0.9556     H
H       0.7522   0.6072   0.4556     H
C      0.75843  0.81127  0.12607     C
C      0.75843  0.94717  0.62607     C
C      0.75983  0.76607  0.11257     C
C      0.75983  0.99377  0.61257     C
C      0.76325      0.0     0.25     C
C      0.76325  0.76325     0.75     C
C       0.7633   0.3296   0.5117     C
C       0.7633   0.4337   0.0117     C
C      0.76493  0.81187  0.75317     C
C      0.76493  0.95307  0.25317     C
C      0.76607  0.00623  0.88743     C
C      0.76607  0.75983  0.38743     C
C      0.76703  0.33707  0.65497     C
C      0.76703  0.42997  0.15497     C
O      0.76746  0.38044  0.64947     O
O      0.76746  0.38703  0.14947     O
C      0.76857  0.80873  0.38583     C
C      0.76857  0.95983  0.88583     C
O       0.7711  0.37427   0.5269     O
O       0.7711  0.39683   0.0269     O
H       0.7755   0.2556   0.0893     H
H       0.7755   0.5199   0.5893     H
H        0.779    0.248   0.4871     H
H        0.779    0.531   0.9871     H
H      0.78103  0.25997  0.69647     H
H      0.78103  0.52107  0.19647     H
H      0.80233  0.88767  0.15377     H
H      0.80233  0.91467  0.65377     H
C      0.80403  0.85667  0.14537     C
C      0.80403  0.94737  0.64537     C
N      0.80712  0.33333  0.08333     N
N      0.80712  0.47378  0.58333     N
C       0.8083   0.2881   0.0867     C
C       0.8083   0.5202   0.5867     C
C      0.80873  0.04017  0.61417     C
C      0.80873  0.76857  0.11417     C
C       0.8094   0.3274   0.4858     C
C       0.8094    0.482   0.9858     C
C         0.81   0.2807   0.4787     C
C         0.81   0.5293   0.9787     C
C      0.81127  0.05283  0.87393     C
C      0.81127  0.75843  0.37393     C
H      0.81143  0.07227  0.60077     H
H      0.81143  0.73917  0.10077     H
H      0.81167  0.08553  0.87773     H
H      0.81167  0.72613  0.37773     H
C      0.81187  0.04693  0.24683     C
C      0.81187  0.76493  0.74683     C
H      0.81227  0.88563  0.36313     H
H      0.81227  0.92663  0.86313     H
C      0.81247  0.85313  0.36523     C
C      0.81247  0.95933  0.86523     C
H      0.81297  0.08013  0.24473     H
H      0.81297  0.73283  0.74473     H
C      0.81313  0.85837  0.75337     C
C      0.81313  0.95477  0.25337     C
H      0.81343  0.89117  0.75597     H
H      0.81343  0.92227  0.25597     H
C      0.81353  0.29267  0.69857     C
C      0.81353  0.52087  0.19857     C
C      0.81533  0.33927  0.68087     C
C      0.81533  0.47607  0.18087     C
C      0.85133  0.85727  0.15247     C
C      0.85133  0.99407  0.65247     C
C      0.85313  0.04067  0.63477     C
C      0.85313  0.81247  0.13477     C
H      0.85323  0.41107  0.07737     H
H      0.85323  0.44217  0.57737     H
C      0.85353  0.37857  0.07997     C
C      0.85353  0.47497  0.57997     C
H       0.8537   0.2532   0.0886     H
H       0.8537   0.6005   0.5886     H
C       0.8542    0.374   0.4681     C
C       0.8542   0.4802   0.9681     C
H       0.8544   0.4067   0.4702     H
H       0.8544   0.4477   0.9702     H
C       0.8548   0.2864   0.0865     C
C       0.8548   0.5684   0.5865     C
H        0.855   0.2478   0.4556     H
H        0.855   0.6072   0.9556     H
H      0.85523  0.26107  0.73257     H
H      0.85523  0.59417  0.23257     H
C       0.8554   0.2805   0.4594     C
C       0.8554   0.5749   0.9594     C
C      0.85667  0.05263  0.85463     C
C      0.85667  0.80403  0.35463     C
C      0.85727  0.00593  0.84753     C
C      0.85727  0.85133  0.34753     C
C      0.85793  0.29317  0.71917     C
C      0.85793  0.56477  0.21917     C
C      0.85837  0.04523  0.24663     C
C      0.85837  0.81313  0.74663     C
N      0.85955      0.0     0.25     N
N      0.85955  0.85955     0.75     N
C      0.86263  0.38597  0.68797     C
C      0.86263  0.47667  0.18797     C
H      0.86433  0.41867  0.67957     H
H      0.86433  0.44567  0.17957     H
H      0.88563  0.07337  0.63687     H
H      0.88563  0.81227  0.13687     H
H      0.88767  0.08533  0.84623     H
H      0.88767  0.80233  0.34623     H
H      0.89117  0.07773  0.24403     H
H      0.89117  0.81343  0.74403     H
O      0.89557   0.9365  0.30643     O
O      0.89557  0.95906  0.80643     O
C       0.8981   0.3735   0.4475     C
C       0.8981   0.5246   0.9475     C
O       0.8992  0.94631  0.18387     O
O       0.8992   0.9529  0.68387     O
C      0.89963  0.90337  0.17837     C
C      0.89963  0.99627  0.67837     C
C       0.9006   0.3271   0.4459     C
C       0.9006   0.5735   0.9459     C
C      0.90173  0.38027  0.08017     C
C      0.90173  0.52147  0.58017     C
C      0.90337  0.00373  0.82163     C
C      0.90337  0.89963  0.32163     C
C      0.90342  0.33333  0.08333     C
C      0.90342  0.57008  0.58333     C
C      0.90683  0.33957  0.72077     C
C      0.90683  0.56727  0.22077     C
C      0.90823  0.38617  0.70727     C
C      0.90823  0.52207  0.20727     C
H      0.91447  0.18833  0.37773     H
H      0.91447  0.72613  0.87773     H
H      0.91467  0.11233  0.34623     H
H      0.91467  0.80233  0.84623     H
H      0.91987  0.18703  0.74473     H
H      0.91987  0.73283  0.24473     H
H      0.92227  0.10883  0.74403     H
H      0.92227  0.81343  0.24403     H
H      0.92413  0.25837  0.72447     H
H      0.92413  0.66577  0.22447     H
H      0.92503  0.25747  0.10887     H
H      0.92503  0.66757  0.60887     H
H      0.92663  0.11437  0.13687     H
H      0.92663  0.81227  0.63687     H
H       0.9275   0.4056   0.4341     H
H       0.9275   0.5219   0.9341     H
H      0.92773  0.18857  0.10077     H
H      0.92773  0.73917  0.60077     H
Ni     0.93116      0.0     0.25    Ni
Ni     0.93116  0.93116     0.75    Ni
H      0.93383  0.41347  0.07807     H
H      0.93383  0.52037  0.57807     H
O       0.9365  0.04094  0.69357     O
O       0.9365  0.89557  0.19357     O
H      0.94053  0.41887  0.71107     H
H      0.94053  0.52167  0.21107     H
O      0.94631   0.0471  0.81613     O
O      0.94631   0.8992  0.31613     O
C      0.94717  0.18873  0.37393     C
C      0.94717  0.75843  0.87393     C
C      0.94737  0.14333  0.35463     C
C      0.94737  0.80403  0.85463     C
N      0.94888  0.28222  0.41667     N
N      0.94888  0.66667  0.91667     N
C       0.9509   0.3283   0.4304     C
C       0.9509   0.6226   0.9304     C
O       0.9529  0.05369  0.31613     O
O       0.9529   0.8992  0.81613     O
C      0.95307  0.18813  0.74683     C
C      0.95307  0.76493  0.24683     C
C      0.95477  0.14163  0.74663     C
C      0.95477  0.81313  0.24663     C
C      0.95482  0.33333  0.08333     C
C      0.95482  0.62148  0.58333     C
C      0.95543  0.28997  0.73537     C
C      0.95543  0.66547  0.23537     C
C      0.95593  0.33837  0.73627     C
C      0.95593  0.61757  0.23627     C
C      0.95663  0.28877  0.09797     C
C      0.95663  0.66787  0.59797     C
O      0.95906   0.0635  0.19357     O
O      0.95906  0.89557  0.69357     O
C      0.95933  0.14687  0.13477     C
C      0.95933  0.81247  0.63477     C
C      0.95983  0.19127  0.11417     C
C      0.95983  0.76857  0.61417     C
C      0.99377  0.23393  0.38743     C
C      0.99377  0.75983  0.88743     C
C      0.99407  0.14273  0.34753     C
C      0.99407  0.85133  0.84753     C
C      0.99497  0.28423  0.40293     C
C      0.99497  0.71073  0.90293     C
C      0.99627  0.09663  0.32163     C
C      0.99627  0.89963  0.82163     C
C       0.9988   0.3767   0.4313     C
C       0.9988   0.6221   0.9313     C
H       0.9991   0.4083   0.4422     H
H       0.9991   0.5908   0.9422     H
