data_I
_chemical_name_common  '/home/zhangsd/repos/MofS-CGCNN/ML/data/TSD/clean_cifs/BEPREV02_clean'
_cell_length_a 29.05000
_cell_length_b 29.05000
_cell_length_c 24.50200
_cell_angle_alpha 90.00000
_cell_angle_beta  90.00000
_cell_angle_gamma 120.00000
_space_group_name_H-M_alt      'P 1'


loop_
_space_group_symop_operation_xyz
  'x, y, z' 

loop_
_atom_site_label
_atom_site_fract_x
_atom_site_fract_y
_atom_site_fract_z
_atom_site_type_symbol
H          0.0      0.0  0.21003     H
O          0.0      0.0     0.25     O
H          0.0      0.0  0.28997     H
H          0.0      0.0  0.71003     H
O          0.0      0.0     0.75     O
H          0.0      0.0  0.78997     H
Ni         0.0  0.06891     0.75    Ni
N          0.0   0.1407     0.75     N
C          0.0  0.23715     0.75     C
C          0.0  0.28855     0.75     C
N          0.0  0.38512     0.75     N
N          0.0  0.61488     0.25     N
C          0.0  0.71145     0.25     C
C          0.0  0.76285     0.25     C
N          0.0   0.8593     0.25     N
Ni         0.0  0.93109     0.25    Ni
H       0.0022   0.4087   0.0577     H
H       0.0022   0.5935   0.5577     H
C       0.0024   0.3781   0.0683     C
C       0.0024   0.6243   0.5683     C
C      0.00384  0.10089  0.18101     C
C      0.00384  0.90296  0.68101     C
C      0.00573  0.28937  0.09767     C
C      0.00573  0.71637  0.59767     C
C      0.00586  0.14923  0.15487     C
C      0.00586  0.85664  0.65487     C
C      0.00733  0.24097  0.11437     C
C      0.00733  0.76637  0.61437     C
C      0.03987  0.23163  0.38263     C
C      0.03987  0.80823  0.88263     C
C      0.04007  0.18743  0.36253     C
C      0.04007  0.85263  0.86253     C
O      0.04116  0.10469  0.30569     O
O      0.04116  0.93646  0.80569     O
C      0.04237  0.33093  0.40163     C
C      0.04237  0.71143  0.90163     C
C      0.04397  0.38303  0.76433     C
C      0.04397  0.66093  0.26433     C
C      0.04477  0.33573  0.76503     C
C      0.04477  0.70903  0.26503     C
C      0.04478  0.37812  0.41667     C
C      0.04478  0.66667  0.91667     C
C      0.04503  0.18747  0.75257     C
C      0.04503  0.85757  0.25257     C
C      0.04683  0.23577  0.75207     C
C      0.04683  0.81107  0.25207     C
O      0.04702  0.10217  0.18751     O
O      0.04702  0.94486  0.68751     O
C       0.0497   0.3773    0.069     C
C       0.0497   0.6724    0.569     C
N      0.05179  0.33333  0.08333     N
N      0.05179  0.71845  0.58333     N
C      0.05263  0.19557  0.14557     C
C      0.05263  0.85707  0.64557     C
C      0.05323  0.24077  0.12577     C
C      0.05323  0.81247  0.62577     C
O      0.05514  0.10217  0.68751     O
O      0.05514  0.95298  0.18751     O
H      0.06177  0.48073  0.78693     H
H      0.06177  0.58103  0.28693     H
O      0.06354  0.10469  0.80569     O
O      0.06354  0.95884  0.30569     O
H      0.06607  0.47873  0.41973     H
H      0.06607  0.58733  0.91973     H
Ni     0.06891      0.0     0.75    Ni
Ni     0.06891  0.06891     0.25    Ni
H      0.07157  0.26063  0.39443     H
H      0.07157  0.81093  0.89443     H
H      0.07197  0.18733  0.36053     H
H      0.07197  0.88463  0.86053     H
H       0.0727   0.4776   0.0611     H
H       0.0727   0.5951   0.5611     H
H      0.07317  0.33113  0.39103     H
H      0.07317  0.74203  0.89103     H
H      0.07537  0.33553  0.77563     H
H      0.07537  0.73983  0.27563     H
H      0.07693  0.18747  0.75477     H
H      0.07693  0.88947  0.25477     H
H      0.07933  0.26727  0.75307     H
H      0.07933  0.81207  0.25307     H
H      0.08463  0.19687  0.15267     H
H      0.08463  0.88777  0.65267     H
H      0.08563  0.27157  0.12027     H
H      0.08563  0.81407  0.62027     H
C      0.09237  0.43303  0.78103     C
C      0.09237  0.65933  0.28103     C
C      0.09257  0.47913  0.79243     C
C      0.09257  0.61343  0.29243     C
C      0.09618  0.42952  0.41667     C
C      0.09618  0.66667  0.91667     C
C      0.09704  0.10089  0.68101     C
C      0.09704  0.99616  0.18101     C
C      0.09757  0.47773  0.41873     C
C      0.09757  0.61983  0.91873     C
C       0.0997   0.4257   0.0523     C
C       0.0997    0.674   0.5523     C
C      0.10089  0.00384  0.31899     C
C      0.10089  0.09704  0.81899     C
C       0.1017   0.4749   0.0493     C
C       0.1017   0.6268   0.5493     C
O      0.10217  0.04702  0.31249     O
O      0.10217  0.05514  0.81249     O
O      0.10469  0.04116  0.19431     O
O      0.10469  0.06354  0.69431     O
H      0.11053  0.18747  0.25477     H
H      0.11053  0.92307  0.75477     H
H      0.11223  0.19687  0.65267     H
H      0.11223  0.91537  0.15267     H
H      0.11537  0.18733  0.86053     H
H      0.11537  0.92803  0.36053     H
H      0.13647  0.55443  0.81933     H
H      0.13647  0.58203  0.31933     H
C      0.13777  0.52373  0.81223     C
C      0.13777  0.61403  0.31223     C
N       0.1407      0.0     0.75     N
N       0.1407   0.1407     0.25     N
C      0.14157  0.43503  0.78403     C
C      0.14157  0.70653  0.28403     C
C      0.14243  0.18747  0.25257     C
C      0.14243  0.95497  0.75257     C
C      0.14293  0.19557  0.64557     C
C      0.14293  0.94737  0.14557     C
C      0.14336  0.14923  0.65487     C
C      0.14336  0.99414  0.15487     C
H      0.14427  0.40603  0.77223     H
H      0.14427  0.73823  0.27223     H
C       0.1444   0.4309   0.4146     C
C       0.1444   0.7135   0.9146     C
H       0.1454   0.3994   0.4136     H
H       0.1454    0.746   0.9136     H
C       0.1458   0.4259   0.0409     C
C       0.1458   0.7199   0.5409     C
C      0.14587  0.52423  0.41923     C
H      0.14587  0.55613  0.42143     H
H      0.14587  0.58973  0.92143     H
C      0.14587  0.62163  0.91923     C
C       0.1459   0.5193   0.0292     C
C       0.1459   0.6266   0.5292     C
H        0.146   0.5513   0.0272     H
H        0.146   0.5947   0.5272     H
C      0.14737  0.18743  0.86253     C
C      0.14737  0.95993  0.36253     C
H       0.1474   0.3951   0.0464     H
H       0.1474   0.7523   0.5464     H
C      0.14923  0.00586  0.34513     C
C      0.14923  0.14336  0.84513     C
C      0.18411   0.5233  0.82153     C
C      0.18411   0.6608  0.32153     C
H      0.18593  0.27157  0.62027     H
H      0.18593  0.91437  0.12027     H
C      0.18597  0.47923  0.80413     C
C      0.18597  0.70673  0.30413     C
H      0.18733  0.07197  0.13947     H
H      0.18733  0.11537  0.63947     H
C      0.18743  0.04007  0.13747     C
C      0.18743  0.14737  0.63747     C
C      0.18747  0.04503  0.74743     C
H      0.18747  0.07693  0.74523     H
H      0.18747  0.11053  0.24523     H
C      0.18747  0.14243  0.24743     C
C      0.18753  0.24077  0.62577     C
C      0.18753  0.94677  0.12577     C
H      0.18793  0.26727  0.25307     H
H      0.18793  0.92067  0.75307     H
C      0.18893  0.23577  0.25207     C
C      0.18893  0.95317  0.75207     C
H      0.18907  0.26063  0.89443     H
H      0.18907  0.92843  0.39443     H
C      0.18997  0.51744   0.0118     C
C      0.18997  0.67253   0.5118     C
C       0.1904   0.4711   0.0211     C
C       0.1904   0.7193   0.5211     C
C       0.1909   0.4792   0.4141     C
C       0.1909   0.7117   0.9141     C
C      0.19177  0.23163  0.88263     C
C      0.19177  0.96013  0.38263     C
N      0.19263  0.52597  0.41667     N
N      0.19263  0.66667  0.91667     N
C      0.19557  0.05263  0.35443     C
C      0.19557  0.14293  0.85443     C
H      0.19687  0.08463  0.34733     H
H      0.19687  0.11223  0.84733     H
H      0.21797  0.47933  0.80613     H
H      0.21797  0.73863  0.30613     H
H       0.2211   0.4698    0.014     H
H       0.2211   0.7513    0.514     H
H       0.2228   0.4792   0.4119     H
H       0.2228   0.7436   0.9119     H
O      0.22864  0.60313  0.97236     O
O      0.22864  0.62551  0.47236     O
O      0.23117  0.61152  0.85417     O
O      0.23117  0.61964  0.35417     O
C      0.23163  0.03987  0.11737     C
C      0.23163  0.19177  0.61737     C
C      0.23245  0.56962  0.84767     C
C      0.23245  0.66282  0.34767     C
C      0.23363  0.24097  0.61437     C
C      0.23363  0.99267  0.11437     C
C      0.23577  0.04683  0.74793     C
C      0.23577  0.18893  0.24793     C
C      0.23629  0.56578  0.98566     C
C      0.23629  0.67051  0.48566     C
C      0.23715      0.0     0.75     C
C      0.23715  0.23715     0.25     C
C      0.24077  0.05323  0.37423     C
C      0.24077  0.18753  0.87423     C
C      0.24097  0.00733  0.38563     C
C      0.24097  0.23363  0.88563     C
H       0.2477   0.3951   0.5464     H
H       0.2477   0.8526   0.0464     H
H       0.2487   0.4698    0.514     H
H       0.2487   0.7789    0.014     H
H        0.254   0.3994   0.9136     H
H        0.254   0.8546   0.4136     H
H       0.2564   0.4792   0.9119     H
H       0.2564   0.7772   0.4119     H
H      0.25797  0.33113  0.89103     H
H      0.25797  0.92683  0.39103     H
H      0.26017  0.33553  0.27563     H
H      0.26017  0.92463  0.77563     H
H      0.26063  0.07157  0.10557     H
H      0.26063  0.18907  0.60557     H
H      0.26137  0.47933  0.30613     H
H      0.26137  0.78203  0.80613     H
H      0.26177  0.40603  0.27223     H
H      0.26177  0.85573  0.77223     H
Ni     0.26442  0.59776  0.41667    Ni
Ni     0.26442  0.66667  0.91667    Ni
H      0.26727  0.07933  0.74693     H
H      0.26727  0.18793  0.24693     H
O       0.2698  0.56197  0.86097     O
O       0.2698  0.70782  0.36097     O
H      0.27157  0.08563  0.37973     H
H      0.27157  0.18593  0.87973     H
O      0.27819   0.5645  0.97916     O
O      0.27819  0.71369  0.47916     O
C       0.2801   0.4259   0.5409     C
C       0.2801   0.8542   0.0409     C
C       0.2807   0.4711   0.5211     C
C       0.2807   0.8096   0.0211     C
N      0.28155  0.33333  0.58333     N
N      0.28155  0.94821  0.08333     N
C      0.28363  0.28937  0.59767     C
C      0.28363  0.99427  0.09767     C
O      0.28631   0.5645  0.47916     O
O      0.28631  0.72181  0.97916     O
C       0.2865   0.4309   0.9146     C
C       0.2865   0.8556   0.4146     C
C       0.2883   0.4792   0.9141     C
C       0.2883   0.8091   0.4141     C
C      0.28855      0.0     0.75     C
C      0.28855  0.28855     0.25     C
C      0.28857  0.33093  0.90163     C
C      0.28857  0.95763  0.40163     C
C      0.28937  0.00573  0.40233     C
C      0.28937  0.28363  0.90233     C
C      0.29097  0.33573  0.26503     C
C      0.29097  0.95523  0.76503     C
O      0.29218  0.56197  0.36097     O
O      0.29218   0.7302  0.86097     O
C      0.29327  0.47923  0.30413     C
C      0.29327  0.81403  0.80413     C
C      0.29347  0.43503  0.28403     C
C      0.29347  0.85843  0.78403     C
C        0.326   0.4257   0.5523     C
C        0.326   0.9003   0.0523     C
C      0.32747  0.51744   0.5118     C
C      0.32747  0.81003   0.0118     C
C       0.3276   0.3773    0.569     C
C       0.3276   0.9503    0.069     C
C      0.32949  0.56578  0.48566     C
C      0.32949  0.76371  0.98566     C
C      0.33093  0.04237  0.09837     C
C      0.33093  0.28857  0.59837     C
H      0.33113  0.07317  0.10897     H
H      0.33113  0.25797  0.60897     H
N      0.33333  0.05179  0.41667     N
N      0.33333  0.28155  0.91667     N
C      0.33333  0.37812  0.91667     C
C      0.33333  0.42952  0.91667     C
N      0.33333  0.52597  0.91667     N
Ni     0.33333  0.59776  0.91667    Ni
H      0.33333  0.66667   0.3767     H
O      0.33333  0.66667  0.41667     O
H      0.33333  0.66667  0.45663     H
H      0.33333  0.66667   0.8767     H
O      0.33333  0.66667  0.91667     O
H      0.33333  0.66667  0.95663     H
Ni     0.33333  0.73558  0.41667    Ni
N      0.33333  0.80737  0.41667     N
C      0.33333  0.90382  0.41667     C
C      0.33333  0.95522  0.41667     C
H      0.33553  0.07537  0.72437     H
H      0.33553  0.26017  0.22437     H
C      0.33573  0.04477  0.73497     C
C      0.33573  0.29097  0.23497     C
C      0.33718  0.56962  0.34767     C
C      0.33718  0.76755  0.84767     C
C      0.33907  0.38303  0.26433     C
C      0.33907  0.95603  0.76433     C
C       0.3392   0.5233  0.32153     C
C       0.3392  0.81589  0.82153     C
C      0.34067  0.43303  0.28103     C
C      0.34067  0.90763  0.78103     C
C       0.3732   0.4749   0.5493     C
C       0.3732   0.8983   0.0493     C
C       0.3734   0.5193   0.5292     C
C       0.3734   0.8541   0.0292     C
O      0.37449  0.60313  0.47236     O
O      0.37449  0.77136  0.97236     O
C       0.3757   0.3781   0.5683     C
C       0.3757   0.9976   0.0683     C
C       0.3773   0.0497    0.431     C
C       0.3773   0.3276    0.931     C
C       0.3781   0.0024   0.4317     C
C       0.3781   0.3757   0.9317     C
C      0.37812  0.04478  0.08333     C
C      0.37812  0.33333  0.58333     C
C      0.37837  0.52423  0.91923     C
C      0.37837  0.85413  0.41923     C
C      0.38017  0.47773  0.91873     C
C      0.38017  0.90243  0.41873     C
O      0.38036  0.61152  0.35417     O
O      0.38036  0.76883  0.85417     O
C      0.38303  0.04397  0.73567     C
C      0.38303  0.33907  0.23567     C
N      0.38512      0.0     0.75     N
N      0.38512  0.38512     0.25     N
C      0.38597  0.52373  0.31223     C
C      0.38597  0.86223  0.81223     C
C      0.38657  0.47913  0.29243     C
C      0.38657  0.90743  0.79243     C
O      0.38848  0.61964  0.85417     O
O      0.38848  0.76883  0.35417     O
H       0.3951   0.1474   0.4536     H
H       0.3951   0.2477   0.9536     H
O      0.39687  0.62551  0.97236     O
O      0.39687  0.77136  0.47236     O
H       0.3994   0.1454   0.0864     H
H       0.3994    0.254   0.5864     H
Ni     0.40224  0.66667  0.41667    Ni
Ni     0.40224  0.73558  0.91667    Ni
H       0.4049   0.4776   0.5611     H
H       0.4049   0.9273   0.0611     H
H       0.4053   0.5513   0.5272     H
H       0.4053    0.854   0.0272     H
H      0.40603  0.14427  0.72777     H
H      0.40603  0.26177  0.22777     H
H       0.4065   0.4087   0.5577     H
H       0.4065   0.9978   0.0577     H
H       0.4087   0.0022   0.4423     H
H       0.4087   0.4065   0.9423     H
H      0.41027  0.55613  0.92143     H
H      0.41027  0.85413  0.42143     H
H      0.41267  0.47873  0.91973     H
H      0.41267  0.93393  0.41973     H
H      0.41797  0.55443  0.31933     H
H      0.41797  0.86353  0.81933     H
H      0.41897  0.48073  0.28693     H
H      0.41897  0.93823  0.78693     H
C       0.4257   0.0997   0.4477     C
C       0.4257    0.326   0.9477     C
C       0.4259   0.1458   0.4591     C
C       0.4259   0.2801   0.9591     C
C      0.42952  0.09618  0.08333     C
C      0.42952  0.33333  0.58333     C
C      0.43038  0.66282  0.84767     C
C      0.43038  0.76755  0.34767     C
C       0.4309   0.1444   0.0854     C
C       0.4309   0.2865   0.5854     C
C      0.43303  0.09237  0.71897     C
C      0.43303  0.34067  0.21897     C
C      0.43422  0.67051  0.98566     C
C      0.43422  0.76371  0.48566     C
C      0.43503  0.14157  0.71597     C
C      0.43503  0.29347  0.21597     C
O       0.4355  0.71369  0.97916     O
O       0.4355  0.72181  0.47916     O
O      0.43803  0.70782  0.86097     O
O      0.43803   0.7302  0.36097     O
H      0.44387  0.58973  0.42143     H
H      0.44387  0.85413  0.92143     H
H      0.44557  0.58203  0.81933     H
H      0.44557  0.86353  0.31933     H
H       0.4487   0.5947   0.0272     H
H       0.4487    0.854   0.5272     H
H       0.4698   0.2211    0.486     H
H       0.4698   0.2487    0.986     H
C       0.4711   0.1904   0.4789     C
C       0.4711   0.2807   0.9789     C
N      0.47403  0.66667  0.41667     N
N      0.47403  0.80737  0.91667     N
C       0.4749   0.1017   0.4507     C
C       0.4749   0.3732   0.9507     C
C      0.47577  0.62163  0.41923     C
C      0.47577  0.85413  0.91923     C
C      0.47627  0.61403  0.81223     C
C      0.47627  0.86223  0.31223     C
C       0.4767   0.6608  0.82153     C
C       0.4767  0.81589  0.32153     C
H       0.4776   0.0727   0.4389     H
H       0.4776   0.4049   0.9389     H
C      0.47773  0.09757  0.08127     C
C      0.47773  0.38017  0.58127     C
H      0.47873  0.06607  0.08027     H
H      0.47873  0.41267  0.58027     H
C      0.47913  0.09257  0.70757     C
C      0.47913  0.38657  0.20757     C
C       0.4792   0.1909   0.0859     C
H       0.4792   0.2228   0.0881     H
H       0.4792   0.2564   0.5881     H
C       0.4792   0.2883   0.5859     C
C      0.47923  0.18597  0.69587     C
C      0.47923  0.29327  0.19587     C
H      0.47933  0.21797  0.69387     H
H      0.47933  0.26137  0.19387     H
C       0.4807   0.6266   0.0292     C
C       0.4807   0.8541   0.5292     C
H      0.48073  0.06177  0.71307     H
H      0.48073  0.41897  0.21307     H
C      0.48256  0.67253   0.0118     C
C      0.48256  0.81003   0.5118     C
C      0.51744  0.18997   0.4882     C
C      0.51744  0.32747   0.9882     C
H      0.51927  0.58103  0.78693     H
H      0.51927  0.93823  0.28693     H
C       0.5193   0.1459   0.4708     C
C       0.5193   0.3734   0.9708     C
H      0.52067  0.73863  0.80613     H
H      0.52067  0.78203  0.30613     H
C      0.52077  0.70673  0.80413     C
C      0.52077  0.81403  0.30413     C
C       0.5208   0.7117   0.4141     C
H       0.5208   0.7436   0.4119     H
H       0.5208   0.7772   0.9119     H
C       0.5208   0.8091   0.9141     C
C      0.52087  0.61343  0.79243     C
C      0.52087  0.90743  0.29243     C
H      0.52127  0.58733  0.41973     H
H      0.52127  0.93393  0.91973     H
C      0.52227  0.61983  0.41873     C
C      0.52227  0.90243  0.91873     C
H       0.5224   0.5951   0.0611     H
H       0.5224   0.9273   0.5611     H
C       0.5233  0.18411  0.67847     C
C       0.5233   0.3392  0.17847     C
C      0.52373  0.13777  0.68777     C
C      0.52373  0.38597  0.18777     C
C      0.52423  0.14587  0.08077     C
C      0.52423  0.37837  0.58077     C
C       0.5251   0.6268   0.0493     C
C       0.5251   0.8983   0.5493     C
N      0.52597  0.19263  0.08333     N
N      0.52597  0.33333  0.58333     N
C       0.5289   0.7193   0.0211     C
C       0.5289   0.8096   0.5211     C
H       0.5302   0.7513    0.014     H
H       0.5302   0.7789    0.514     H
H       0.5513    0.146   0.4728     H
H       0.5513   0.4053   0.9728     H
H      0.55443  0.13647  0.68067     H
H      0.55443  0.41797  0.18067     H
H      0.55613  0.14587  0.07857     H
H      0.55613  0.41027  0.57857     H
O      0.56197   0.2698  0.63903     O
O      0.56197  0.29218  0.13903     O
O       0.5645  0.27819  0.52084     O
O       0.5645  0.28631  0.02084     O
C      0.56497  0.70653  0.78403     C
C      0.56497  0.85843  0.28403     C
C      0.56578  0.23629  0.51434     C
C      0.56578  0.32949  0.01434     C
C      0.56697  0.65933  0.78103     C
C      0.56697  0.90763  0.28103     C
C       0.5691   0.7135   0.4146     C
C       0.5691   0.8556   0.9146     C
C      0.56962  0.23245  0.65233     C
C      0.56962  0.33718  0.15233     C
C      0.57048  0.66667  0.41667     C
C      0.57048  0.90382  0.91667     C
C       0.5741   0.7199   0.0409     C
C       0.5741   0.8542   0.5409     C
C       0.5743    0.674   0.0523     C
C       0.5743   0.9003   0.5523     C
H      0.58103  0.06177  0.21307     H
H      0.58103  0.51927  0.71307     H
H      0.58203  0.13647  0.18067     H
H      0.58203  0.44557  0.68067     H
H      0.58733  0.06607  0.58027     H
H      0.58733  0.52127  0.08027     H
H      0.58973  0.14587  0.57857     H
H      0.58973  0.44387  0.07857     H
H       0.5913   0.5935   0.0577     H
H       0.5913   0.9978   0.5577     H
H       0.5935   0.0022   0.9423     H
H       0.5935   0.5913   0.4423     H
H      0.59397  0.73823  0.77223     H
H      0.59397  0.85573  0.27223     H
H       0.5947    0.146   0.9728     H
H       0.5947   0.4487   0.4728     H
H       0.5951   0.0727   0.9389     H
H       0.5951   0.5224   0.4389     H
Ni     0.59776  0.26442  0.08333    Ni
Ni     0.59776  0.33333  0.58333    Ni
H       0.6006    0.746   0.4136     H
H       0.6006   0.8546   0.9136     H
O      0.60313  0.22864  0.52764     O
O      0.60313  0.37449  0.02764     O
H       0.6049   0.7523   0.0464     H
H       0.6049   0.8526   0.5464     H
O      0.61152  0.23117  0.64583     O
O      0.61152  0.38036  0.14583     O
C      0.61343  0.09257  0.20757     C
C      0.61343  0.52087  0.70757     C
C      0.61403  0.13777  0.18777     C
C      0.61403  0.47627  0.68777     C
N      0.61488      0.0     0.25     N
N      0.61488  0.61488     0.75     N
C      0.61697  0.66093  0.76433     C
C      0.61697  0.95603  0.26433     C
O      0.61964  0.23117  0.14583     O
O      0.61964  0.38848  0.64583     O
C      0.61983  0.09757  0.58127     C
C      0.61983  0.52227  0.08127     C
C      0.62163  0.14587  0.58077     C
C      0.62163  0.47577  0.08077     C
C      0.62188  0.66667  0.41667     C
C      0.62188  0.95522  0.91667     C
C       0.6219   0.6243   0.0683     C
C       0.6219   0.9976   0.5683     C
C       0.6227   0.6724    0.069     C
C       0.6227   0.9503    0.569     C
C       0.6243   0.0024   0.9317     C
C       0.6243   0.6219   0.4317     C
O      0.62551  0.22864  0.02764     O
O      0.62551  0.39687  0.52764     O
C       0.6266   0.1459   0.9708     C
C       0.6266   0.4807   0.4708     C
C       0.6268   0.1017   0.9507     C
C       0.6268   0.5251   0.4507     C
C      0.65933  0.09237  0.21897     C
C      0.65933  0.56697  0.71897     C
C       0.6608  0.18411  0.17847     C
C       0.6608   0.4767  0.67847     C
C      0.66093  0.04397  0.23567     C
C      0.66093  0.61697  0.73567     C
C      0.66282  0.23245  0.15233     C
C      0.66282  0.43038  0.65233     C
C      0.66427  0.70903  0.76503     C
C      0.66427  0.95523  0.26503     C
H      0.66447  0.73983  0.77563     H
H      0.66447  0.92463  0.27563     H
C      0.66667  0.04478  0.58333     C
C      0.66667  0.09618  0.58333     C
N      0.66667  0.19263  0.58333     N
Ni     0.66667  0.26442  0.58333    Ni
H      0.66667  0.33333  0.04337     H
O      0.66667  0.33333  0.08333     O
H      0.66667  0.33333   0.1233     H
H      0.66667  0.33333  0.54337     H
O      0.66667  0.33333  0.58333     O
H      0.66667  0.33333   0.6233     H
Ni     0.66667  0.40224  0.08333    Ni
N      0.66667  0.47403  0.08333     N
C      0.66667  0.57048  0.08333     C
C      0.66667  0.62188  0.08333     C
N      0.66667  0.71845  0.08333     N
N      0.66667  0.94821  0.58333     N
H      0.66887  0.74203  0.39103     H
H      0.66887  0.92683  0.89103     H
C      0.66907  0.71143  0.40163     C
C      0.66907  0.95763  0.90163     C
C      0.67051  0.23629  0.01434     C
C      0.67051  0.43422  0.51434     C
C       0.6724   0.0497    0.931     C
C       0.6724   0.6227    0.431     C
C      0.67253  0.18997   0.9882     C
C      0.67253  0.48256   0.4882     C
C        0.674   0.0997   0.9477     C
C        0.674   0.5743   0.4477     C
C      0.70653  0.14157  0.21597     C
C      0.70653  0.56497  0.71597     C
C      0.70673  0.18597  0.19587     C
C      0.70673  0.52077  0.69587     C
O      0.70782   0.2698  0.13903     O
O      0.70782  0.43803  0.63903     O
C      0.70903  0.04477  0.23497     C
C      0.70903  0.66427  0.73497     C
C      0.71063  0.71637  0.09767     C
C      0.71063  0.99427  0.59767     C
C      0.71143  0.04237  0.59837     C
C      0.71143  0.66907  0.09837     C
C      0.71145      0.0     0.25     C
C      0.71145  0.71145     0.75     C
C       0.7117   0.1909   0.5859     C
C       0.7117   0.5208   0.0859     C
C       0.7135   0.1444   0.5854     C
C       0.7135   0.5691   0.0854     C
O      0.71369  0.27819  0.02084     O
O      0.71369   0.4355  0.52084     O
C      0.71637  0.00573  0.90233     C
C      0.71637  0.71063  0.40233     C
N      0.71845  0.05179  0.91667     N
N      0.71845  0.66667  0.41667     N
C       0.7193   0.1904   0.9789     C
C       0.7193   0.5289   0.4789     C
C       0.7199   0.1458   0.9591     C
C       0.7199   0.5741   0.4591     C
O      0.72181  0.28631  0.52084     O
O      0.72181   0.4355  0.02084     O
H      0.72843  0.81407  0.12027     H
H      0.72843  0.91437  0.62027     H
O       0.7302  0.29218  0.63903     O
O       0.7302  0.43803  0.13903     O
H      0.73273  0.81207  0.75307     H
H      0.73273  0.92067  0.25307     H
Ni     0.73558  0.33333  0.08333    Ni
Ni     0.73558  0.40224  0.58333    Ni
H      0.73823  0.14427  0.22777     H
H      0.73823  0.59397  0.72777     H
H      0.73863  0.21797  0.19387     H
H      0.73863  0.52067  0.69387     H
H      0.73937  0.81093  0.39443     H
H      0.73937  0.92843  0.89443     H
H      0.73983  0.07537  0.22437     H
H      0.73983  0.66447  0.72437     H
H      0.74203  0.07317  0.60897     H
H      0.74203  0.66887  0.10897     H
H       0.7436   0.2228   0.5881     H
H       0.7436   0.5208   0.0881     H
H        0.746   0.1454   0.5864     H
H        0.746   0.6006   0.0864     H
H       0.7513   0.2211    0.986     H
H       0.7513   0.5302    0.486     H
H       0.7523   0.1474   0.9536     H
H       0.7523   0.6049   0.4536     H
C      0.75903  0.76637  0.11437     C
C      0.75903  0.99267  0.61437     C
C      0.75923  0.81247  0.12577     C
C      0.75923  0.94677  0.62577     C
C      0.76285      0.0     0.25     C
C      0.76285  0.76285     0.75     C
C      0.76371  0.32949  0.51434     C
C      0.76371  0.43422  0.01434     C
C      0.76423  0.81107  0.75207     C
C      0.76423  0.95317  0.25207     C
C      0.76637  0.00733  0.88563     C
C      0.76637  0.75903  0.38563     C
C      0.76755  0.33718  0.65233     C
C      0.76755  0.43038  0.15233     C
C      0.76837  0.80823  0.38263     C
C      0.76837  0.96013  0.88263     C
O      0.76883  0.38036  0.64583     O
O      0.76883  0.38848  0.14583     O
O      0.77136  0.37449  0.52764     O
O      0.77136  0.39687  0.02764     O
H       0.7772   0.2564   0.0881     H
H       0.7772   0.5208   0.5881     H
H       0.7789   0.2487    0.486     H
H       0.7789   0.5302    0.986     H
H      0.78203  0.26137  0.69387     H
H      0.78203  0.52067  0.19387     H
H      0.80313  0.88777  0.15267     H
H      0.80313  0.91537  0.65267     H
C      0.80443  0.85707  0.14557     C
C      0.80443  0.94737  0.64557     C
N      0.80737  0.33333  0.08333     N
N      0.80737  0.47403  0.58333     N
C      0.80823  0.03987  0.61737     C
C      0.80823  0.76837  0.11737     C
C       0.8091   0.2883   0.0859     C
C       0.8091   0.5208   0.5859     C
C       0.8096   0.2807   0.4789     C
C       0.8096   0.5289   0.9789     C
C      0.81003  0.32747   0.4882     C
C      0.81003  0.48256   0.9882     C
H      0.81093  0.07157  0.60557     H
H      0.81093  0.73937  0.10557     H
C      0.81107  0.04683  0.24793     C
C      0.81107  0.76423  0.74793     C
H      0.81207  0.07933  0.24693     H
H      0.81207  0.73273  0.74693     H
C      0.81247  0.05323  0.87423     C
C      0.81247  0.75923  0.37423     C
C      0.81253  0.85757  0.75257     C
H      0.81253  0.88947  0.75477     H
H      0.81253  0.92307  0.25477     H
C      0.81253  0.95497  0.25257     C
C      0.81257  0.85263  0.36253     C
C      0.81257  0.95993  0.86253     C
H      0.81267  0.88463  0.36053     H
H      0.81267  0.92803  0.86053     H
C      0.81403  0.29327  0.69587     C
C      0.81403  0.52077  0.19587     C
H      0.81407  0.08563  0.87973     H
H      0.81407  0.72843  0.37973     H
C      0.81589   0.3392  0.67847     C
C      0.81589   0.4767  0.17847     C
C      0.85077  0.85664  0.15487     C
C      0.85077  0.99414  0.65487     C
H       0.8526   0.2477   0.4536     H
H       0.8526   0.6049   0.9536     H
C      0.85263  0.04007  0.63747     C
C      0.85263  0.81257  0.13747     C
H        0.854   0.4053   0.4728     H
H        0.854   0.4487   0.9728     H
C       0.8541   0.3734   0.4708     C
C       0.8541   0.4807   0.9708     C
C      0.85413  0.37837  0.08077     C
H      0.85413  0.41027  0.07857     H
H      0.85413  0.44387  0.57857     H
C      0.85413  0.47577  0.58077     C
C       0.8542   0.2801   0.4591     C
C       0.8542   0.5741   0.9591     C
H       0.8546    0.254   0.0864     H
H       0.8546   0.6006   0.5864     H
C       0.8556   0.2865   0.0854     C
C       0.8556   0.5691   0.5854     C
H      0.85573  0.26177  0.72777     H
H      0.85573  0.59397  0.22777     H
C      0.85664  0.00586  0.84513     C
C      0.85664  0.85077  0.34513     C
C      0.85707  0.05263  0.85443     C
C      0.85707  0.80443  0.35443     C
C      0.85757  0.04503  0.24743     C
C      0.85757  0.81253  0.74743     C
C      0.85843  0.29347  0.71597     C
C      0.85843  0.56497  0.21597     C
N       0.8593      0.0     0.25     N
N       0.8593   0.8593     0.75     N
C      0.86223  0.38597  0.68777     C
C      0.86223  0.47627  0.18777     C
H      0.86353  0.41797  0.68067     H
H      0.86353  0.44557  0.18067     H
H      0.88463  0.07197  0.63947     H
H      0.88463  0.81267  0.13947     H
H      0.88777  0.08463  0.84733     H
H      0.88777  0.80313  0.34733     H
H      0.88947  0.07693  0.24523     H
H      0.88947  0.81253  0.74523     H
O      0.89531  0.93646  0.30569     O
O      0.89531  0.95884  0.80569     O
O      0.89783  0.94486  0.18751     O
O      0.89783  0.95298  0.68751     O
C       0.8983   0.3732   0.4507     C
C       0.8983   0.5251   0.9507     C
C      0.89911  0.90296  0.18101     C
C      0.89911  0.99616  0.68101     C
C       0.9003    0.326   0.4477     C
C       0.9003   0.5743   0.9477     C
C      0.90243  0.38017  0.08127     C
C      0.90243  0.52227  0.58127     C
C      0.90296  0.00384  0.81899     C
C      0.90296  0.89911  0.31899     C
C      0.90382  0.33333  0.08333     C
C      0.90382  0.57048  0.58333     C
C      0.90743  0.38657  0.70757     C
C      0.90743  0.52087  0.20757     C
C      0.90763  0.34067  0.71897     C
C      0.90763  0.56697  0.21897     C
H      0.91437  0.18593  0.37973     H
H      0.91437  0.72843  0.87973     H
H      0.91537  0.11223  0.34733     H
H      0.91537  0.80313  0.84733     H
H      0.92067  0.18793  0.74693     H
H      0.92067  0.73273  0.24693     H
H      0.92307  0.11053  0.74523     H
H      0.92307  0.81253  0.24523     H
H      0.92463  0.26017  0.72437     H
H      0.92463  0.66447  0.22437     H
H      0.92683  0.25797  0.10897     H
H      0.92683  0.66887  0.60897     H
H       0.9273   0.4049   0.4389     H
H       0.9273   0.5224   0.9389     H
H      0.92803  0.11537  0.13947     H
H      0.92803  0.81267  0.63947     H
H      0.92843  0.18907  0.10557     H
H      0.92843  0.73937  0.60557     H
Ni     0.93109      0.0     0.25    Ni
Ni     0.93109  0.93109     0.75    Ni
H      0.93393  0.41267  0.08027     H
H      0.93393  0.52127  0.58027     H
O      0.93646  0.04116  0.69431     O
O      0.93646  0.89531  0.19431     O
H      0.93823  0.41897  0.71307     H
H      0.93823  0.51927  0.21307     H
O      0.94486  0.04702  0.81249     O
O      0.94486  0.89783  0.31249     O
C      0.94677  0.18753  0.37423     C
C      0.94677  0.75923  0.87423     C
C      0.94737  0.14293  0.35443     C
C      0.94737  0.80443  0.85443     C
N      0.94821  0.28155  0.41667     N
N      0.94821  0.66667  0.91667     N
C       0.9503   0.3276    0.431     C
C       0.9503   0.6227    0.931     C
O      0.95298  0.05514  0.31249     O
O      0.95298  0.89783  0.81249     O
C      0.95317  0.18893  0.74793     C
C      0.95317  0.76423  0.24793     C
C      0.95497  0.14243  0.74743     C
C      0.95497  0.81253  0.24743     C
C      0.95522  0.33333  0.08333     C
C      0.95522  0.62188  0.58333     C
C      0.95523  0.29097  0.73497     C
C      0.95523  0.66427  0.23497     C
C      0.95603  0.33907  0.73567     C
C      0.95603  0.61697  0.23567     C
C      0.95763  0.28857  0.09837     C
C      0.95763  0.66907  0.59837     C
O      0.95884  0.06354  0.19431     O
O      0.95884  0.89531  0.69431     O
C      0.95993  0.14737  0.13747     C
C      0.95993  0.81257  0.63747     C
C      0.96013  0.19177  0.11737     C
C      0.96013  0.76837  0.61737     C
C      0.99267  0.23363  0.38563     C
C      0.99267  0.75903  0.88563     C
C      0.99414  0.14336  0.34513     C
C      0.99414  0.85077  0.84513     C
C      0.99427  0.28363  0.40233     C
C      0.99427  0.71063  0.90233     C
C      0.99616  0.09704  0.31899     C
C      0.99616  0.89911  0.81899     C
C       0.9976   0.3757   0.4317     C
C       0.9976   0.6219   0.9317     C
H       0.9978   0.4065   0.4423     H
H       0.9978   0.5913   0.9423     H
