data_I
_chemical_name_common  '/home/zhangsd/repos/MofS-CGCNN/ML/data/TSD/clean_cifs/BEPRIZ_clean'
_cell_length_a 18.90000
_cell_length_b 18.90000
_cell_length_c 18.90000
_cell_angle_alpha 61.86820
_cell_angle_beta  61.86820
_cell_angle_gamma 61.86820
_space_group_name_H-M_alt      'P 1'


loop_
_space_group_symop_operation_xyz
  'x, y, z' 

loop_
_atom_site_label
_atom_site_fract_x
_atom_site_fract_y
_atom_site_fract_z
_atom_site_type_symbol
H       0.0009    0.969   0.4248     H
C      0.00373  0.30476  0.50677     C
C      0.00377  0.35523  0.17913     C
C      0.00677  0.80476  0.50373     C
H       0.0132   0.1575   0.4676     H
C      0.01818  0.38738  0.09168     C
H        0.031   0.5752   0.9991     H
H       0.0324   0.3425   0.4868     H
N      0.03414     0.25  0.46586     N
C      0.04289  0.59309  0.94079     C
H       0.0549     0.07   0.3955     H
C      0.05921  0.95711  0.40691     C
O      0.06622  0.28935  0.28627     O
C      0.06873  0.69119  0.42215     C
H         0.07   0.3955   0.0549     H
C      0.07112  0.33799  0.21218     C
C      0.07114  0.65948   0.7698     C
H       0.0752    0.531   0.4991     H
C      0.07785  0.80881  0.43127     C
H       0.0813   0.6839   0.7117     H
C      0.09168  0.01818  0.38738     C
C      0.09309  0.54289  0.44079     C
C      0.10009  0.62319  0.38589     C
H       0.1045     0.43   0.4451     H
C      0.10875     0.75  0.39125     C
C      0.11262  0.48182  0.40832     C
C      0.11411  0.87681  0.39991     C
C      0.12319  0.60009  0.88589     C
O      0.12625  0.37301  0.16109     O
O      0.12699  0.37375  0.33891     O
C      0.13291  0.63865  0.80257     C
C      0.13865  0.63291  0.30257     C
C      0.14477  0.49623  0.32087     C
Co     0.14562     0.25  0.35438    Co
H       0.1516   0.6826    0.266     H
H      0.15655     0.75  0.34345     H
H       0.1575   0.4676   0.0132     H
C      0.15948  0.57114   0.2698     C
O      0.16109  0.12625  0.37301     O
C      0.16201  0.42888  0.28782     C
C      0.17913  0.00377  0.35523     C
H       0.1826   0.6516    0.766     H
H       0.1839   0.5813   0.2117     H
C      0.19119  0.56873  0.92215     C
C      0.19524  0.49627  0.99323     C
C      0.19743  0.86709  0.36135     C
O      0.21065  0.43378  0.21373     O
H       0.2117   0.1839   0.5813     H
C      0.21218  0.07112  0.33799     C
O      0.21373  0.21065  0.43378     O
C       0.2302  0.92886  0.34052     C
H        0.234   0.8174   0.3484     H
O         0.25     0.25     0.25     O
Co        0.25  0.35438  0.14562    Co
N         0.25  0.46586  0.03414     N
C         0.25  0.60875  0.89125     C
H         0.25  0.65655  0.84345     H
H        0.266   0.1516   0.6826     H
C       0.2698  0.15948  0.57114     C
O      0.28627  0.06622  0.28935     O
C      0.28782  0.16201  0.42888     C
H       0.2883   0.9187   0.3161     H
O      0.28935  0.28627  0.06622     O
C      0.30257  0.13865  0.63291     C
C      0.30476  0.50677  0.00373     C
C      0.30881  0.57785  0.93127     C
H       0.3161   0.2883   0.9187     H
H       0.3174    0.734   0.8484     H
C      0.32087  0.14477  0.49623     C
C      0.33799  0.21218  0.07112     C
O      0.33891  0.12699  0.37375     O
C      0.34052   0.2302  0.92886     C
H       0.3425   0.4868   0.0324     H
H      0.34345  0.15655     0.75     H
H       0.3484    0.234   0.8174     H
Co     0.35438  0.14562     0.25    Co
C      0.35523  0.17913  0.00377     C
C      0.36135  0.19743  0.86709     C
C      0.36709  0.69743  0.86135     C
O      0.37301  0.16109  0.12625     O
O      0.37375  0.33891  0.12699     O
C      0.37681  0.61411  0.89991     C
C      0.38589  0.10009  0.62319     C
C      0.38738  0.09168  0.01818     C
C      0.39125  0.10875     0.75     C
H       0.3955   0.0549     0.07     H
C      0.39991  0.11411  0.87681     C
C      0.40691  0.05921  0.95711     C
C      0.40832  0.11262  0.48182     C
H       0.4187   0.7883   0.8161     H
C      0.42215  0.06873  0.69119     C
H       0.4248   0.0009    0.969     H
C      0.42886   0.7302  0.84052     C
C      0.42888  0.28782  0.16201     C
H         0.43   0.4451   0.1045     H
C      0.43127  0.07785  0.80881     C
O      0.43378  0.21373  0.21065     O
C      0.44079  0.09309  0.54289     C
H       0.4451   0.1045     0.43     H
C      0.45711  0.55921  0.90691     C
N      0.46586  0.03414     0.25     N
H       0.4676   0.0132   0.1575     H
H        0.469   0.5009   0.9248     H
C      0.48182  0.40832  0.11262     C
H       0.4868   0.0324   0.3425     H
C      0.49323  0.99627  0.69524     C
C      0.49623  0.32087  0.14477     C
C      0.49627  0.99323  0.19524     C
H       0.4991   0.0752    0.531     H
H       0.5009   0.9248    0.469     H
C      0.50373  0.00677  0.80476     C
C      0.50377  0.67913  0.85523     C
C      0.50677  0.00373  0.30476     C
H       0.5132   0.9676   0.6575     H
C      0.51818  0.59168  0.88738     C
H        0.531   0.4991   0.0752     H
H       0.5324   0.9868   0.8425     H
N      0.53414  0.96586     0.75     N
C      0.54289  0.44079  0.09309     C
H       0.5549   0.8955     0.57     H
C      0.55921  0.90691  0.45711     C
O      0.56622  0.78627  0.78935     O
C      0.56873  0.92215  0.19119     C
H         0.57   0.5549   0.8955     H
C      0.57112  0.71218  0.83799     C
C      0.57114   0.2698  0.15948     C
H       0.5752   0.9991    0.031     H
C      0.57785  0.93127  0.30881     C
H       0.5813   0.2117   0.1839     H
C      0.59168  0.88738  0.51818     C
C      0.59309  0.94079  0.04289     C
C      0.60009  0.88589  0.12319     C
H       0.6045   0.9451     0.93     H
C      0.60875  0.89125     0.25     C
C      0.61262  0.90832  0.98182     C
C      0.61411  0.89991  0.37681     C
C      0.62319  0.38589  0.10009     C
O      0.62625  0.66109  0.87301     O
O      0.62699  0.83891  0.87375     O
C      0.63291  0.30257  0.13865     C
C      0.63865  0.80257  0.13291     C
C      0.64477  0.82087  0.99623     C
Co     0.64562  0.85438     0.75    Co
H       0.6516    0.766   0.1826     H
H      0.65655  0.84345     0.25     H
H       0.6575   0.5132   0.9676     H
C      0.65948   0.7698  0.07114     C
O      0.66109  0.87301  0.62625     O
C      0.66201  0.78782  0.92888     C
C      0.67913  0.85523  0.50377     C
H       0.6826    0.266   0.1516     H
H       0.6839   0.7117   0.0813     H
C      0.69119  0.42215  0.06873     C
C      0.69524  0.49323  0.99627     C
C      0.69743  0.86135  0.36709     C
O      0.71065  0.71373  0.93378     O
H       0.7117   0.0813   0.6839     H
C      0.71218  0.83799  0.57112     C
O      0.71373  0.93378  0.71065     O
C       0.7302  0.84052  0.42886     C
H        0.734   0.8484   0.3174     H
H         0.75  0.34345  0.15655     H
C         0.75  0.39125  0.10875     C
N         0.75  0.53414  0.96586     N
Co        0.75  0.64562  0.85438    Co
O         0.75     0.75     0.75     O
H        0.766   0.1826   0.6516     H
C       0.7698  0.07114  0.65948     C
O      0.78627  0.78935  0.56622     O
C      0.78782  0.92888  0.66201     C
H       0.7883   0.8161   0.4187     H
O      0.78935  0.56622  0.78627     O
C      0.80257  0.13291  0.63865     C
C      0.80476  0.50373  0.00677     C
C      0.80881  0.43127  0.07785     C
H       0.8161   0.4187   0.7883     H
H       0.8174   0.3484    0.234     H
C      0.82087  0.99623  0.64477     C
C      0.83799  0.57112  0.71218     C
O      0.83891  0.87375  0.62699     O
C      0.84052  0.42886   0.7302     C
H       0.8425   0.5324   0.9868     H
H      0.84345     0.25  0.65655     H
H       0.8484   0.3174    0.734     H
Co     0.85438     0.75  0.64562    Co
C      0.85523  0.50377  0.67913     C
C      0.86135  0.36709  0.69743     C
C      0.86709  0.36135  0.19743     C
O      0.87301  0.62625  0.66109     O
O      0.87375  0.62699  0.83891     O
C      0.87681  0.39991  0.11411     C
C      0.88589  0.12319  0.60009     C
C      0.88738  0.51818  0.59168     C
C      0.89125     0.25  0.60875     C
H       0.8955     0.57   0.5549     H
C      0.89991  0.37681  0.61411     C
C      0.90691  0.45711  0.55921     C
C      0.90832  0.98182  0.61262     C
H       0.9187   0.3161   0.2883     H
C      0.92215  0.19119  0.56873     C
H       0.9248    0.469   0.5009     H
C      0.92886  0.34052   0.2302     C
C      0.92888  0.66201  0.78782     C
H         0.93   0.6045   0.9451     H
C      0.93127  0.30881  0.57785     C
O      0.93378  0.71065  0.71373     O
C      0.94079  0.04289  0.59309     C
H       0.9451     0.93   0.6045     H
C      0.95711  0.40691  0.05921     C
N      0.96586     0.75  0.53414     N
H       0.9676   0.6575   0.5132     H
H        0.969   0.4248   0.0009     H
C      0.98182  0.61262  0.90832     C
H       0.9868   0.8425   0.5324     H
C      0.99323  0.19524  0.49627     C
C      0.99623  0.64477  0.82087     C
C      0.99627  0.69524  0.49323     C
H       0.9991    0.031   0.5752     H
