data_I
_chemical_name_common  '/home/zhangsd/repos/MofS-CGCNN/ML/data/TSD/clean_cifs/BETDUB_clean'
_cell_length_a 12.69900
_cell_length_b 14.26020
_cell_length_c 15.94620
_cell_angle_alpha 96.89680
_cell_angle_beta  113.46500
_cell_angle_gamma 90.00000
_space_group_name_H-M_alt      'P 1'


loop_
_space_group_symop_operation_xyz
  'x, y, z' 

loop_
_atom_site_label
_atom_site_fract_x
_atom_site_fract_y
_atom_site_fract_z
_atom_site_type_symbol
Eu     0.01384  0.04244  0.62896    Eu
O       0.0344     0.98   0.7716     O
O       0.0441   0.8769   0.6028     O
O       0.0561   0.8379   0.4672     O
H       0.0677   0.9067   0.9164     H
C       0.0799   0.8279   0.5488     C
H       0.1107   0.6423   0.9424     H
O       0.1262    0.029   0.5404     O
C       0.1441   0.9761   0.7998     C
C       0.1473   0.9061   0.9394     C
H       0.1513   0.5933   0.0836     H
H        0.157    0.664    0.824     H
C       0.1594   0.7515   0.5884     C
H       0.1609   0.7748    0.718     H
H       0.1683   0.8577   0.0576     H
H       0.1687   0.6989   0.4692     H
O       0.1707   0.0449    0.424     O
C       0.1841   0.6235   0.9762     C
C        0.191   0.7383   0.6814     C
C       0.1919   0.0649   0.5078     C
O       0.1948   0.9996   0.7534     O
C       0.1959   0.6932   0.5316     C
C        0.206   0.9352    0.889     C
C       0.2079   0.5939   0.0606     C
C       0.2079   0.8765   0.0238     C
C       0.2362    0.654   0.8472     C
O       0.2533   0.5449    0.424     O
O       0.2628     0.52   0.2284     O
C       0.2657   0.6261   0.9408     C
C       0.2685   0.6689   0.7172     C
C       0.2744   0.6251   0.5684     C
C        0.294   0.1251   0.5684     C
H       0.3005   0.1989   0.4692     H
N       0.3037   0.6501   0.8094     N
C       0.3122   0.6155   0.6612     C
C       0.3159   0.5649   0.5078     C
C        0.317   0.5648    0.111     C
H       0.3185   0.0726   0.6862     H
C        0.322   0.9353   0.9238     C
C       0.3249   0.8739   0.0592     C
H        0.333    0.836    0.176     H
C       0.3357   0.1932   0.5316     C
C       0.3443   0.5239   0.2002     C
C        0.349   0.1155   0.6612     C
H       0.3615   0.9571   0.8912     H
H       0.3677   0.5726   0.6862     H
C       0.3749   0.5966   0.9928     C
C       0.3821   0.9034   0.0072     C
Eu     0.38488  0.45756  0.37104    Eu
C        0.389    0.846   0.1528     C
C       0.3982   0.5647   0.0762     C
O       0.4111   0.3379   0.4672     O
O       0.4142    0.529   0.5404     O
C        0.429   0.2515   0.5884     C
H       0.4323   0.5985   0.9706     H
O       0.4413   0.6231   0.3972     O
O       0.4414   0.5004   0.2466     O
H       0.4429   0.7252    0.282     H
C       0.4487   0.1689   0.7172     C
H       0.4617   0.9015   0.0294     H
C       0.4689   0.3279   0.5488     C
H       0.4703   0.5429   0.1088     H
C       0.4904   0.2383   0.6814     C
N       0.4943   0.8499   0.1906     N
N       0.5057   0.1501   0.8094     N
C       0.5096   0.7617   0.3186     C
H       0.5297   0.4571   0.8912     H
C       0.5311   0.6721   0.4512     C
H       0.5383   0.0985   0.9706     H
C       0.5513   0.8311   0.2828     C
H       0.5571   0.2748    0.718     H
O       0.5586   0.4996   0.7534     O
O       0.5587   0.3769   0.6028     O
H       0.5677   0.4015   0.0294     H
C        0.571   0.7485   0.4116     C
O       0.5858    0.471   0.4596     O
O       0.5889   0.6621   0.5328     O
C       0.6018   0.4353   0.9238     C
C        0.611    0.154   0.8472     C
Eu     0.61512  0.54244  0.62896    Eu
C       0.6179   0.0966   0.9928     C
C       0.6251   0.4034   0.0072     C
H       0.6323   0.4274   0.3138     H
H       0.6385   0.0429   0.1088     H
C        0.651   0.8845   0.3388     C
C       0.6557   0.4761   0.7998     C
C       0.6643   0.8068   0.4684     C
H        0.667    0.164    0.824     H
C       0.6751   0.1261   0.9408     C
C        0.678   0.0647   0.0762     C
H       0.6815   0.9274   0.3138     H
C        0.683   0.4352    0.889     C
C       0.6841   0.4351   0.4922     C
C       0.6878   0.3845   0.3388     C
N       0.6963   0.3499   0.1906     N
H       0.6995   0.8011   0.5308     H
C        0.706   0.8749   0.4316     C
C       0.7256   0.3749   0.4316     C
C       0.7315   0.3311   0.2828     C
C       0.7343   0.3739   0.0592     C
O       0.7372     0.48   0.7716     O
O       0.7467   0.4551    0.576     O
C       0.7638    0.346   0.1528     C
C       0.7921   0.1235   0.9762     C
C       0.7921   0.4061   0.9394     C
C        0.794   0.0648    0.111     C
C       0.8041   0.3068   0.4684     C
O       0.8052   0.0004   0.2466     O
C       0.8081   0.9351   0.4922     C
C        0.809   0.2617   0.3186     C
C       0.8159   0.3765   0.0238     C
O       0.8293   0.9551    0.576     O
H       0.8313   0.3011   0.5308     H
H       0.8317   0.1423   0.9424     H
H       0.8391   0.2252    0.282     H
C       0.8406   0.2485   0.4116     C
H        0.843    0.336    0.176     H
H       0.8487   0.4067   0.9164     H
C       0.8527   0.0939   0.0606     C
C       0.8559   0.0239   0.2002     C
O       0.8738    0.971   0.4596     O
H       0.8893   0.3577   0.0576     H
C       0.9201   0.1721   0.4512     C
H       0.9323   0.0933   0.0836     H
O       0.9439   0.1621   0.5328     O
O       0.9559   0.1231   0.3972     O
O       0.9656     0.02   0.2284     O
Eu     0.98616  0.95756  0.37104    Eu
