data_I
_chemical_name_common  '/home/zhangsd/repos/MofS-CGCNN/ML/data/TSD/clean_cifs/BETDEL_clean'
_cell_length_a 13.60930
_cell_length_b 13.90770
_cell_length_c 15.98650
_cell_angle_alpha 115.78400
_cell_angle_beta  98.16410
_cell_angle_gamma 90.00000
_space_group_name_H-M_alt      'P 1'


loop_
_space_group_symop_operation_xyz
  'x, y, z' 

loop_
_atom_site_label
_atom_site_fract_x
_atom_site_fract_y
_atom_site_fract_z
_atom_site_type_symbol
O       0.0067   0.7027    0.755     O
O       0.0206   0.4378   0.2244     O
C       0.0235   0.3436    0.193     C
H       0.0354   0.1345   0.1078     H
O       0.0405   0.6155   0.5402     O
Dy     0.04109  0.52533  0.63216    Dy
O        0.052   0.6419   0.4158     O
C       0.0595   0.2748   0.1058     C
C         0.06    0.167   0.0742     C
C       0.0678   0.6732   0.5032     C
H       0.0748   0.8064    0.685     H
C        0.097   0.3237   0.0582     C
C       0.0985   0.1026   0.9886     C
H       0.1041   0.3981   0.0836     H
H       0.1059   0.0299   0.9696     H
C       0.1165   0.8338   0.6582     C
C       0.1239   0.1525   0.9366     C
O       0.1246   0.4426   0.3994     O
C        0.127   0.2567   0.9658     C
C       0.1275   0.7757   0.5616     C
H       0.1476   0.2874   0.9292     H
N       0.1492   0.9894   0.8044     N
C       0.1502   0.0901   0.8422     C
O       0.1616   0.4355   0.5394     O
C       0.1704   0.9335   0.7116     C
C        0.171   0.4105    0.456     C
C        0.195   0.8169    0.525     C
H       0.2027   0.7799   0.4622     H
H       0.2257   0.3193   0.2862     H
C       0.2366   0.9693   0.6758     C
C       0.2499   0.3304   0.4182     C
C       0.2501   0.9122   0.5818     C
C       0.2634   0.2935   0.3242     C
H       0.2743   0.0331   0.7138     H
H       0.2973   0.3177   0.5378     H
C        0.305   0.2919    0.475     C
C        0.329   0.9545    0.544     C
C       0.3296   0.2219   0.2884     C
O       0.3384   0.8961   0.4606     O
C       0.3498   0.2479   0.1578     C
N       0.3508    0.185   0.1956     N
H       0.3524   0.3582   0.0708     H
C       0.3725   0.2141   0.4384     C
C        0.373   0.2909   0.0342     C
O       0.3754   0.0432   0.6006     O
C       0.3761   0.2159   0.0634     C
C       0.3835   0.1756   0.3418     C
H       0.3941   0.0603   0.0304     H
H       0.3959   0.3145   0.9164     H
C       0.4015    0.114   0.0114     C
C        0.403   0.2655   0.9418     C
H       0.4252   0.1214    0.315     H
C       0.4322     0.17   0.4968     C
C         0.44   0.0928   0.9258     C
C       0.4405    0.169   0.8942     C
O        0.448   0.2261   0.5842     O
Dy     0.45891  0.89317  0.36784    Dy
O       0.4595   0.0753   0.4598     O
H       0.4646   0.0267   0.8922     H
C       0.4765   0.1506    0.807     C
O       0.4794   0.2134   0.7756     O
O       0.4933   0.9477    0.245     O
O       0.5067   0.0523    0.755     O
O       0.5206   0.7866   0.2244     O
C       0.5235   0.8494    0.193     C
H       0.5354   0.9733   0.1078     H
O       0.5405   0.9247   0.5402     O
Dy     0.54109  0.10683  0.63216    Dy
O        0.552   0.7739   0.4158     O
C       0.5595    0.831   0.1058     C
C         0.56   0.9072   0.0742     C
C       0.5678     0.83   0.5032     C
H       0.5748   0.8786    0.685     H
C        0.597   0.7345   0.0582     C
C       0.5985    0.886   0.9886     C
H       0.6041   0.6855   0.0836     H
H       0.6059   0.9397   0.9696     H
C       0.6165   0.8244   0.6582     C
C       0.6239   0.7841   0.9366     C
O       0.6246   0.9568   0.3994     O
C        0.627   0.7091   0.9658     C
C       0.6275   0.7859   0.5616     C
H       0.6476   0.6418   0.9292     H
N       0.6492    0.815   0.8044     N
C       0.6502   0.7521   0.8422     C
O       0.6616   0.1039   0.5394     O
C       0.6704   0.7781   0.7116     C
C        0.671   0.0455    0.456     C
C        0.695   0.7081    0.525     C
H       0.7027   0.6823   0.4622     H
H       0.7257   0.9669   0.2862     H
C       0.7366   0.7065   0.6758     C
C       0.7499   0.0878   0.4182     C
C       0.7501   0.6696   0.5818     C
C       0.7634   0.0307   0.3242     C
H       0.7743   0.6807   0.7138     H
H       0.7973   0.2201   0.5378     H
C        0.805   0.1831    0.475     C
C        0.829   0.5895    0.544     C
C       0.8296   0.0665   0.2884     C
O       0.8384   0.5645   0.4606     O
C       0.8498   0.9099   0.1578     C
N       0.8508   0.0106   0.1956     N
H       0.8524   0.7126   0.0708     H
C       0.8725   0.2243   0.4384     C
C        0.873   0.7433   0.0342     C
O       0.8754   0.5574   0.6006     O
C       0.8761   0.8475   0.0634     C
C       0.8835   0.1662   0.3418     C
H       0.8941   0.9701   0.0304     H
H       0.8959   0.6019   0.9164     H
C       0.9015   0.8974   0.0114     C
C        0.903   0.6763   0.9418     C
H       0.9252   0.1936    0.315     H
C       0.9322   0.3268   0.4968     C
C         0.94    0.833   0.9258     C
C       0.9405   0.7252   0.8942     C
O        0.948   0.3581   0.5842     O
Dy     0.95891  0.47467  0.36784    Dy
O       0.9595   0.3845   0.4598     O
H       0.9646   0.8655   0.8922     H
C       0.9765   0.6564    0.807     C
O       0.9794   0.5622   0.7756     O
O       0.9933   0.2973    0.245     O
