data_I
_chemical_name_common  '/home/zhangsd/repos/MofS-CGCNN/ML/data/TSD/clean_cifs/BETFEN_clean'
_cell_length_a 13.63470
_cell_length_b 14.31450
_cell_length_c 16.11510
_cell_angle_alpha 116.36800
_cell_angle_beta  98.63250
_cell_angle_gamma 90.00000
_space_group_name_H-M_alt      'P 1'


loop_
_space_group_symop_operation_xyz
  'x, y, z' 

loop_
_atom_site_label
_atom_site_fract_x
_atom_site_fract_y
_atom_site_fract_z
_atom_site_type_symbol
O       0.0059   0.2087   0.7622     O
O       0.0177   0.9263   0.2134     O
C       0.0214   0.8326     0.19     C
O       0.0386  0.11698  0.53536     O
Pr      0.0432  0.03095  0.63654    Pr
H       0.0524   0.6333   0.1106     H
O       0.0537   0.1394   0.4112     O
C       0.0571   0.7663   0.1002     C
C       0.0663   0.6628   0.0722     C
C         0.07   0.1703    0.498     C
H       0.0795   0.8803   0.0626     H
H       0.0802    0.301   0.6808     H
C       0.0808   0.8086   0.0422     C
C       0.0967   0.5994   0.9858     C
H       0.1011   0.5281   0.9666     H
C       0.1059    0.748    0.956     C
H       0.1134   0.7765   0.9154     H
H        0.118    0.614      0.8     H
C        0.119   0.3302   0.6542     C
C       0.1198   0.6434   0.9302     C
C        0.128   0.2751   0.5602     C
O       0.1299    0.939    0.402     O
C       0.1446   0.5795   0.8366     C
N       0.1493   0.4844    0.803     N
C       0.1672   0.4279   0.7084     C
O        0.169   0.9399    0.543     O
C       0.1785   0.9075   0.4578     C
C       0.1932   0.3154   0.5224     C
H       0.2003   0.2783   0.4596     H
H       0.2242   0.8161   0.2878     H
C       0.2369   0.4664   0.6732     C
C       0.2473    0.411    0.579     C
C       0.2527    0.832    0.421     C
C       0.2631   0.7932   0.3268     C
H       0.2758   0.5283   0.7122     H
H       0.2997   0.8187   0.5404     H
C       0.3068    0.793   0.4776     C
C       0.3215   0.4497   0.5422     C
O        0.331   0.3969    0.457     O
C       0.3328   0.7195   0.2916     C
N       0.3507   0.6814    0.197     N
C       0.3554   0.7429   0.1634     C
O       0.3701    0.537    0.598     O
C        0.372   0.7149   0.4398     C
C       0.3802   0.7132   0.0698     C
C        0.381    0.676   0.3458     C
H        0.382    0.814      0.2     H
H       0.3866   0.8611   0.0846     H
C       0.3941    0.792    0.044     C
H       0.3989   0.5615   0.0334     H
C       0.4033   0.6136   0.0142     C
C       0.4192   0.7664   0.9578     C
H       0.4198   0.6202   0.3192     H
H       0.4205   0.8177   0.9374     H
C         0.43   0.6723    0.502     C
C       0.4337   0.5906   0.9278     C
C       0.4429   0.6661   0.8998     C
O       0.4463   0.7282   0.5888     O
H       0.4476   0.5227   0.8894     H
Pr      0.4568  0.39441  0.36346    Pr
O       0.4614  0.58162  0.46464     O
C       0.4786   0.6426     0.81     C
O       0.4823   0.7129   0.7866     O
O       0.4941   0.4465   0.2378     O
O       0.5059   0.5535   0.7622     O
O       0.5177   0.2871   0.2134     O
C       0.5214   0.3574     0.19     C
O       0.5386  0.41838  0.53536     O
Pr      0.5432  0.60559  0.63654    Pr
H       0.5524   0.4773   0.1106     H
O       0.5537   0.2718   0.4112     O
C       0.5571   0.3339   0.1002     C
C       0.5663   0.4094   0.0722     C
C         0.57   0.3277    0.498     C
H       0.5795   0.1823   0.0626     H
H       0.5802   0.3798   0.6808     H
C       0.5808   0.2336   0.0422     C
C       0.5967   0.3864   0.9858     C
H       0.6011   0.4385   0.9666     H
C       0.6059    0.208    0.956     C
H       0.6134   0.1389   0.9154     H
H        0.618    0.186      0.8     H
C        0.619    0.324   0.6542     C
C       0.6198   0.2868   0.9302     C
C        0.628   0.2851   0.5602     C
O       0.6299    0.463    0.402     O
C       0.6446   0.2571   0.8366     C
N       0.6493   0.3186    0.803     N
C       0.6672   0.2805   0.7084     C
O        0.669   0.6031    0.543     O
C       0.6785   0.5503   0.4578     C
C       0.6932    0.207   0.5224     C
H       0.7003   0.1813   0.4596     H
H       0.7242   0.4717   0.2878     H
C       0.7369   0.2068   0.6732     C
C       0.7473    0.168    0.579     C
C       0.7527    0.589    0.421     C
C       0.7631   0.5336   0.3268     C
H       0.7758   0.1839   0.7122     H
H       0.7997   0.7217   0.5404     H
C       0.8068   0.6846   0.4776     C
C       0.8215   0.0925   0.5422     C
O        0.831   0.0601    0.457     O
C       0.8328   0.5721   0.2916     C
N       0.8507   0.5156    0.197     N
C       0.8554   0.4205   0.1634     C
O       0.8701    0.061    0.598     O
C        0.872   0.7249   0.4398     C
C       0.8802   0.3566   0.0698     C
C        0.881   0.6698   0.3458     C
H        0.882    0.386      0.2     H
H       0.8866   0.2235   0.0846     H
C       0.8941    0.252    0.044     C
H       0.8989   0.4719   0.0334     H
C       0.9033   0.4006   0.0142     C
C       0.9192   0.1914   0.9578     C
H       0.9198    0.699   0.3192     H
H       0.9205   0.1197   0.9374     H
C         0.93   0.8297    0.502     C
C       0.9337   0.3372   0.9278     C
C       0.9429   0.2337   0.8998     C
O       0.9463   0.8606   0.5888     O
H       0.9476   0.3667   0.8894     H
Pr      0.9568  0.96905  0.36346    Pr
O       0.9614  0.88302  0.46464     O
C       0.9786   0.1674     0.81     C
O       0.9823   0.0737   0.7866     O
O       0.9941   0.7913   0.2378     O
