data_I
_chemical_name_common  '/home/zhangsd/repos/MofS-CGCNN/ML/data/TSD/clean_cifs/BETGAK_clean'
_cell_length_a 13.50950
_cell_length_b 14.53560
_cell_length_c 16.25250
_cell_angle_alpha 116.56300
_cell_angle_beta  99.02180
_cell_angle_gamma 90.00000
_space_group_name_H-M_alt      'P 1'


loop_
_space_group_symop_operation_xyz
  'x, y, z' 

loop_
_atom_site_label
_atom_site_fract_x
_atom_site_fract_y
_atom_site_fract_z
_atom_site_type_symbol
O       0.0015  0.71315   0.7643     O
O        0.012  0.42043  0.20766     O
C       0.0194  0.32619  0.18598     C
O       0.0373   0.6201   0.5364     O
La     0.04329  0.53355  0.63839    La
O       0.0538  0.63909  0.41158     O
H       0.0544   0.1292   0.1058     H
C       0.0553   0.2614   0.0958     C
H       0.0641   0.3728   0.0542     H
C       0.0675   0.1585   0.0678     C
C       0.0694  0.67191  0.49762     C
C        0.074   0.3038   0.0374     C
H       0.0777   0.8005   0.6788     H
C       0.0991   0.0973   0.9834     C
H       0.1065   0.0277   0.9652     H
C       0.1072   0.2438   0.9548     C
C       0.1168  0.82917  0.65254     C
C       0.1191   0.1408   0.9278     C
H       0.1216   0.2732   0.9172     H
C       0.1264  0.77466  0.55892     C
O       0.1348   0.4428   0.4058     O
C       0.1438   0.0777    0.834     C
N       0.1487  0.98188  0.80016     N
H        0.149    0.105     0.79     H
C        0.167  0.92769  0.70678     C
O       0.1768  0.44718  0.54556     O
C       0.1843  0.41386  0.46112     C
C       0.1889  0.81508  0.52076     C
H        0.194   0.7788    0.458     H
H       0.2311   0.3212   0.2918     H
C       0.2324  0.96624  0.67048     C
C       0.2441  0.91019  0.57658     C
C       0.2559  0.33361  0.42342     C
C       0.2676  0.29576  0.32952     C
H       0.2689   0.0294   0.7082     H
H        0.306   0.3208    0.542     H
C       0.3111  0.29432  0.47924     C
C       0.3157  0.95274  0.53888     C
O       0.3232  0.90162  0.45444     O
C        0.333  0.22091  0.29322     C
H        0.351    0.315     0.21     H
N       0.3513  0.18172  0.19984     N
C       0.3562   0.2437    0.166     C
O       0.3652    0.037   0.5942     O
C       0.3736  0.21574  0.44108     C
H       0.3784    0.356   0.0828     H
C       0.3809    0.213   0.0722     C
C       0.3832  0.17663  0.34746     C
C       0.3928    0.289   0.0452     C
H       0.3935   0.0625   0.0348     H
C       0.4009   0.1139   0.0166     C
H       0.4223   0.1217   0.3212     H
C        0.426   0.2664   0.9626     C
C       0.4306  0.17429  0.50238     C
C       0.4325   0.0907   0.9322     C
H       0.4359   0.3186   0.9458     H
C       0.4447   0.1656   0.9042     C
H       0.4456   0.0234   0.8942     H
O       0.4462  0.22751  0.58842     O
La     0.45671  0.89516  0.36161    La
O       0.4627   0.0837   0.4636     O
C       0.4806  0.14021  0.81402     C
O        0.488  0.21277  0.79234     O
O       0.4985  0.94885   0.2357     O
O       0.5015  0.05115   0.7643     O
O        0.512  0.78723  0.20766     O
C       0.5194  0.85979  0.18598     C
O       0.5373   0.9163   0.5364     O
La     0.54329  0.10484  0.63839    La
O       0.5538  0.77249  0.41158     O
H       0.5544   0.9766   0.1058     H
C       0.5553   0.8344   0.0958     C
H       0.5641   0.6814   0.0542     H
C       0.5675   0.9093   0.0678     C
C       0.5694  0.82571  0.49762     C
C        0.574   0.7336   0.0374     C
H       0.5777   0.8783   0.6788     H
C       0.5991   0.8861   0.9834     C
H       0.6065   0.9375   0.9652     H
C       0.6072    0.711   0.9548     C
C       0.6168  0.82337  0.65254     C
C       0.6191    0.787   0.9278     C
H       0.6216    0.644   0.9172     H
C       0.6264  0.78426  0.55892     C
O       0.6348    0.963   0.4058     O
C       0.6438   0.7563    0.834     C
N       0.6487  0.81828  0.80016     N
H        0.649    0.685     0.79     H
C        0.667  0.77909  0.70678     C
O       0.6768  0.09838  0.54556     O
C       0.6843  0.04726  0.46112     C
C       0.6889  0.70568  0.52076     C
H        0.694   0.6792    0.458     H
H       0.7311   0.9706   0.2918     H
C       0.7324  0.70424  0.67048     C
C       0.7441  0.66639  0.57658     C
C       0.7559  0.08981  0.42342     C
C       0.7676  0.03376  0.32952     C
H       0.7689   0.6788   0.7082     H
H        0.806   0.2212    0.542     H
C       0.8111  0.18492  0.47924     C
C       0.8157  0.58614  0.53888     C
O       0.8232  0.55282  0.45444     O
C        0.833  0.07231  0.29322     C
H        0.851    0.895     0.21     H
N       0.8513  0.01812  0.19984     N
C       0.8562   0.9223    0.166     C
O       0.8652   0.5572   0.5942     O
C       0.8736  0.22534  0.44108     C
H       0.8784   0.7268   0.0828     H
C       0.8809   0.8592   0.0722     C
C       0.8832  0.17083  0.34746     C
C       0.8928   0.7562   0.0452     C
H       0.8935   0.9723   0.0348     H
C       0.9009   0.9027   0.0166     C
H       0.9223   0.1995   0.3212     H
C        0.926   0.6962   0.9626     C
C       0.9306  0.32809  0.50238     C
C       0.9325   0.8415   0.9322     C
H       0.9359   0.6272   0.9458     H
C       0.9447   0.7386   0.9042     C
H       0.9456   0.8708   0.8942     H
O       0.9462  0.36091  0.58842     O
La     0.95671  0.46645  0.36161    La
O       0.9627   0.3799   0.4636     O
C       0.9806  0.67381  0.81402     C
O        0.988  0.57957  0.79234     O
O       0.9985  0.28685   0.2357     O
