data_I
_chemical_name_common  '/home/zhangsd/repos/MofS-CGCNN/ML/data/TSD/clean_cifs/BETHEP_clean'
_cell_length_a 19.29450
_cell_length_b 19.29450
_cell_length_c 19.29450
_cell_angle_alpha 90.00000
_cell_angle_beta  90.00000
_cell_angle_gamma 90.00000
_space_group_name_H-M_alt      'P 1'


loop_
_space_group_symop_operation_xyz
  'x, y, z' 

loop_
_atom_site_label
_atom_site_fract_x
_atom_site_fract_y
_atom_site_fract_z
_atom_site_type_symbol
Cl         0.0   0.2293      0.5    Cl
Cd         0.0  0.35474      0.5    Cd
Cl         0.0      0.5   0.2293    Cl
Cd         0.0      0.5  0.35474    Cd
Cd         0.0      0.5  0.64526    Cd
Cl         0.0      0.5   0.7707    Cl
Cd         0.0  0.64526      0.5    Cd
Cl         0.0   0.7707      0.5    Cl
N        0.082   0.3662   0.4135     N
N        0.082   0.3662   0.5865     N
N        0.082   0.4135   0.3662     N
N        0.082   0.4135   0.6338     N
N        0.082   0.5865   0.3662     N
N        0.082   0.5865   0.6338     N
N        0.082   0.6338   0.4135     N
N        0.082   0.6338   0.5865     N
N       0.1353   0.3232    0.404     N
N       0.1353   0.3232    0.596     N
N       0.1353    0.404   0.3232     N
N       0.1353    0.404   0.6768     N
N       0.1353    0.596   0.3232     N
N       0.1353    0.596   0.6768     N
N       0.1353   0.6768    0.404     N
N       0.1353   0.6768    0.596     N
Cd       0.146   0.2443      0.5    Cd
Cd       0.146      0.5   0.2443    Cd
Cd       0.146      0.5   0.7557    Cd
Cd       0.146   0.7557      0.5    Cd
C       0.1678   0.3475   0.3475     C
C       0.1678   0.3475   0.6525     C
C       0.1678   0.6525   0.3475     C
C       0.1678   0.6525   0.6525     C
C        0.228   0.3157   0.3157     C
C        0.228   0.3157   0.6843     C
C        0.228   0.6843   0.3157     C
C        0.228   0.6843   0.6843     C
Cl      0.2293      0.0      0.5    Cl
Cl      0.2293      0.5      0.0    Cl
H       0.2387   0.2387   0.3859     H
H       0.2387   0.2387   0.6141     H
H       0.2387   0.3859   0.2387     H
H       0.2387   0.3859   0.7613     H
H       0.2387   0.6141   0.2387     H
H       0.2387   0.6141   0.7613     H
H       0.2387   0.7613   0.3859     H
H       0.2387   0.7613   0.6141     H
Cd      0.2443    0.146      0.5    Cd
Cd      0.2443      0.5    0.146    Cd
Cd      0.2443      0.5    0.854    Cd
Cd      0.2443    0.854      0.5    Cd
C       0.2576   0.2576   0.3459     C
C       0.2576   0.2576   0.6541     C
C       0.2576   0.3459   0.2576     C
C       0.2576   0.3459   0.7424     C
C       0.2576   0.6541   0.2576     C
C       0.2576   0.6541   0.7424     C
C       0.2576   0.7424   0.3459     C
C       0.2576   0.7424   0.6541     C
C       0.3157    0.228   0.3157     C
C       0.3157    0.228   0.6843     C
C       0.3157   0.3157    0.228     C
C       0.3157   0.3157    0.772     C
C       0.3157   0.6843    0.228     C
C       0.3157   0.6843    0.772     C
C       0.3157    0.772   0.3157     C
C       0.3157    0.772   0.6843     C
N       0.3232   0.1353    0.404     N
N       0.3232   0.1353    0.596     N
N       0.3232    0.404   0.1353     N
N       0.3232    0.404   0.8647     N
N       0.3232    0.596   0.1353     N
N       0.3232    0.596   0.8647     N
N       0.3232   0.8647    0.404     N
N       0.3232   0.8647    0.596     N
C       0.3459   0.2576   0.2576     C
C       0.3459   0.2576   0.7424     C
C       0.3459   0.7424   0.2576     C
C       0.3459   0.7424   0.7424     C
C       0.3475   0.1678   0.3475     C
C       0.3475   0.1678   0.6525     C
C       0.3475   0.3475   0.1678     C
C       0.3475   0.3475   0.8322     C
C       0.3475   0.6525   0.1678     C
C       0.3475   0.6525   0.8322     C
C       0.3475   0.8322   0.3475     C
C       0.3475   0.8322   0.6525     C
Cd     0.35474      0.0      0.5    Cd
Cd     0.35474      0.5      0.0    Cd
N       0.3662    0.082   0.4135     N
N       0.3662    0.082   0.5865     N
N       0.3662   0.4135    0.082     N
N       0.3662   0.4135    0.918     N
N       0.3662   0.5865    0.082     N
N       0.3662   0.5865    0.918     N
N       0.3662    0.918   0.4135     N
N       0.3662    0.918   0.5865     N
H       0.3859   0.2387   0.2387     H
H       0.3859   0.2387   0.7613     H
H       0.3859   0.7613   0.2387     H
H       0.3859   0.7613   0.7613     H
N        0.404   0.1353   0.3232     N
N        0.404   0.1353   0.6768     N
N        0.404   0.3232   0.1353     N
N        0.404   0.3232   0.8647     N
N        0.404   0.6768   0.1353     N
N        0.404   0.6768   0.8647     N
N        0.404   0.8647   0.3232     N
N        0.404   0.8647   0.6768     N
N       0.4135    0.082   0.3662     N
N       0.4135    0.082   0.6338     N
N       0.4135   0.3662    0.082     N
N       0.4135   0.3662    0.918     N
N       0.4135   0.6338    0.082     N
N       0.4135   0.6338    0.918     N
N       0.4135    0.918   0.3662     N
N       0.4135    0.918   0.6338     N
Cl         0.5      0.0   0.2293    Cl
Cd         0.5      0.0  0.35474    Cd
Cd         0.5      0.0  0.64526    Cd
Cl         0.5      0.0   0.7707    Cl
Cd         0.5    0.146   0.2443    Cd
Cd         0.5    0.146   0.7557    Cd
Cl         0.5   0.2293      0.0    Cl
Cd         0.5   0.2443    0.146    Cd
Cd         0.5   0.2443    0.854    Cd
Cd         0.5  0.35474      0.0    Cd
Cd         0.5  0.64526      0.0    Cd
Cd         0.5   0.7557    0.146    Cd
Cd         0.5   0.7557    0.854    Cd
Cl         0.5   0.7707      0.0    Cl
Cd         0.5    0.854   0.2443    Cd
Cd         0.5    0.854   0.7557    Cd
N       0.5865    0.082   0.3662     N
N       0.5865    0.082   0.6338     N
N       0.5865   0.3662    0.082     N
N       0.5865   0.3662    0.918     N
N       0.5865   0.6338    0.082     N
N       0.5865   0.6338    0.918     N
N       0.5865    0.918   0.3662     N
N       0.5865    0.918   0.6338     N
N        0.596   0.1353   0.3232     N
N        0.596   0.1353   0.6768     N
N        0.596   0.3232   0.1353     N
N        0.596   0.3232   0.8647     N
N        0.596   0.6768   0.1353     N
N        0.596   0.6768   0.8647     N
N        0.596   0.8647   0.3232     N
N        0.596   0.8647   0.6768     N
H       0.6141   0.2387   0.2387     H
H       0.6141   0.2387   0.7613     H
H       0.6141   0.7613   0.2387     H
H       0.6141   0.7613   0.7613     H
N       0.6338    0.082   0.4135     N
N       0.6338    0.082   0.5865     N
N       0.6338   0.4135    0.082     N
N       0.6338   0.4135    0.918     N
N       0.6338   0.5865    0.082     N
N       0.6338   0.5865    0.918     N
N       0.6338    0.918   0.4135     N
N       0.6338    0.918   0.5865     N
Cd     0.64526      0.0      0.5    Cd
Cd     0.64526      0.5      0.0    Cd
C       0.6525   0.1678   0.3475     C
C       0.6525   0.1678   0.6525     C
C       0.6525   0.3475   0.1678     C
C       0.6525   0.3475   0.8322     C
C       0.6525   0.6525   0.1678     C
C       0.6525   0.6525   0.8322     C
C       0.6525   0.8322   0.3475     C
C       0.6525   0.8322   0.6525     C
C       0.6541   0.2576   0.2576     C
C       0.6541   0.2576   0.7424     C
C       0.6541   0.7424   0.2576     C
C       0.6541   0.7424   0.7424     C
N       0.6768   0.1353    0.404     N
N       0.6768   0.1353    0.596     N
N       0.6768    0.404   0.1353     N
N       0.6768    0.404   0.8647     N
N       0.6768    0.596   0.1353     N
N       0.6768    0.596   0.8647     N
N       0.6768   0.8647    0.404     N
N       0.6768   0.8647    0.596     N
C       0.6843    0.228   0.3157     C
C       0.6843    0.228   0.6843     C
C       0.6843   0.3157    0.228     C
C       0.6843   0.3157    0.772     C
C       0.6843   0.6843    0.228     C
C       0.6843   0.6843    0.772     C
C       0.6843    0.772   0.3157     C
C       0.6843    0.772   0.6843     C
C       0.7424   0.2576   0.3459     C
C       0.7424   0.2576   0.6541     C
C       0.7424   0.3459   0.2576     C
C       0.7424   0.3459   0.7424     C
C       0.7424   0.6541   0.2576     C
C       0.7424   0.6541   0.7424     C
C       0.7424   0.7424   0.3459     C
C       0.7424   0.7424   0.6541     C
Cd      0.7557    0.146      0.5    Cd
Cd      0.7557      0.5    0.146    Cd
Cd      0.7557      0.5    0.854    Cd
Cd      0.7557    0.854      0.5    Cd
H       0.7613   0.2387   0.3859     H
H       0.7613   0.2387   0.6141     H
H       0.7613   0.3859   0.2387     H
H       0.7613   0.3859   0.7613     H
H       0.7613   0.6141   0.2387     H
H       0.7613   0.6141   0.7613     H
H       0.7613   0.7613   0.3859     H
H       0.7613   0.7613   0.6141     H
Cl      0.7707      0.0      0.5    Cl
Cl      0.7707      0.5      0.0    Cl
C        0.772   0.3157   0.3157     C
C        0.772   0.3157   0.6843     C
C        0.772   0.6843   0.3157     C
C        0.772   0.6843   0.6843     C
C       0.8322   0.3475   0.3475     C
C       0.8322   0.3475   0.6525     C
C       0.8322   0.6525   0.3475     C
C       0.8322   0.6525   0.6525     C
Cd       0.854   0.2443      0.5    Cd
Cd       0.854      0.5   0.2443    Cd
Cd       0.854      0.5   0.7557    Cd
Cd       0.854   0.7557      0.5    Cd
N       0.8647   0.3232    0.404     N
N       0.8647   0.3232    0.596     N
N       0.8647    0.404   0.3232     N
N       0.8647    0.404   0.6768     N
N       0.8647    0.596   0.3232     N
N       0.8647    0.596   0.6768     N
N       0.8647   0.6768    0.404     N
N       0.8647   0.6768    0.596     N
N        0.918   0.3662   0.4135     N
N        0.918   0.3662   0.5865     N
N        0.918   0.4135   0.3662     N
N        0.918   0.4135   0.6338     N
N        0.918   0.5865   0.3662     N
N        0.918   0.5865   0.6338     N
N        0.918   0.6338   0.4135     N
N        0.918   0.6338   0.5865     N
