data_I
_chemical_name_common  '/home/zhangsd/repos/MofS-CGCNN/ML/data/TSD/clean_cifs/BIBXIV_clean'
_cell_length_a 32.40020
_cell_length_b 32.40020
_cell_length_c 32.40020
_cell_angle_alpha 90.00000
_cell_angle_beta  90.00000
_cell_angle_gamma 90.00000
_space_group_name_H-M_alt      'P 1'


loop_
_space_group_symop_operation_xyz
  'x, y, z' 

loop_
_atom_site_label
_atom_site_fract_x
_atom_site_fract_y
_atom_site_fract_z
_atom_site_type_symbol
O          0.0      0.0  0.04707     O
H          0.0      0.0  0.07639     H
H          0.0      0.0  0.92361     H
O          0.0      0.0  0.95293     O
O          0.0  0.04707      0.0     O
H          0.0  0.07639      0.0     H
C          0.0  0.12713  0.12713     C
C          0.0  0.12713  0.87287     C
C          0.0  0.15987  0.15987     C
C          0.0  0.15987  0.84013     C
C          0.0  0.18693  0.18693     C
C          0.0  0.18693  0.81307     C
C          0.0  0.21966  0.21966     C
C          0.0  0.21966  0.78034     C
C          0.0  0.28034  0.28034     C
C          0.0  0.28034  0.71966     C
C          0.0  0.31307  0.31307     C
C          0.0  0.31307  0.68693     C
C          0.0  0.34013  0.34013     C
C          0.0  0.34013  0.65987     C
C          0.0  0.37287  0.37287     C
C          0.0  0.37287  0.62713     C
H          0.0  0.42361      0.5     H
O          0.0  0.45293      0.5     O
H          0.0      0.5  0.42361     H
O          0.0      0.5  0.45293     O
O          0.0      0.5  0.54707     O
H          0.0      0.5  0.57639     H
O          0.0  0.54707      0.5     O
H          0.0  0.57639      0.5     H
C          0.0  0.62713  0.37287     C
C          0.0  0.62713  0.62713     C
C          0.0  0.65987  0.34013     C
C          0.0  0.65987  0.65987     C
C          0.0  0.68693  0.31307     C
C          0.0  0.68693  0.68693     C
C          0.0  0.71966  0.28034     C
C          0.0  0.71966  0.71966     C
C          0.0  0.78034  0.21966     C
C          0.0  0.78034  0.78034     C
C          0.0  0.81307  0.18693     C
C          0.0  0.81307  0.81307     C
C          0.0  0.84013  0.15987     C
C          0.0  0.84013  0.84013     C
C          0.0  0.87287  0.12713     C
C          0.0  0.87287  0.87287     C
H          0.0  0.92361      0.0     H
O          0.0  0.95293      0.0     O
N      0.02099  0.08146  0.08146     N
N      0.02099  0.08146  0.91854     N
N      0.02099  0.41854  0.41854     N
N      0.02099  0.41854  0.58146     N
N      0.02099  0.58146  0.41854     N
N      0.02099  0.58146  0.58146     N
N      0.02099  0.91854  0.08146     N
N      0.02099  0.91854  0.91854     N
C      0.03396  0.10968  0.10968     C
C      0.03396  0.10968  0.89032     C
C      0.03396  0.39032  0.39032     C
C      0.03396  0.39032  0.60968     C
C      0.03396  0.60968  0.39032     C
C      0.03396  0.60968  0.60968     C
C      0.03396  0.89032  0.10968     C
C      0.03396  0.89032  0.89032     C
C      0.03715  0.23483  0.23483     C
C      0.03715  0.23483  0.76517     C
C      0.03715  0.26517  0.26517     C
C      0.03715  0.26517  0.73483     C
C      0.03715  0.73483  0.26517     C
C      0.03715  0.73483  0.73483     C
C      0.03715  0.76517  0.23483     C
C      0.03715  0.76517  0.76517     C
Ni     0.04076  0.04076  0.04076    Ni
Ni     0.04076  0.04076  0.95924    Ni
Ni     0.04076  0.45924  0.45924    Ni
Ni     0.04076  0.45924  0.54076    Ni
Ni     0.04076  0.54076  0.45924    Ni
Ni     0.04076  0.54076  0.54076    Ni
Ni     0.04076  0.95924  0.04076    Ni
Ni     0.04076  0.95924  0.95924    Ni
O      0.04707      0.0      0.0     O
O      0.04707      0.5      0.5     O
H      0.06184  0.11609  0.11609     H
H      0.06184  0.11609  0.88391     H
H      0.06184  0.38391  0.38391     H
H      0.06184  0.38391  0.61609     H
H      0.06184  0.61609  0.38391     H
H      0.06184  0.61609  0.61609     H
H      0.06184  0.88391  0.11609     H
H      0.06184  0.88391  0.88391     H
F       0.0738   0.1779  0.20777     F
F       0.0738   0.1779  0.79223     F
F       0.0738  0.20777   0.1779     F
F       0.0738  0.20777   0.8221     F
F       0.0738  0.29223   0.3221     F
F       0.0738  0.29223   0.6779     F
F       0.0738   0.3221  0.29223     F
F       0.0738   0.3221  0.70777     F
F       0.0738   0.6779  0.29223     F
F       0.0738   0.6779  0.70777     F
F       0.0738  0.70777   0.3221     F
F       0.0738  0.70777   0.6779     F
F       0.0738  0.79223   0.1779     F
F       0.0738  0.79223   0.8221     F
F       0.0738   0.8221  0.20777     F
F       0.0738   0.8221  0.79223     F
H      0.07639      0.0      0.0     H
H      0.07639      0.5      0.5     H
C      0.07832  0.21803  0.21803     C
C      0.07832  0.21803  0.78197     C
C      0.07832  0.28197  0.28197     C
C      0.07832  0.28197  0.71803     C
C      0.07832  0.71803  0.28197     C
C      0.07832  0.71803  0.71803     C
C      0.07832  0.78197  0.21803     C
C      0.07832  0.78197  0.78197     C
N      0.08146  0.02099  0.08146     N
N      0.08146  0.02099  0.91854     N
N      0.08146  0.08146  0.02099     N
N      0.08146  0.08146  0.97901     N
N      0.08146  0.41854  0.47901     N
N      0.08146  0.41854  0.52099     N
N      0.08146  0.47901  0.41854     N
N      0.08146  0.47901  0.58146     N
N      0.08146  0.52099  0.41854     N
N      0.08146  0.52099  0.58146     N
N      0.08146  0.58146  0.47901     N
N      0.08146  0.58146  0.52099     N
N      0.08146  0.91854  0.02099     N
N      0.08146  0.91854  0.97901     N
N      0.08146  0.97901  0.08146     N
N      0.08146  0.97901  0.91854     N
F      0.08949   0.1843  0.23979     F
F      0.08949   0.1843  0.76021     F
F      0.08949  0.23979   0.1843     F
F      0.08949  0.23979   0.8157     F
F      0.08949  0.26021   0.3157     F
F      0.08949  0.26021   0.6843     F
F      0.08949   0.3157  0.26021     F
F      0.08949   0.3157  0.73979     F
F      0.08949   0.6843  0.26021     F
F      0.08949   0.6843  0.73979     F
F      0.08949  0.73979   0.3157     F
F      0.08949  0.73979   0.6843     F
F      0.08949  0.76021   0.1843     F
F      0.08949  0.76021   0.8157     F
F      0.08949   0.8157  0.23979     F
F      0.08949   0.8157  0.76021     F
F      0.10778  0.22164  0.24726     F
F      0.10778  0.22164  0.75274     F
F      0.10778  0.24726  0.22164     F
F      0.10778  0.24726  0.77836     F
F      0.10778  0.25274  0.27836     F
F      0.10778  0.25274  0.72164     F
F      0.10778  0.27836  0.25274     F
F      0.10778  0.27836  0.74726     F
F      0.10778  0.72164  0.25274     F
F      0.10778  0.72164  0.74726     F
F      0.10778  0.74726  0.27836     F
F      0.10778  0.74726  0.72164     F
F      0.10778  0.75274  0.22164     F
F      0.10778  0.75274  0.77836     F
F      0.10778  0.77836  0.24726     F
F      0.10778  0.77836  0.75274     F
C      0.10968  0.03396  0.10968     C
C      0.10968  0.03396  0.89032     C
C      0.10968  0.10968  0.03396     C
C      0.10968  0.10968  0.96604     C
C      0.10968  0.39032  0.46604     C
C      0.10968  0.39032  0.53396     C
C      0.10968  0.46604  0.39032     C
C      0.10968  0.46604  0.60968     C
C      0.10968  0.53396  0.39032     C
C      0.10968  0.53396  0.60968     C
C      0.10968  0.60968  0.46604     C
C      0.10968  0.60968  0.53396     C
C      0.10968  0.89032  0.03396     C
C      0.10968  0.89032  0.96604     C
C      0.10968  0.96604  0.10968     C
C      0.10968  0.96604  0.89032     C
H      0.11609  0.06184  0.11609     H
H      0.11609  0.06184  0.88391     H
H      0.11609  0.11609  0.06184     H
H      0.11609  0.11609  0.93816     H
H      0.11609  0.38391  0.43816     H
H      0.11609  0.38391  0.56184     H
H      0.11609  0.43816  0.38391     H
H      0.11609  0.43816  0.61609     H
H      0.11609  0.56184  0.38391     H
H      0.11609  0.56184  0.61609     H
H      0.11609  0.61609  0.43816     H
H      0.11609  0.61609  0.56184     H
H      0.11609  0.88391  0.06184     H
H      0.11609  0.88391  0.93816     H
H      0.11609  0.93816  0.11609     H
H      0.11609  0.93816  0.88391     H
C      0.12713      0.0  0.12713     C
C      0.12713      0.0  0.87287     C
C      0.12713  0.12713      0.0     C
C      0.12713  0.37287      0.5     C
C      0.12713      0.5  0.37287     C
C      0.12713      0.5  0.62713     C
C      0.12713  0.62713      0.5     C
C      0.12713  0.87287      0.0     C
C      0.15987      0.0  0.15987     C
C      0.15987      0.0  0.84013     C
C      0.15987  0.15987      0.0     C
C      0.15987  0.34013      0.5     C
C      0.15987      0.5  0.34013     C
C      0.15987      0.5  0.65987     C
C      0.15987  0.65987      0.5     C
C      0.15987  0.84013      0.0     C
F       0.1779   0.0738  0.20777     F
F       0.1779   0.0738  0.79223     F
F       0.1779  0.20777   0.0738     F
F       0.1779  0.20777   0.9262     F
F       0.1779  0.29223   0.4262     F
F       0.1779  0.29223   0.5738     F
F       0.1779   0.4262  0.29223     F
F       0.1779   0.4262  0.70777     F
F       0.1779   0.5738  0.29223     F
F       0.1779   0.5738  0.70777     F
F       0.1779  0.70777   0.4262     F
F       0.1779  0.70777   0.5738     F
F       0.1779  0.79223   0.0738     F
F       0.1779  0.79223   0.9262     F
F       0.1779   0.9262  0.20777     F
F       0.1779   0.9262  0.79223     F
F       0.1843  0.08949  0.23979     F
F       0.1843  0.08949  0.76021     F
F       0.1843  0.23979  0.08949     F
F       0.1843  0.23979  0.91051     F
F       0.1843  0.26021  0.41051     F
F       0.1843  0.26021  0.58949     F
F       0.1843  0.41051  0.26021     F
F       0.1843  0.41051  0.73979     F
F       0.1843  0.58949  0.26021     F
F       0.1843  0.58949  0.73979     F
F       0.1843  0.73979  0.41051     F
F       0.1843  0.73979  0.58949     F
F       0.1843  0.76021  0.08949     F
F       0.1843  0.76021  0.91051     F
F       0.1843  0.91051  0.23979     F
F       0.1843  0.91051  0.76021     F
C      0.18693      0.0  0.18693     C
C      0.18693      0.0  0.81307     C
C      0.18693  0.18693      0.0     C
C      0.18693  0.31307      0.5     C
C      0.18693      0.5  0.31307     C
C      0.18693      0.5  0.68693     C
C      0.18693  0.68693      0.5     C
C      0.18693  0.81307      0.0     C
F      0.20777   0.0738   0.1779     F
F      0.20777   0.0738   0.8221     F
F      0.20777   0.1779   0.0738     F
F      0.20777   0.1779   0.9262     F
F      0.20777   0.3221   0.4262     F
F      0.20777   0.3221   0.5738     F
F      0.20777   0.4262   0.3221     F
F      0.20777   0.4262   0.6779     F
F      0.20777   0.5738   0.3221     F
F      0.20777   0.5738   0.6779     F
F      0.20777   0.6779   0.4262     F
F      0.20777   0.6779   0.5738     F
F      0.20777   0.8221   0.0738     F
F      0.20777   0.8221   0.9262     F
F      0.20777   0.9262   0.1779     F
F      0.20777   0.9262   0.8221     F
C      0.21803  0.07832  0.21803     C
C      0.21803  0.07832  0.78197     C
C      0.21803  0.21803  0.07832     C
C      0.21803  0.21803  0.92168     C
C      0.21803  0.28197  0.42168     C
C      0.21803  0.28197  0.57832     C
C      0.21803  0.42168  0.28197     C
C      0.21803  0.42168  0.71803     C
C      0.21803  0.57832  0.28197     C
C      0.21803  0.57832  0.71803     C
C      0.21803  0.71803  0.42168     C
C      0.21803  0.71803  0.57832     C
C      0.21803  0.78197  0.07832     C
C      0.21803  0.78197  0.92168     C
C      0.21803  0.92168  0.21803     C
C      0.21803  0.92168  0.78197     C
C      0.21966      0.0  0.21966     C
C      0.21966      0.0  0.78034     C
C      0.21966  0.21966      0.0     C
C      0.21966  0.28034      0.5     C
C      0.21966      0.5  0.28034     C
C      0.21966      0.5  0.71966     C
C      0.21966  0.71966      0.5     C
C      0.21966  0.78034      0.0     C
F      0.22164  0.10778  0.24726     F
F      0.22164  0.10778  0.75274     F
F      0.22164  0.24726  0.10778     F
F      0.22164  0.24726  0.89222     F
F      0.22164  0.25274  0.39222     F
F      0.22164  0.25274  0.60778     F
F      0.22164  0.39222  0.25274     F
F      0.22164  0.39222  0.74726     F
F      0.22164  0.60778  0.25274     F
F      0.22164  0.60778  0.74726     F
F      0.22164  0.74726  0.39222     F
F      0.22164  0.74726  0.60778     F
F      0.22164  0.75274  0.10778     F
F      0.22164  0.75274  0.89222     F
F      0.22164  0.89222  0.24726     F
F      0.22164  0.89222  0.75274     F
C      0.23483  0.03715  0.23483     C
C      0.23483  0.03715  0.76517     C
C      0.23483  0.23483  0.03715     C
C      0.23483  0.23483  0.96285     C
C      0.23483  0.26517  0.46285     C
C      0.23483  0.26517  0.53715     C
C      0.23483  0.46285  0.26517     C
C      0.23483  0.46285  0.73483     C
C      0.23483  0.53715  0.26517     C
C      0.23483  0.53715  0.73483     C
C      0.23483  0.73483  0.46285     C
C      0.23483  0.73483  0.53715     C
C      0.23483  0.76517  0.03715     C
C      0.23483  0.76517  0.96285     C
C      0.23483  0.96285  0.23483     C
C      0.23483  0.96285  0.76517     C
F      0.23979  0.08949   0.1843     F
F      0.23979  0.08949   0.8157     F
F      0.23979   0.1843  0.08949     F
F      0.23979   0.1843  0.91051     F
F      0.23979   0.3157  0.41051     F
F      0.23979   0.3157  0.58949     F
F      0.23979  0.41051   0.3157     F
F      0.23979  0.41051   0.6843     F
F      0.23979  0.58949   0.3157     F
F      0.23979  0.58949   0.6843     F
F      0.23979   0.6843  0.41051     F
F      0.23979   0.6843  0.58949     F
F      0.23979   0.8157  0.08949     F
F      0.23979   0.8157  0.91051     F
F      0.23979  0.91051   0.1843     F
F      0.23979  0.91051   0.8157     F
F      0.24726  0.10778  0.22164     F
F      0.24726  0.10778  0.77836     F
F      0.24726  0.22164  0.10778     F
F      0.24726  0.22164  0.89222     F
F      0.24726  0.27836  0.39222     F
F      0.24726  0.27836  0.60778     F
F      0.24726  0.39222  0.27836     F
F      0.24726  0.39222  0.72164     F
F      0.24726  0.60778  0.27836     F
F      0.24726  0.60778  0.72164     F
F      0.24726  0.72164  0.39222     F
F      0.24726  0.72164  0.60778     F
F      0.24726  0.77836  0.10778     F
F      0.24726  0.77836  0.89222     F
F      0.24726  0.89222  0.22164     F
F      0.24726  0.89222  0.77836     F
F      0.25274  0.10778  0.27836     F
F      0.25274  0.10778  0.72164     F
F      0.25274  0.22164  0.39222     F
F      0.25274  0.22164  0.60778     F
F      0.25274  0.27836  0.10778     F
F      0.25274  0.27836  0.89222     F
F      0.25274  0.39222  0.22164     F
F      0.25274  0.39222  0.77836     F
F      0.25274  0.60778  0.22164     F
F      0.25274  0.60778  0.77836     F
F      0.25274  0.72164  0.10778     F
F      0.25274  0.72164  0.89222     F
F      0.25274  0.77836  0.39222     F
F      0.25274  0.77836  0.60778     F
F      0.25274  0.89222  0.27836     F
F      0.25274  0.89222  0.72164     F
F      0.26021  0.08949   0.3157     F
F      0.26021  0.08949   0.6843     F
F      0.26021   0.1843  0.41051     F
F      0.26021   0.1843  0.58949     F
F      0.26021   0.3157  0.08949     F
F      0.26021   0.3157  0.91051     F
F      0.26021  0.41051   0.1843     F
F      0.26021  0.41051   0.8157     F
F      0.26021  0.58949   0.1843     F
F      0.26021  0.58949   0.8157     F
F      0.26021   0.6843  0.08949     F
F      0.26021   0.6843  0.91051     F
F      0.26021   0.8157  0.41051     F
F      0.26021   0.8157  0.58949     F
F      0.26021  0.91051   0.3157     F
F      0.26021  0.91051   0.6843     F
C      0.26517  0.03715  0.26517     C
C      0.26517  0.03715  0.73483     C
C      0.26517  0.23483  0.46285     C
C      0.26517  0.23483  0.53715     C
C      0.26517  0.26517  0.03715     C
C      0.26517  0.26517  0.96285     C
C      0.26517  0.46285  0.23483     C
C      0.26517  0.46285  0.76517     C
C      0.26517  0.53715  0.23483     C
C      0.26517  0.53715  0.76517     C
C      0.26517  0.73483  0.03715     C
C      0.26517  0.73483  0.96285     C
C      0.26517  0.76517  0.46285     C
C      0.26517  0.76517  0.53715     C
C      0.26517  0.96285  0.26517     C
C      0.26517  0.96285  0.73483     C
F      0.27836  0.10778  0.25274     F
F      0.27836  0.10778  0.74726     F
F      0.27836  0.24726  0.39222     F
F      0.27836  0.24726  0.60778     F
F      0.27836  0.25274  0.10778     F
F      0.27836  0.25274  0.89222     F
F      0.27836  0.39222  0.24726     F
F      0.27836  0.39222  0.75274     F
F      0.27836  0.60778  0.24726     F
F      0.27836  0.60778  0.75274     F
F      0.27836  0.74726  0.10778     F
F      0.27836  0.74726  0.89222     F
F      0.27836  0.75274  0.39222     F
F      0.27836  0.75274  0.60778     F
F      0.27836  0.89222  0.25274     F
F      0.27836  0.89222  0.74726     F
C      0.28034      0.0  0.28034     C
C      0.28034      0.0  0.71966     C
C      0.28034  0.21966      0.5     C
C      0.28034  0.28034      0.0     C
C      0.28034      0.5  0.21966     C
C      0.28034      0.5  0.78034     C
C      0.28034  0.71966      0.0     C
C      0.28034  0.78034      0.5     C
C      0.28197  0.07832  0.28197     C
C      0.28197  0.07832  0.71803     C
C      0.28197  0.21803  0.42168     C
C      0.28197  0.21803  0.57832     C
C      0.28197  0.28197  0.07832     C
C      0.28197  0.28197  0.92168     C
C      0.28197  0.42168  0.21803     C
C      0.28197  0.42168  0.78197     C
C      0.28197  0.57832  0.21803     C
C      0.28197  0.57832  0.78197     C
C      0.28197  0.71803  0.07832     C
C      0.28197  0.71803  0.92168     C
C      0.28197  0.78197  0.42168     C
C      0.28197  0.78197  0.57832     C
C      0.28197  0.92168  0.28197     C
C      0.28197  0.92168  0.71803     C
F      0.29223   0.0738   0.3221     F
F      0.29223   0.0738   0.6779     F
F      0.29223   0.1779   0.4262     F
F      0.29223   0.1779   0.5738     F
F      0.29223   0.3221   0.0738     F
F      0.29223   0.3221   0.9262     F
F      0.29223   0.4262   0.1779     F
F      0.29223   0.4262   0.8221     F
F      0.29223   0.5738   0.1779     F
F      0.29223   0.5738   0.8221     F
F      0.29223   0.6779   0.0738     F
F      0.29223   0.6779   0.9262     F
F      0.29223   0.8221   0.4262     F
F      0.29223   0.8221   0.5738     F
F      0.29223   0.9262   0.3221     F
F      0.29223   0.9262   0.6779     F
C      0.31307      0.0  0.31307     C
C      0.31307      0.0  0.68693     C
C      0.31307  0.18693      0.5     C
C      0.31307  0.31307      0.0     C
C      0.31307      0.5  0.18693     C
C      0.31307      0.5  0.81307     C
C      0.31307  0.68693      0.0     C
C      0.31307  0.81307      0.5     C
F       0.3157  0.08949  0.26021     F
F       0.3157  0.08949  0.73979     F
F       0.3157  0.23979  0.41051     F
F       0.3157  0.23979  0.58949     F
F       0.3157  0.26021  0.08949     F
F       0.3157  0.26021  0.91051     F
F       0.3157  0.41051  0.23979     F
F       0.3157  0.41051  0.76021     F
F       0.3157  0.58949  0.23979     F
F       0.3157  0.58949  0.76021     F
F       0.3157  0.73979  0.08949     F
F       0.3157  0.73979  0.91051     F
F       0.3157  0.76021  0.41051     F
F       0.3157  0.76021  0.58949     F
F       0.3157  0.91051  0.26021     F
F       0.3157  0.91051  0.73979     F
F       0.3221   0.0738  0.29223     F
F       0.3221   0.0738  0.70777     F
F       0.3221  0.20777   0.4262     F
F       0.3221  0.20777   0.5738     F
F       0.3221  0.29223   0.0738     F
F       0.3221  0.29223   0.9262     F
F       0.3221   0.4262  0.20777     F
F       0.3221   0.4262  0.79223     F
F       0.3221   0.5738  0.20777     F
F       0.3221   0.5738  0.79223     F
F       0.3221  0.70777   0.0738     F
F       0.3221  0.70777   0.9262     F
F       0.3221  0.79223   0.4262     F
F       0.3221  0.79223   0.5738     F
F       0.3221   0.9262  0.29223     F
F       0.3221   0.9262  0.70777     F
C      0.34013      0.0  0.34013     C
C      0.34013      0.0  0.65987     C
C      0.34013  0.15987      0.5     C
C      0.34013  0.34013      0.0     C
C      0.34013      0.5  0.15987     C
C      0.34013      0.5  0.84013     C
C      0.34013  0.65987      0.0     C
C      0.34013  0.84013      0.5     C
C      0.37287      0.0  0.37287     C
C      0.37287      0.0  0.62713     C
C      0.37287  0.12713      0.5     C
C      0.37287  0.37287      0.0     C
C      0.37287      0.5  0.12713     C
C      0.37287      0.5  0.87287     C
C      0.37287  0.62713      0.0     C
C      0.37287  0.87287      0.5     C
H      0.38391  0.06184  0.38391     H
H      0.38391  0.06184  0.61609     H
H      0.38391  0.11609  0.43816     H
H      0.38391  0.11609  0.56184     H
H      0.38391  0.38391  0.06184     H
H      0.38391  0.38391  0.93816     H
H      0.38391  0.43816  0.11609     H
H      0.38391  0.43816  0.88391     H
H      0.38391  0.56184  0.11609     H
H      0.38391  0.56184  0.88391     H
H      0.38391  0.61609  0.06184     H
H      0.38391  0.61609  0.93816     H
H      0.38391  0.88391  0.43816     H
H      0.38391  0.88391  0.56184     H
H      0.38391  0.93816  0.38391     H
H      0.38391  0.93816  0.61609     H
C      0.39032  0.03396  0.39032     C
C      0.39032  0.03396  0.60968     C
C      0.39032  0.10968  0.46604     C
C      0.39032  0.10968  0.53396     C
C      0.39032  0.39032  0.03396     C
C      0.39032  0.39032  0.96604     C
C      0.39032  0.46604  0.10968     C
C      0.39032  0.46604  0.89032     C
C      0.39032  0.53396  0.10968     C
C      0.39032  0.53396  0.89032     C
C      0.39032  0.60968  0.03396     C
C      0.39032  0.60968  0.96604     C
C      0.39032  0.89032  0.46604     C
C      0.39032  0.89032  0.53396     C
C      0.39032  0.96604  0.39032     C
C      0.39032  0.96604  0.60968     C
F      0.39222  0.22164  0.25274     F
F      0.39222  0.22164  0.74726     F
F      0.39222  0.24726  0.27836     F
F      0.39222  0.24726  0.72164     F
F      0.39222  0.25274  0.22164     F
F      0.39222  0.25274  0.77836     F
F      0.39222  0.27836  0.24726     F
F      0.39222  0.27836  0.75274     F
F      0.39222  0.72164  0.24726     F
F      0.39222  0.72164  0.75274     F
F      0.39222  0.74726  0.22164     F
F      0.39222  0.74726  0.77836     F
F      0.39222  0.75274  0.27836     F
F      0.39222  0.75274  0.72164     F
F      0.39222  0.77836  0.25274     F
F      0.39222  0.77836  0.74726     F
F      0.41051   0.1843  0.26021     F
F      0.41051   0.1843  0.73979     F
F      0.41051  0.23979   0.3157     F
F      0.41051  0.23979   0.6843     F
F      0.41051  0.26021   0.1843     F
F      0.41051  0.26021   0.8157     F
F      0.41051   0.3157  0.23979     F
F      0.41051   0.3157  0.76021     F
F      0.41051   0.6843  0.23979     F
F      0.41051   0.6843  0.76021     F
F      0.41051  0.73979   0.1843     F
F      0.41051  0.73979   0.8157     F
F      0.41051  0.76021   0.3157     F
F      0.41051  0.76021   0.6843     F
F      0.41051   0.8157  0.26021     F
F      0.41051   0.8157  0.73979     F
N      0.41854  0.02099  0.41854     N
N      0.41854  0.02099  0.58146     N
N      0.41854  0.08146  0.47901     N
N      0.41854  0.08146  0.52099     N
N      0.41854  0.41854  0.02099     N
N      0.41854  0.41854  0.97901     N
N      0.41854  0.47901  0.08146     N
N      0.41854  0.47901  0.91854     N
N      0.41854  0.52099  0.08146     N
N      0.41854  0.52099  0.91854     N
N      0.41854  0.58146  0.02099     N
N      0.41854  0.58146  0.97901     N
N      0.41854  0.91854  0.47901     N
N      0.41854  0.91854  0.52099     N
N      0.41854  0.97901  0.41854     N
N      0.41854  0.97901  0.58146     N
C      0.42168  0.21803  0.28197     C
C      0.42168  0.21803  0.71803     C
C      0.42168  0.28197  0.21803     C
C      0.42168  0.28197  0.78197     C
C      0.42168  0.71803  0.21803     C
C      0.42168  0.71803  0.78197     C
C      0.42168  0.78197  0.28197     C
C      0.42168  0.78197  0.71803     C
H      0.42361      0.0      0.5     H
H      0.42361      0.5      0.0     H
F       0.4262   0.1779  0.29223     F
F       0.4262   0.1779  0.70777     F
F       0.4262  0.20777   0.3221     F
F       0.4262  0.20777   0.6779     F
F       0.4262  0.29223   0.1779     F
F       0.4262  0.29223   0.8221     F
F       0.4262   0.3221  0.20777     F
F       0.4262   0.3221  0.79223     F
F       0.4262   0.6779  0.20777     F
F       0.4262   0.6779  0.79223     F
F       0.4262  0.70777   0.1779     F
F       0.4262  0.70777   0.8221     F
F       0.4262  0.79223   0.3221     F
F       0.4262  0.79223   0.6779     F
F       0.4262   0.8221  0.29223     F
F       0.4262   0.8221  0.70777     F
H      0.43816  0.11609  0.38391     H
H      0.43816  0.11609  0.61609     H
H      0.43816  0.38391  0.11609     H
H      0.43816  0.38391  0.88391     H
H      0.43816  0.61609  0.11609     H
H      0.43816  0.61609  0.88391     H
H      0.43816  0.88391  0.38391     H
H      0.43816  0.88391  0.61609     H
O      0.45293      0.0      0.5     O
O      0.45293      0.5      0.0     O
Ni     0.45924  0.04076  0.45924    Ni
Ni     0.45924  0.04076  0.54076    Ni
Ni     0.45924  0.45924  0.04076    Ni
Ni     0.45924  0.45924  0.95924    Ni
Ni     0.45924  0.54076  0.04076    Ni
Ni     0.45924  0.54076  0.95924    Ni
Ni     0.45924  0.95924  0.45924    Ni
Ni     0.45924  0.95924  0.54076    Ni
C      0.46285  0.23483  0.26517     C
C      0.46285  0.23483  0.73483     C
C      0.46285  0.26517  0.23483     C
C      0.46285  0.26517  0.76517     C
C      0.46285  0.73483  0.23483     C
C      0.46285  0.73483  0.76517     C
C      0.46285  0.76517  0.26517     C
C      0.46285  0.76517  0.73483     C
C      0.46604  0.10968  0.39032     C
C      0.46604  0.10968  0.60968     C
C      0.46604  0.39032  0.10968     C
C      0.46604  0.39032  0.89032     C
C      0.46604  0.60968  0.10968     C
C      0.46604  0.60968  0.89032     C
C      0.46604  0.89032  0.39032     C
C      0.46604  0.89032  0.60968     C
N      0.47901  0.08146  0.41854     N
N      0.47901  0.08146  0.58146     N
N      0.47901  0.41854  0.08146     N
N      0.47901  0.41854  0.91854     N
N      0.47901  0.58146  0.08146     N
N      0.47901  0.58146  0.91854     N
N      0.47901  0.91854  0.41854     N
N      0.47901  0.91854  0.58146     N
H          0.5      0.0  0.42361     H
O          0.5      0.0  0.45293     O
O          0.5      0.0  0.54707     O
H          0.5      0.0  0.57639     H
O          0.5  0.04707      0.5     O
H          0.5  0.07639      0.5     H
C          0.5  0.12713  0.37287     C
C          0.5  0.12713  0.62713     C
C          0.5  0.15987  0.34013     C
C          0.5  0.15987  0.65987     C
C          0.5  0.18693  0.31307     C
C          0.5  0.18693  0.68693     C
C          0.5  0.21966  0.28034     C
C          0.5  0.21966  0.71966     C
C          0.5  0.28034  0.21966     C
C          0.5  0.28034  0.78034     C
C          0.5  0.31307  0.18693     C
C          0.5  0.31307  0.81307     C
C          0.5  0.34013  0.15987     C
C          0.5  0.34013  0.84013     C
C          0.5  0.37287  0.12713     C
C          0.5  0.37287  0.87287     C
H          0.5  0.42361      0.0     H
O          0.5  0.45293      0.0     O
O          0.5      0.5  0.04707     O
H          0.5      0.5  0.07639     H
H          0.5      0.5  0.92361     H
O          0.5      0.5  0.95293     O
O          0.5  0.54707      0.0     O
H          0.5  0.57639      0.0     H
C          0.5  0.62713  0.12713     C
C          0.5  0.62713  0.87287     C
C          0.5  0.65987  0.15987     C
C          0.5  0.65987  0.84013     C
C          0.5  0.68693  0.18693     C
C          0.5  0.68693  0.81307     C
C          0.5  0.71966  0.21966     C
C          0.5  0.71966  0.78034     C
C          0.5  0.78034  0.28034     C
C          0.5  0.78034  0.71966     C
C          0.5  0.81307  0.31307     C
C          0.5  0.81307  0.68693     C
C          0.5  0.84013  0.34013     C
C          0.5  0.84013  0.65987     C
C          0.5  0.87287  0.37287     C
C          0.5  0.87287  0.62713     C
H          0.5  0.92361      0.5     H
O          0.5  0.95293      0.5     O
N      0.52099  0.08146  0.41854     N
N      0.52099  0.08146  0.58146     N
N      0.52099  0.41854  0.08146     N
N      0.52099  0.41854  0.91854     N
N      0.52099  0.58146  0.08146     N
N      0.52099  0.58146  0.91854     N
N      0.52099  0.91854  0.41854     N
N      0.52099  0.91854  0.58146     N
C      0.53396  0.10968  0.39032     C
C      0.53396  0.10968  0.60968     C
C      0.53396  0.39032  0.10968     C
C      0.53396  0.39032  0.89032     C
C      0.53396  0.60968  0.10968     C
C      0.53396  0.60968  0.89032     C
C      0.53396  0.89032  0.39032     C
C      0.53396  0.89032  0.60968     C
C      0.53715  0.23483  0.26517     C
C      0.53715  0.23483  0.73483     C
C      0.53715  0.26517  0.23483     C
C      0.53715  0.26517  0.76517     C
C      0.53715  0.73483  0.23483     C
C      0.53715  0.73483  0.76517     C
C      0.53715  0.76517  0.26517     C
C      0.53715  0.76517  0.73483     C
Ni     0.54076  0.04076  0.45924    Ni
Ni     0.54076  0.04076  0.54076    Ni
Ni     0.54076  0.45924  0.04076    Ni
Ni     0.54076  0.45924  0.95924    Ni
Ni     0.54076  0.54076  0.04076    Ni
Ni     0.54076  0.54076  0.95924    Ni
Ni     0.54076  0.95924  0.45924    Ni
Ni     0.54076  0.95924  0.54076    Ni
O      0.54707      0.0      0.5     O
O      0.54707      0.5      0.0     O
H      0.56184  0.11609  0.38391     H
H      0.56184  0.11609  0.61609     H
H      0.56184  0.38391  0.11609     H
H      0.56184  0.38391  0.88391     H
H      0.56184  0.61609  0.11609     H
H      0.56184  0.61609  0.88391     H
H      0.56184  0.88391  0.38391     H
H      0.56184  0.88391  0.61609     H
F       0.5738   0.1779  0.29223     F
F       0.5738   0.1779  0.70777     F
F       0.5738  0.20777   0.3221     F
F       0.5738  0.20777   0.6779     F
F       0.5738  0.29223   0.1779     F
F       0.5738  0.29223   0.8221     F
F       0.5738   0.3221  0.20777     F
F       0.5738   0.3221  0.79223     F
F       0.5738   0.6779  0.20777     F
F       0.5738   0.6779  0.79223     F
F       0.5738  0.70777   0.1779     F
F       0.5738  0.70777   0.8221     F
F       0.5738  0.79223   0.3221     F
F       0.5738  0.79223   0.6779     F
F       0.5738   0.8221  0.29223     F
F       0.5738   0.8221  0.70777     F
H      0.57639      0.0      0.5     H
H      0.57639      0.5      0.0     H
C      0.57832  0.21803  0.28197     C
C      0.57832  0.21803  0.71803     C
C      0.57832  0.28197  0.21803     C
C      0.57832  0.28197  0.78197     C
C      0.57832  0.71803  0.21803     C
C      0.57832  0.71803  0.78197     C
C      0.57832  0.78197  0.28197     C
C      0.57832  0.78197  0.71803     C
N      0.58146  0.02099  0.41854     N
N      0.58146  0.02099  0.58146     N
N      0.58146  0.08146  0.47901     N
N      0.58146  0.08146  0.52099     N
N      0.58146  0.41854  0.02099     N
N      0.58146  0.41854  0.97901     N
N      0.58146  0.47901  0.08146     N
N      0.58146  0.47901  0.91854     N
N      0.58146  0.52099  0.08146     N
N      0.58146  0.52099  0.91854     N
N      0.58146  0.58146  0.02099     N
N      0.58146  0.58146  0.97901     N
N      0.58146  0.91854  0.47901     N
N      0.58146  0.91854  0.52099     N
N      0.58146  0.97901  0.41854     N
N      0.58146  0.97901  0.58146     N
F      0.58949   0.1843  0.26021     F
F      0.58949   0.1843  0.73979     F
F      0.58949  0.23979   0.3157     F
F      0.58949  0.23979   0.6843     F
F      0.58949  0.26021   0.1843     F
F      0.58949  0.26021   0.8157     F
F      0.58949   0.3157  0.23979     F
F      0.58949   0.3157  0.76021     F
F      0.58949   0.6843  0.23979     F
F      0.58949   0.6843  0.76021     F
F      0.58949  0.73979   0.1843     F
F      0.58949  0.73979   0.8157     F
F      0.58949  0.76021   0.3157     F
F      0.58949  0.76021   0.6843     F
F      0.58949   0.8157  0.26021     F
F      0.58949   0.8157  0.73979     F
F      0.60778  0.22164  0.25274     F
F      0.60778  0.22164  0.74726     F
F      0.60778  0.24726  0.27836     F
F      0.60778  0.24726  0.72164     F
F      0.60778  0.25274  0.22164     F
F      0.60778  0.25274  0.77836     F
F      0.60778  0.27836  0.24726     F
F      0.60778  0.27836  0.75274     F
F      0.60778  0.72164  0.24726     F
F      0.60778  0.72164  0.75274     F
F      0.60778  0.74726  0.22164     F
F      0.60778  0.74726  0.77836     F
F      0.60778  0.75274  0.27836     F
F      0.60778  0.75274  0.72164     F
F      0.60778  0.77836  0.25274     F
F      0.60778  0.77836  0.74726     F
C      0.60968  0.03396  0.39032     C
C      0.60968  0.03396  0.60968     C
C      0.60968  0.10968  0.46604     C
C      0.60968  0.10968  0.53396     C
C      0.60968  0.39032  0.03396     C
C      0.60968  0.39032  0.96604     C
C      0.60968  0.46604  0.10968     C
C      0.60968  0.46604  0.89032     C
C      0.60968  0.53396  0.10968     C
C      0.60968  0.53396  0.89032     C
C      0.60968  0.60968  0.03396     C
C      0.60968  0.60968  0.96604     C
C      0.60968  0.89032  0.46604     C
C      0.60968  0.89032  0.53396     C
C      0.60968  0.96604  0.39032     C
C      0.60968  0.96604  0.60968     C
H      0.61609  0.06184  0.38391     H
H      0.61609  0.06184  0.61609     H
H      0.61609  0.11609  0.43816     H
H      0.61609  0.11609  0.56184     H
H      0.61609  0.38391  0.06184     H
H      0.61609  0.38391  0.93816     H
H      0.61609  0.43816  0.11609     H
H      0.61609  0.43816  0.88391     H
H      0.61609  0.56184  0.11609     H
H      0.61609  0.56184  0.88391     H
H      0.61609  0.61609  0.06184     H
H      0.61609  0.61609  0.93816     H
H      0.61609  0.88391  0.43816     H
H      0.61609  0.88391  0.56184     H
H      0.61609  0.93816  0.38391     H
H      0.61609  0.93816  0.61609     H
C      0.62713      0.0  0.37287     C
C      0.62713      0.0  0.62713     C
C      0.62713  0.12713      0.5     C
C      0.62713  0.37287      0.0     C
C      0.62713      0.5  0.12713     C
C      0.62713      0.5  0.87287     C
C      0.62713  0.62713      0.0     C
C      0.62713  0.87287      0.5     C
C      0.65987      0.0  0.34013     C
C      0.65987      0.0  0.65987     C
C      0.65987  0.15987      0.5     C
C      0.65987  0.34013      0.0     C
C      0.65987      0.5  0.15987     C
C      0.65987      0.5  0.84013     C
C      0.65987  0.65987      0.0     C
C      0.65987  0.84013      0.5     C
F       0.6779   0.0738  0.29223     F
F       0.6779   0.0738  0.70777     F
F       0.6779  0.20777   0.4262     F
F       0.6779  0.20777   0.5738     F
F       0.6779  0.29223   0.0738     F
F       0.6779  0.29223   0.9262     F
F       0.6779   0.4262  0.20777     F
F       0.6779   0.4262  0.79223     F
F       0.6779   0.5738  0.20777     F
F       0.6779   0.5738  0.79223     F
F       0.6779  0.70777   0.0738     F
F       0.6779  0.70777   0.9262     F
F       0.6779  0.79223   0.4262     F
F       0.6779  0.79223   0.5738     F
F       0.6779   0.9262  0.29223     F
F       0.6779   0.9262  0.70777     F
F       0.6843  0.08949  0.26021     F
F       0.6843  0.08949  0.73979     F
F       0.6843  0.23979  0.41051     F
F       0.6843  0.23979  0.58949     F
F       0.6843  0.26021  0.08949     F
F       0.6843  0.26021  0.91051     F
F       0.6843  0.41051  0.23979     F
F       0.6843  0.41051  0.76021     F
F       0.6843  0.58949  0.23979     F
F       0.6843  0.58949  0.76021     F
F       0.6843  0.73979  0.08949     F
F       0.6843  0.73979  0.91051     F
F       0.6843  0.76021  0.41051     F
F       0.6843  0.76021  0.58949     F
F       0.6843  0.91051  0.26021     F
F       0.6843  0.91051  0.73979     F
C      0.68693      0.0  0.31307     C
C      0.68693      0.0  0.68693     C
C      0.68693  0.18693      0.5     C
C      0.68693  0.31307      0.0     C
C      0.68693      0.5  0.18693     C
C      0.68693      0.5  0.81307     C
C      0.68693  0.68693      0.0     C
C      0.68693  0.81307      0.5     C
F      0.70777   0.0738   0.3221     F
F      0.70777   0.0738   0.6779     F
F      0.70777   0.1779   0.4262     F
F      0.70777   0.1779   0.5738     F
F      0.70777   0.3221   0.0738     F
F      0.70777   0.3221   0.9262     F
F      0.70777   0.4262   0.1779     F
F      0.70777   0.4262   0.8221     F
F      0.70777   0.5738   0.1779     F
F      0.70777   0.5738   0.8221     F
F      0.70777   0.6779   0.0738     F
F      0.70777   0.6779   0.9262     F
F      0.70777   0.8221   0.4262     F
F      0.70777   0.8221   0.5738     F
F      0.70777   0.9262   0.3221     F
F      0.70777   0.9262   0.6779     F
C      0.71803  0.07832  0.28197     C
C      0.71803  0.07832  0.71803     C
C      0.71803  0.21803  0.42168     C
C      0.71803  0.21803  0.57832     C
C      0.71803  0.28197  0.07832     C
C      0.71803  0.28197  0.92168     C
C      0.71803  0.42168  0.21803     C
C      0.71803  0.42168  0.78197     C
C      0.71803  0.57832  0.21803     C
C      0.71803  0.57832  0.78197     C
C      0.71803  0.71803  0.07832     C
C      0.71803  0.71803  0.92168     C
C      0.71803  0.78197  0.42168     C
C      0.71803  0.78197  0.57832     C
C      0.71803  0.92168  0.28197     C
C      0.71803  0.92168  0.71803     C
C      0.71966      0.0  0.28034     C
C      0.71966      0.0  0.71966     C
C      0.71966  0.21966      0.5     C
C      0.71966  0.28034      0.0     C
C      0.71966      0.5  0.21966     C
C      0.71966      0.5  0.78034     C
C      0.71966  0.71966      0.0     C
C      0.71966  0.78034      0.5     C
F      0.72164  0.10778  0.25274     F
F      0.72164  0.10778  0.74726     F
F      0.72164  0.24726  0.39222     F
F      0.72164  0.24726  0.60778     F
F      0.72164  0.25274  0.10778     F
F      0.72164  0.25274  0.89222     F
F      0.72164  0.39222  0.24726     F
F      0.72164  0.39222  0.75274     F
F      0.72164  0.60778  0.24726     F
F      0.72164  0.60778  0.75274     F
F      0.72164  0.74726  0.10778     F
F      0.72164  0.74726  0.89222     F
F      0.72164  0.75274  0.39222     F
F      0.72164  0.75274  0.60778     F
F      0.72164  0.89222  0.25274     F
F      0.72164  0.89222  0.74726     F
C      0.73483  0.03715  0.26517     C
C      0.73483  0.03715  0.73483     C
C      0.73483  0.23483  0.46285     C
C      0.73483  0.23483  0.53715     C
C      0.73483  0.26517  0.03715     C
C      0.73483  0.26517  0.96285     C
C      0.73483  0.46285  0.23483     C
C      0.73483  0.46285  0.76517     C
C      0.73483  0.53715  0.23483     C
C      0.73483  0.53715  0.76517     C
C      0.73483  0.73483  0.03715     C
C      0.73483  0.73483  0.96285     C
C      0.73483  0.76517  0.46285     C
C      0.73483  0.76517  0.53715     C
C      0.73483  0.96285  0.26517     C
C      0.73483  0.96285  0.73483     C
F      0.73979  0.08949   0.3157     F
F      0.73979  0.08949   0.6843     F
F      0.73979   0.1843  0.41051     F
F      0.73979   0.1843  0.58949     F
F      0.73979   0.3157  0.08949     F
F      0.73979   0.3157  0.91051     F
F      0.73979  0.41051   0.1843     F
F      0.73979  0.41051   0.8157     F
F      0.73979  0.58949   0.1843     F
F      0.73979  0.58949   0.8157     F
F      0.73979   0.6843  0.08949     F
F      0.73979   0.6843  0.91051     F
F      0.73979   0.8157  0.41051     F
F      0.73979   0.8157  0.58949     F
F      0.73979  0.91051   0.3157     F
F      0.73979  0.91051   0.6843     F
F      0.74726  0.10778  0.27836     F
F      0.74726  0.10778  0.72164     F
F      0.74726  0.22164  0.39222     F
F      0.74726  0.22164  0.60778     F
F      0.74726  0.27836  0.10778     F
F      0.74726  0.27836  0.89222     F
F      0.74726  0.39222  0.22164     F
F      0.74726  0.39222  0.77836     F
F      0.74726  0.60778  0.22164     F
F      0.74726  0.60778  0.77836     F
F      0.74726  0.72164  0.10778     F
F      0.74726  0.72164  0.89222     F
F      0.74726  0.77836  0.39222     F
F      0.74726  0.77836  0.60778     F
F      0.74726  0.89222  0.27836     F
F      0.74726  0.89222  0.72164     F
F      0.75274  0.10778  0.22164     F
F      0.75274  0.10778  0.77836     F
F      0.75274  0.22164  0.10778     F
F      0.75274  0.22164  0.89222     F
F      0.75274  0.27836  0.39222     F
F      0.75274  0.27836  0.60778     F
F      0.75274  0.39222  0.27836     F
F      0.75274  0.39222  0.72164     F
F      0.75274  0.60778  0.27836     F
F      0.75274  0.60778  0.72164     F
F      0.75274  0.72164  0.39222     F
F      0.75274  0.72164  0.60778     F
F      0.75274  0.77836  0.10778     F
F      0.75274  0.77836  0.89222     F
F      0.75274  0.89222  0.22164     F
F      0.75274  0.89222  0.77836     F
F      0.76021  0.08949   0.1843     F
F      0.76021  0.08949   0.8157     F
F      0.76021   0.1843  0.08949     F
F      0.76021   0.1843  0.91051     F
F      0.76021   0.3157  0.41051     F
F      0.76021   0.3157  0.58949     F
F      0.76021  0.41051   0.3157     F
F      0.76021  0.41051   0.6843     F
F      0.76021  0.58949   0.3157     F
F      0.76021  0.58949   0.6843     F
F      0.76021   0.6843  0.41051     F
F      0.76021   0.6843  0.58949     F
F      0.76021   0.8157  0.08949     F
F      0.76021   0.8157  0.91051     F
F      0.76021  0.91051   0.1843     F
F      0.76021  0.91051   0.8157     F
C      0.76517  0.03715  0.23483     C
C      0.76517  0.03715  0.76517     C
C      0.76517  0.23483  0.03715     C
C      0.76517  0.23483  0.96285     C
C      0.76517  0.26517  0.46285     C
C      0.76517  0.26517  0.53715     C
C      0.76517  0.46285  0.26517     C
C      0.76517  0.46285  0.73483     C
C      0.76517  0.53715  0.26517     C
C      0.76517  0.53715  0.73483     C
C      0.76517  0.73483  0.46285     C
C      0.76517  0.73483  0.53715     C
C      0.76517  0.76517  0.03715     C
C      0.76517  0.76517  0.96285     C
C      0.76517  0.96285  0.23483     C
C      0.76517  0.96285  0.76517     C
F      0.77836  0.10778  0.24726     F
F      0.77836  0.10778  0.75274     F
F      0.77836  0.24726  0.10778     F
F      0.77836  0.24726  0.89222     F
F      0.77836  0.25274  0.39222     F
F      0.77836  0.25274  0.60778     F
F      0.77836  0.39222  0.25274     F
F      0.77836  0.39222  0.74726     F
F      0.77836  0.60778  0.25274     F
F      0.77836  0.60778  0.74726     F
F      0.77836  0.74726  0.39222     F
F      0.77836  0.74726  0.60778     F
F      0.77836  0.75274  0.10778     F
F      0.77836  0.75274  0.89222     F
F      0.77836  0.89222  0.24726     F
F      0.77836  0.89222  0.75274     F
C      0.78034      0.0  0.21966     C
C      0.78034      0.0  0.78034     C
C      0.78034  0.21966      0.0     C
C      0.78034  0.28034      0.5     C
C      0.78034      0.5  0.28034     C
C      0.78034      0.5  0.71966     C
C      0.78034  0.71966      0.5     C
C      0.78034  0.78034      0.0     C
C      0.78197  0.07832  0.21803     C
C      0.78197  0.07832  0.78197     C
C      0.78197  0.21803  0.07832     C
C      0.78197  0.21803  0.92168     C
C      0.78197  0.28197  0.42168     C
C      0.78197  0.28197  0.57832     C
C      0.78197  0.42168  0.28197     C
C      0.78197  0.42168  0.71803     C
C      0.78197  0.57832  0.28197     C
C      0.78197  0.57832  0.71803     C
C      0.78197  0.71803  0.42168     C
C      0.78197  0.71803  0.57832     C
C      0.78197  0.78197  0.07832     C
C      0.78197  0.78197  0.92168     C
C      0.78197  0.92168  0.21803     C
C      0.78197  0.92168  0.78197     C
F      0.79223   0.0738   0.1779     F
F      0.79223   0.0738   0.8221     F
F      0.79223   0.1779   0.0738     F
F      0.79223   0.1779   0.9262     F
F      0.79223   0.3221   0.4262     F
F      0.79223   0.3221   0.5738     F
F      0.79223   0.4262   0.3221     F
F      0.79223   0.4262   0.6779     F
F      0.79223   0.5738   0.3221     F
F      0.79223   0.5738   0.6779     F
F      0.79223   0.6779   0.4262     F
F      0.79223   0.6779   0.5738     F
F      0.79223   0.8221   0.0738     F
F      0.79223   0.8221   0.9262     F
F      0.79223   0.9262   0.1779     F
F      0.79223   0.9262   0.8221     F
C      0.81307      0.0  0.18693     C
C      0.81307      0.0  0.81307     C
C      0.81307  0.18693      0.0     C
C      0.81307  0.31307      0.5     C
C      0.81307      0.5  0.31307     C
C      0.81307      0.5  0.68693     C
C      0.81307  0.68693      0.5     C
C      0.81307  0.81307      0.0     C
F       0.8157  0.08949  0.23979     F
F       0.8157  0.08949  0.76021     F
F       0.8157  0.23979  0.08949     F
F       0.8157  0.23979  0.91051     F
F       0.8157  0.26021  0.41051     F
F       0.8157  0.26021  0.58949     F
F       0.8157  0.41051  0.26021     F
F       0.8157  0.41051  0.73979     F
F       0.8157  0.58949  0.26021     F
F       0.8157  0.58949  0.73979     F
F       0.8157  0.73979  0.41051     F
F       0.8157  0.73979  0.58949     F
F       0.8157  0.76021  0.08949     F
F       0.8157  0.76021  0.91051     F
F       0.8157  0.91051  0.23979     F
F       0.8157  0.91051  0.76021     F
F       0.8221   0.0738  0.20777     F
F       0.8221   0.0738  0.79223     F
F       0.8221  0.20777   0.0738     F
F       0.8221  0.20777   0.9262     F
F       0.8221  0.29223   0.4262     F
F       0.8221  0.29223   0.5738     F
F       0.8221   0.4262  0.29223     F
F       0.8221   0.4262  0.70777     F
F       0.8221   0.5738  0.29223     F
F       0.8221   0.5738  0.70777     F
F       0.8221  0.70777   0.4262     F
F       0.8221  0.70777   0.5738     F
F       0.8221  0.79223   0.0738     F
F       0.8221  0.79223   0.9262     F
F       0.8221   0.9262  0.20777     F
F       0.8221   0.9262  0.79223     F
C      0.84013      0.0  0.15987     C
C      0.84013      0.0  0.84013     C
C      0.84013  0.15987      0.0     C
C      0.84013  0.34013      0.5     C
C      0.84013      0.5  0.34013     C
C      0.84013      0.5  0.65987     C
C      0.84013  0.65987      0.5     C
C      0.84013  0.84013      0.0     C
C      0.87287      0.0  0.12713     C
C      0.87287      0.0  0.87287     C
C      0.87287  0.12713      0.0     C
C      0.87287  0.37287      0.5     C
C      0.87287      0.5  0.37287     C
C      0.87287      0.5  0.62713     C
C      0.87287  0.62713      0.5     C
C      0.87287  0.87287      0.0     C
H      0.88391  0.06184  0.11609     H
H      0.88391  0.06184  0.88391     H
H      0.88391  0.11609  0.06184     H
H      0.88391  0.11609  0.93816     H
H      0.88391  0.38391  0.43816     H
H      0.88391  0.38391  0.56184     H
H      0.88391  0.43816  0.38391     H
H      0.88391  0.43816  0.61609     H
H      0.88391  0.56184  0.38391     H
H      0.88391  0.56184  0.61609     H
H      0.88391  0.61609  0.43816     H
H      0.88391  0.61609  0.56184     H
H      0.88391  0.88391  0.06184     H
H      0.88391  0.88391  0.93816     H
H      0.88391  0.93816  0.11609     H
H      0.88391  0.93816  0.88391     H
C      0.89032  0.03396  0.10968     C
C      0.89032  0.03396  0.89032     C
C      0.89032  0.10968  0.03396     C
C      0.89032  0.10968  0.96604     C
C      0.89032  0.39032  0.46604     C
C      0.89032  0.39032  0.53396     C
C      0.89032  0.46604  0.39032     C
C      0.89032  0.46604  0.60968     C
C      0.89032  0.53396  0.39032     C
C      0.89032  0.53396  0.60968     C
C      0.89032  0.60968  0.46604     C
C      0.89032  0.60968  0.53396     C
C      0.89032  0.89032  0.03396     C
C      0.89032  0.89032  0.96604     C
C      0.89032  0.96604  0.10968     C
C      0.89032  0.96604  0.89032     C
F      0.89222  0.22164  0.24726     F
F      0.89222  0.22164  0.75274     F
F      0.89222  0.24726  0.22164     F
F      0.89222  0.24726  0.77836     F
F      0.89222  0.25274  0.27836     F
F      0.89222  0.25274  0.72164     F
F      0.89222  0.27836  0.25274     F
F      0.89222  0.27836  0.74726     F
F      0.89222  0.72164  0.25274     F
F      0.89222  0.72164  0.74726     F
F      0.89222  0.74726  0.27836     F
F      0.89222  0.74726  0.72164     F
F      0.89222  0.75274  0.22164     F
F      0.89222  0.75274  0.77836     F
F      0.89222  0.77836  0.24726     F
F      0.89222  0.77836  0.75274     F
F      0.91051   0.1843  0.23979     F
F      0.91051   0.1843  0.76021     F
F      0.91051  0.23979   0.1843     F
F      0.91051  0.23979   0.8157     F
F      0.91051  0.26021   0.3157     F
F      0.91051  0.26021   0.6843     F
F      0.91051   0.3157  0.26021     F
F      0.91051   0.3157  0.73979     F
F      0.91051   0.6843  0.26021     F
F      0.91051   0.6843  0.73979     F
F      0.91051  0.73979   0.3157     F
F      0.91051  0.73979   0.6843     F
F      0.91051  0.76021   0.1843     F
F      0.91051  0.76021   0.8157     F
F      0.91051   0.8157  0.23979     F
F      0.91051   0.8157  0.76021     F
N      0.91854  0.02099  0.08146     N
N      0.91854  0.02099  0.91854     N
N      0.91854  0.08146  0.02099     N
N      0.91854  0.08146  0.97901     N
N      0.91854  0.41854  0.47901     N
N      0.91854  0.41854  0.52099     N
N      0.91854  0.47901  0.41854     N
N      0.91854  0.47901  0.58146     N
N      0.91854  0.52099  0.41854     N
N      0.91854  0.52099  0.58146     N
N      0.91854  0.58146  0.47901     N
N      0.91854  0.58146  0.52099     N
N      0.91854  0.91854  0.02099     N
N      0.91854  0.91854  0.97901     N
N      0.91854  0.97901  0.08146     N
N      0.91854  0.97901  0.91854     N
C      0.92168  0.21803  0.21803     C
C      0.92168  0.21803  0.78197     C
C      0.92168  0.28197  0.28197     C
C      0.92168  0.28197  0.71803     C
C      0.92168  0.71803  0.28197     C
C      0.92168  0.71803  0.71803     C
C      0.92168  0.78197  0.21803     C
C      0.92168  0.78197  0.78197     C
H      0.92361      0.0      0.0     H
H      0.92361      0.5      0.5     H
F       0.9262   0.1779  0.20777     F
F       0.9262   0.1779  0.79223     F
F       0.9262  0.20777   0.1779     F
F       0.9262  0.20777   0.8221     F
F       0.9262  0.29223   0.3221     F
F       0.9262  0.29223   0.6779     F
F       0.9262   0.3221  0.29223     F
F       0.9262   0.3221  0.70777     F
F       0.9262   0.6779  0.29223     F
F       0.9262   0.6779  0.70777     F
F       0.9262  0.70777   0.3221     F
F       0.9262  0.70777   0.6779     F
F       0.9262  0.79223   0.1779     F
F       0.9262  0.79223   0.8221     F
F       0.9262   0.8221  0.20777     F
F       0.9262   0.8221  0.79223     F
H      0.93816  0.11609  0.11609     H
H      0.93816  0.11609  0.88391     H
H      0.93816  0.38391  0.38391     H
H      0.93816  0.38391  0.61609     H
H      0.93816  0.61609  0.38391     H
H      0.93816  0.61609  0.61609     H
H      0.93816  0.88391  0.11609     H
H      0.93816  0.88391  0.88391     H
O      0.95293      0.0      0.0     O
O      0.95293      0.5      0.5     O
Ni     0.95924  0.04076  0.04076    Ni
Ni     0.95924  0.04076  0.95924    Ni
Ni     0.95924  0.45924  0.45924    Ni
Ni     0.95924  0.45924  0.54076    Ni
Ni     0.95924  0.54076  0.45924    Ni
Ni     0.95924  0.54076  0.54076    Ni
Ni     0.95924  0.95924  0.04076    Ni
Ni     0.95924  0.95924  0.95924    Ni
C      0.96285  0.23483  0.23483     C
C      0.96285  0.23483  0.76517     C
C      0.96285  0.26517  0.26517     C
C      0.96285  0.26517  0.73483     C
C      0.96285  0.73483  0.26517     C
C      0.96285  0.73483  0.73483     C
C      0.96285  0.76517  0.23483     C
C      0.96285  0.76517  0.76517     C
C      0.96604  0.10968  0.10968     C
C      0.96604  0.10968  0.89032     C
C      0.96604  0.39032  0.39032     C
C      0.96604  0.39032  0.60968     C
C      0.96604  0.60968  0.39032     C
C      0.96604  0.60968  0.60968     C
C      0.96604  0.89032  0.10968     C
C      0.96604  0.89032  0.89032     C
N      0.97901  0.08146  0.08146     N
N      0.97901  0.08146  0.91854     N
N      0.97901  0.41854  0.41854     N
N      0.97901  0.41854  0.58146     N
N      0.97901  0.58146  0.41854     N
N      0.97901  0.58146  0.58146     N
N      0.97901  0.91854  0.08146     N
N      0.97901  0.91854  0.91854     N
