data_I
_chemical_name_common  '/home/zhangsd/repos/MofS-CGCNN/ML/data/TSD/clean_cifs/BIBXOB_clean'
_cell_length_a 22.95390
_cell_length_b 22.95390
_cell_length_c 22.95390
_cell_angle_alpha 60.00000
_cell_angle_beta  60.00000
_cell_angle_gamma 60.00000
_space_group_name_H-M_alt      'P 1'


loop_
_space_group_symop_operation_xyz
  'x, y, z' 

loop_
_atom_site_label
_atom_site_fract_x
_atom_site_fract_y
_atom_site_fract_z
_atom_site_type_symbol
C          0.0      0.0  0.32008     C
C          0.0      0.0  0.43944     C
C          0.0      0.0  0.56056     C
C          0.0      0.0   0.6259     C
C          0.0      0.0  0.74528     C
C          0.0  0.25472      0.0     C
C          0.0  0.25472  0.74528     C
C          0.0  0.32008      0.0     C
C          0.0  0.32008  0.67992     C
C          0.0   0.3741      0.0     C
C          0.0   0.3741   0.6259     C
C          0.0  0.43944     -0.0     C
C          0.0  0.43944  0.56056     C
C          0.0  0.56056      0.0     C
C          0.0   0.6259      0.0     C
C          0.0  0.67992     -0.0     C
C          0.0  0.67992  0.32008     C
C          0.0  0.74528     -0.0     C
C          0.0      1.0   0.3741     C
C          0.0      1.0  0.67992     C
N      0.02095  0.02095  0.14261     N
N      0.02095  0.02095  0.81549     N
N      0.02095  0.14261  0.02095     N
N      0.02095  0.14261  0.81549     N
N      0.02095  0.81549  0.02095     N
N      0.02095  0.81549  0.14261     N
C      0.03389  0.03389  0.18601     C
C      0.03389  0.03389  0.74621     C
C      0.03389  0.18601  0.03389     C
C      0.03389  0.18601  0.74621     C
C      0.03389  0.74621  0.03389     C
C      0.03389  0.74621  0.18601     C
C      0.03708  0.03708  0.43264     C
C      0.03708  0.03708   0.4932     C
C      0.03708  0.43264  0.03708     C
C      0.03708  0.43264   0.4932     C
C      0.03708   0.4932  0.03708     C
C      0.03708   0.4932  0.43264     C
Ni      0.0424   0.0424   0.0424    Ni
Ni      0.0424   0.0424   0.8728    Ni
Ni      0.0424   0.8728   0.0424    Ni
H      0.06173  0.06173  0.17095     H
H      0.06173  0.06173  0.70559     H
H      0.06173  0.17095  0.06173     H
H      0.06173  0.17095  0.70559     H
H      0.06173  0.70559  0.06173     H
H      0.06173  0.70559  0.17095     H
H      0.06243  0.06243  0.38659     H
H      0.06243  0.06243  0.48855     H
H      0.06243  0.38659  0.06243     H
H      0.06243  0.38659  0.48855     H
H      0.06243  0.48855  0.06243     H
H      0.06243  0.48855  0.38659     H
O      0.06416  0.06416  0.93584     O
O      0.06416  0.93584  0.06416     O
O      0.06416  0.93584  0.93584     O
H      0.09342  0.09342  0.90658     H
H      0.09342  0.90658  0.09342     H
H      0.09342  0.90658  0.90658     H
Ni      0.1272   0.9576   0.9576    Ni
N      0.14261  0.02095  0.02095     N
N      0.14261  0.02095  0.81549     N
N      0.14261  0.81549  0.02095     N
H      0.17095  0.06173  0.06173     H
H      0.17095  0.06173  0.70559     H
H      0.17095  0.70559  0.06173     H
N      0.18451  0.85739  0.97905     N
N      0.18451  0.97905  0.85739     N
N      0.18451  0.97905  0.97905     N
C      0.18601  0.03389  0.03389     C
C      0.18601  0.03389  0.74621     C
C      0.18601  0.74621  0.03389     C
C      0.25379  0.81399  0.96611     C
C      0.25379  0.96611  0.81399     C
C      0.25379  0.96611  0.96611     C
C      0.25472     -0.0      0.0     C
C      0.25472     -0.0  0.74528     C
C      0.25472  0.74528      0.0     C
H      0.29441  0.82905  0.93827     H
H      0.29441  0.93827  0.82905     H
H      0.29441  0.93827  0.93827     H
C      0.32008      0.0      0.0     C
C      0.32008      0.0  0.67992     C
C      0.32008  0.67992      0.0     C
C       0.3741     -0.0      0.0     C
C       0.3741     -0.0   0.6259     C
C       0.3741   0.6259      0.0     C
H      0.38659  0.06243  0.06243     H
H      0.38659  0.06243  0.48855     H
H      0.38659  0.48855  0.06243     H
C      0.43264  0.03708  0.03708     C
C      0.43264  0.03708   0.4932     C
C      0.43264   0.4932  0.03708     C
C      0.43944      0.0     -0.0     C
C      0.43944      0.0  0.56056     C
C      0.43944  0.56056      0.0     C
H      0.48855  0.06243  0.06243     H
H      0.48855  0.06243  0.38659     H
H      0.48855  0.38659  0.06243     H
C       0.4932  0.03708  0.03708     C
C       0.4932  0.03708  0.43264     C
C       0.4932  0.43264  0.03708     C
C       0.5068  0.56736  0.96292     C
C       0.5068  0.96292  0.56736     C
C       0.5068  0.96292  0.96292     C
H      0.51145  0.61341  0.93757     H
H      0.51145  0.93757  0.61341     H
H      0.51145  0.93757  0.93757     H
C      0.56056      0.0      0.0     C
C      0.56056      0.0  0.43944     C
C      0.56056  0.43944     -0.0     C
C      0.56736   0.5068  0.96292     C
C      0.56736  0.96292   0.5068     C
C      0.56736  0.96292  0.96292     C
H      0.61341  0.51145  0.93757     H
H      0.61341  0.93757  0.51145     H
H      0.61341  0.93757  0.93757     H
C       0.6259      0.0      0.0     C
C       0.6259      0.0   0.3741     C
C       0.6259   0.3741      0.0     C
C      0.67992     -0.0      0.0     C
C      0.67992     -0.0  0.32008     C
C      0.67992  0.32008      0.0     C
H      0.70559  0.06173  0.06173     H
H      0.70559  0.06173  0.17095     H
H      0.70559  0.17095  0.06173     H
C      0.74528      0.0      0.0     C
C      0.74528      0.0  0.25472     C
C      0.74528  0.25472      0.0     C
C      0.74621  0.03389  0.03389     C
C      0.74621  0.03389  0.18601     C
C      0.74621  0.18601  0.03389     C
C      0.81399  0.25379  0.96611     C
C      0.81399  0.96611  0.25379     C
C      0.81399  0.96611  0.96611     C
N      0.81549  0.02095  0.02095     N
N      0.81549  0.02095  0.14261     N
N      0.81549  0.14261  0.02095     N
H      0.82905  0.29441  0.93827     H
H      0.82905  0.93827  0.29441     H
H      0.82905  0.93827  0.93827     H
N      0.85739  0.18451  0.97905     N
N      0.85739  0.97905  0.18451     N
N      0.85739  0.97905  0.97905     N
Ni      0.8728   0.0424   0.0424    Ni
H      0.90658  0.09342  0.09342     H
H      0.90658  0.09342  0.90658     H
H      0.90658  0.90658  0.09342     H
O      0.93584  0.06416  0.06416     O
O      0.93584  0.06416  0.93584     O
O      0.93584  0.93584  0.06416     O
H      0.93757  0.51145  0.61341     H
H      0.93757  0.51145  0.93757     H
H      0.93757  0.61341  0.51145     H
H      0.93757  0.61341  0.93757     H
H      0.93757  0.93757  0.51145     H
H      0.93757  0.93757  0.61341     H
H      0.93827  0.29441  0.82905     H
H      0.93827  0.29441  0.93827     H
H      0.93827  0.82905  0.29441     H
H      0.93827  0.82905  0.93827     H
H      0.93827  0.93827  0.29441     H
H      0.93827  0.93827  0.82905     H
Ni      0.9576   0.1272   0.9576    Ni
Ni      0.9576   0.9576   0.1272    Ni
Ni      0.9576   0.9576   0.9576    Ni
C      0.96292   0.5068  0.56736     C
C      0.96292   0.5068  0.96292     C
C      0.96292  0.56736   0.5068     C
C      0.96292  0.56736  0.96292     C
C      0.96292  0.96292   0.5068     C
C      0.96292  0.96292  0.56736     C
C      0.96611  0.25379  0.81399     C
C      0.96611  0.25379  0.96611     C
C      0.96611  0.81399  0.25379     C
C      0.96611  0.81399  0.96611     C
C      0.96611  0.96611  0.25379     C
C      0.96611  0.96611  0.81399     C
N      0.97905  0.18451  0.85739     N
N      0.97905  0.18451  0.97905     N
N      0.97905  0.85739  0.18451     N
N      0.97905  0.85739  0.97905     N
N      0.97905  0.97905  0.18451     N
N      0.97905  0.97905  0.85739     N
C          1.0      0.0  0.25472     C
C          1.0  0.56056  0.43944     C
C          1.0   0.6259   0.3741     C
C          1.0  0.74528  0.25472     C
