data_I
_chemical_name_common  '/home/zhangsd/repos/MofS-CGCNN/ML/data/TSD/clean_cifs/BIXXIR_clean'
_cell_length_a 13.68500
_cell_length_b 13.14400
_cell_length_c 22.64900
_cell_angle_alpha 90.00000
_cell_angle_beta  100.55100
_cell_angle_gamma 90.00000
_space_group_name_H-M_alt      'P 1'


loop_
_space_group_symop_operation_xyz
  'x, y, z' 

loop_
_atom_site_label
_atom_site_fract_x
_atom_site_fract_y
_atom_site_fract_z
_atom_site_type_symbol
C        0.012    0.721   0.2849     C
C        0.012    0.779   0.7849     C
N        0.015   0.1318   0.2344     N
N        0.015   0.3682   0.7344     N
H       0.0265   0.2338   0.6979     H
H       0.0265   0.2662   0.1979     H
C        0.034    0.016   0.7124     C
C        0.034    0.484   0.2124     C
C        0.051   0.5855   0.2372     C
C        0.051   0.9145   0.7372     C
O       0.0538   0.5454   0.7974     O
O       0.0538   0.9546   0.2974     O
H       0.0701   0.1043   0.2296     H
H       0.0701   0.3957   0.7296     H
O       0.1064   0.0661   0.6936     O
O       0.1064   0.4339   0.1936     O
N       0.1085   0.7392   0.2762     N
N       0.1085   0.7608   0.7762     N
C        0.134    0.655   0.2484     C
C        0.134    0.845   0.7484     C
O       0.2096   0.2332   0.2097     O
O       0.2096   0.2668   0.7097     O
O       0.2172    0.081   0.2495     O
O       0.2172    0.419   0.7495     O
La     0.21914  0.59851  0.77798    La
La     0.21914  0.90149  0.27798    La
C        0.226    0.658   0.2279     C
C        0.226    0.842   0.7279     C
W      0.23809  0.01103  0.97599     W
W      0.23809  0.48897  0.47599     W
O        0.256    0.625   0.4425     O
O        0.256    0.875   0.9425     O
O        0.258    0.067   0.8993     O
O        0.258    0.433   0.3993     O
O       0.2603    0.583   0.2031     O
O       0.2603    0.917   0.7031     O
C        0.264    0.162    0.234     C
C        0.264    0.338    0.734     C
O        0.269    0.539   0.5563     O
O        0.269    0.961   0.0563     O
O         0.27    0.142   0.0137     O
O         0.27    0.358   0.5137     O
La     0.27569  0.09833  0.67655    La
La     0.27569  0.40167  0.17655    La
O       0.2776   0.7414   0.2357     O
O       0.2776   0.7586   0.7357     O
O       0.2932   0.7196   0.8726     O
O       0.2932   0.7804   0.3726     O
O       0.3033   0.0871   0.7897     O
O       0.3033   0.4129   0.2897     O
O       0.3128   0.5645   0.6776     O
O       0.3128   0.9355   0.1776     O
O        0.333    0.205   0.5916     O
O        0.333    0.295   0.0916     O
W      0.35508  0.68963  0.41363     W
W      0.35508  0.81037  0.91363     W
O       0.3562   0.5791   0.3563     O
O       0.3562   0.9209   0.8563     O
W      0.36624   0.0576  0.85741     W
W      0.36624   0.4424  0.35741     W
O        0.368    0.097   0.1201     O
O        0.368    0.403   0.6201     O
C       0.3688   0.1706   0.2459     C
C       0.3688   0.3294   0.7459     C
W       0.3721  0.54721   0.6207     W
W       0.3721  0.95279   0.1207     W
W      0.38202  0.19937  0.06149     W
W      0.38202  0.30063  0.56149     W
O       0.3912   0.5473   0.8071     O
O       0.3912   0.9527   0.3071     O
O        0.392    0.745   0.9889     O
O        0.392    0.755   0.4889     O
O        0.397    0.683   0.5959     O
O        0.397    0.817   0.0959     O
O        0.402    0.188   0.8913     O
O        0.402    0.312   0.3913     O
O        0.403    0.033   0.0273     O
O        0.403    0.467   0.5273     O
O        0.403    0.527   0.4564     O
O        0.403    0.973   0.9564     O
N       0.4053   0.2374   0.7261     N
N       0.4053   0.2626   0.2261     N
H       0.4091   0.6435   0.2234     H
H       0.4091   0.8565   0.7234     H
O        0.412    0.236   0.4921     O
O        0.412    0.264   0.9921     O
O       0.4477   0.0228   0.6883     O
C       0.4477   0.1071   0.2702     C
C       0.4477   0.3929   0.7702     C
O       0.4477   0.4772   0.1883     O
H       0.4534   0.7026   0.7677     H
H       0.4534   0.7974   0.2677     H
C       0.4664   0.0037   0.2997     C
C       0.4664   0.4963   0.7997     C
N       0.4697   0.6625   0.2349     N
N       0.4697   0.8375   0.7349     N
O        0.483   0.7223   0.3977     O
O        0.483   0.7777   0.8977     O
W      0.49071  0.74693  0.55856     W
W      0.49071  0.75307  0.05856     W
O        0.491    0.039   0.8407     O
O        0.491    0.461   0.3407     O
O        0.493    0.573   0.5597     O
O        0.493    0.927   0.0597     O
O        0.498    0.115   0.0159     O
O        0.498    0.385   0.5159     O
C        0.498    0.748     0.26     C
C        0.498    0.752     0.76     C
Si         0.5      0.0      0.0    Si
Si         0.5      0.5      0.5    Si
C        0.502    0.248     0.24     C
C        0.502    0.252     0.74     C
O        0.502    0.615   0.4841     O
O        0.502    0.885   0.9841     O
O        0.507    0.073   0.9403     O
O        0.507    0.427   0.4403     O
O        0.509    0.539   0.6593     O
O        0.509    0.961   0.1593     O
W      0.50929  0.24693  0.94144     W
W      0.50929  0.25307  0.44144     W
O        0.517   0.2223   0.1023     O
O        0.517   0.2777   0.6023     O
N       0.5303   0.1625   0.2651     N
N       0.5303   0.3375   0.7651     N
C       0.5336   0.5037   0.2003     C
C       0.5336   0.9963   0.7003     C
H       0.5466   0.2026   0.7323     H
H       0.5466   0.2974   0.2323     H
O       0.5523   0.5228   0.8117     O
C       0.5523   0.6071   0.2298     C
C       0.5523   0.8929   0.7298     C
O       0.5523   0.9772   0.3117     O
O        0.588    0.736   0.0079     O
O        0.588    0.764   0.5079     O
H       0.5909   0.1435   0.2766     H
H       0.5909   0.3565   0.7766     H
N       0.5947   0.7374   0.7739     N
N       0.5947   0.7626   0.2739     N
O        0.597    0.027   0.0436     O
O        0.597    0.473   0.5436     O
O        0.597    0.533   0.4727     O
O        0.597    0.967   0.9727     O
O        0.598    0.688   0.6087     O
O        0.598    0.812   0.1087     O
O        0.603    0.183   0.9041     O
O        0.603    0.317   0.4041     O
O        0.608    0.245   0.5111     O
O        0.608    0.255   0.0111     O
O       0.6088   0.0473   0.6929     O
O       0.6088   0.4527   0.1929     O
W      0.61798  0.69937  0.43851     W
W      0.61798  0.80063  0.93851     W
W       0.6279  0.04721   0.8793     W
W       0.6279  0.45279   0.3793     W
C       0.6312   0.6706   0.2541     C
C       0.6312   0.8294   0.7541     C
O        0.632    0.597   0.3799     O
O        0.632    0.903   0.8799     O
W      0.63376   0.5576  0.64259     W
W      0.63376   0.9424  0.14259     W
O       0.6438   0.0791   0.1437     O
O       0.6438   0.4209   0.6437     O
W      0.64492  0.18963  0.08637     W
W      0.64492  0.31037  0.58637     W
O        0.667    0.705   0.9084     O
O        0.667    0.795   0.4084     O
O       0.6872   0.0645   0.8224     O
O       0.6872   0.4355   0.3224     O
O       0.6967   0.5871   0.7103     O
O       0.6967   0.9129   0.2103     O
O       0.7068   0.2196   0.6274     O
O       0.7068   0.2804   0.1274     O
O       0.7224   0.2414   0.2643     O
O       0.7224   0.2586   0.7643     O
La     0.72431  0.59833  0.82345    La
La     0.72431  0.90167  0.32345    La
O         0.73    0.642   0.4863     O
O         0.73    0.858   0.9863     O
O        0.731    0.039   0.9437     O
O        0.731    0.461   0.4437     O
C        0.736    0.662    0.266     C
C        0.736    0.838    0.766     C
O       0.7397    0.083   0.2969     O
O       0.7397    0.417   0.7969     O
O        0.742    0.567   0.6007     O
O        0.742    0.933   0.1007     O
O        0.744    0.125   0.0575     O
O        0.744    0.375   0.5575     O
W      0.76191  0.51103  0.52401     W
W      0.76191  0.98897  0.02401     W
C        0.774    0.158   0.2721     C
C        0.774    0.342   0.7721     C
La     0.78086  0.09851  0.72202    La
La     0.78086  0.40149  0.22202    La
O       0.7828    0.581   0.2505     O
O       0.7828    0.919   0.7505     O
O       0.7904   0.7332   0.2903     O
O       0.7904   0.7668   0.7903     O
C        0.866    0.155   0.2516     C
C        0.866    0.345   0.7516     C
N       0.8915   0.2392   0.2238     N
N       0.8915   0.2608   0.7238     N
O       0.8936   0.5661   0.8064     O
O       0.8936   0.9339   0.3064     O
H       0.9299   0.6043   0.2704     H
H       0.9299   0.8957   0.7704     H
O       0.9462   0.0454   0.7026     O
O       0.9462   0.4546   0.2026     O
C        0.949   0.0855   0.2628     C
C        0.949   0.4145   0.7628     C
C        0.966    0.516   0.7876     C
C        0.966    0.984   0.2876     C
H       0.9735   0.7338   0.8021     H
H       0.9735   0.7662   0.3021     H
N        0.985   0.6318   0.2656     N
N        0.985   0.8682   0.7656     N
C        0.988    0.221   0.2151     C
C        0.988    0.279   0.7151     C
