data_I
_chemical_name_common  '/home/zhangsd/repos/MofS-CGCNN/ML/data/TSD/clean_cifs/BOJYIK_clean'
_cell_length_a  8.57900
_cell_length_b 10.18400
_cell_length_c 11.10700
_cell_angle_alpha 64.78000
_cell_angle_beta  71.73000
_cell_angle_gamma 79.30000
_space_group_name_H-M_alt      'P 1'


loop_
_space_group_symop_operation_xyz
  'x, y, z' 

loop_
_atom_site_label
_atom_site_fract_x
_atom_site_fract_y
_atom_site_fract_z
_atom_site_type_symbol
C       0.0076   0.5171   0.8675     C
H       0.0126   0.5284   0.7788     H
O       0.0309   0.8683   0.9776     O
C       0.0315   0.6157    0.022     C
C       0.0391   0.6328   0.8901     C
O       0.0584     0.98   0.6722     O
C       0.0647   0.7383   0.0504     C
H       0.0652   0.7214   0.8165     H
O       0.1293   0.7074   0.1466     O
Tb       0.132   0.9386  0.15515    Tb
O       0.1568   0.1208    0.733     O
C        0.176   0.0416   0.6667     C
O       0.1768   0.7631     0.37     O
H       0.2264   0.5613   0.5818     H
H       0.2809   0.8837   0.5157     H
C        0.325   0.7319   0.3194     C
C       0.3367   0.5371   0.5487     C
C        0.344   0.0193   0.5811     C
H       0.3641   0.3798   0.7294     H
C       0.3682   0.9304   0.5095     C
O       0.3967   0.8017   0.1938     O
C       0.4168   0.6113   0.4114     C
C       0.4189   0.4275   0.6372     C
H       0.4586   0.1467     0.62     H
C       0.4752   0.0878   0.5716     C
C       0.5248   0.9122   0.4284     C
H       0.5414   0.8533     0.38     H
C       0.5811   0.5725   0.3628     C
C       0.5832   0.3887   0.5886     C
O       0.6033   0.1983   0.8062     O
C       0.6318   0.0696   0.4905     C
H       0.6359   0.6202   0.2706     H
C        0.656   0.9807   0.4189     C
C       0.6633   0.4629   0.4513     C
C        0.675   0.2681   0.6806     C
H       0.7191   0.1163   0.4843     H
H       0.7736   0.4387   0.4182     H
O       0.8232   0.2369     0.63     O
C        0.824   0.9584   0.3333     C
O       0.8432   0.8792    0.267     O
Tb     0.86801   0.0614  0.84484    Tb
O       0.8707   0.2926   0.8534     O
H       0.9348   0.2786   0.1835     H
C       0.9353   0.2617   0.9496     C
O       0.9416     0.02   0.3278     O
C       0.9609   0.3672   0.1099     C
C       0.9685   0.3843    0.978     C
O       0.9691   0.1317   0.0224     O
H       0.9874   0.4716   0.2212     H
C       0.9924   0.4829   0.1325     C
