data_I
_chemical_name_common  '/home/zhangsd/repos/MofS-CGCNN/ML/data/TSD/clean_cifs/BOMCOX_clean'
_cell_length_a 12.34400
_cell_length_b 26.32300
_cell_length_c 15.66300
_cell_angle_alpha 90.00000
_cell_angle_beta  97.56000
_cell_angle_gamma 90.00000
_space_group_name_H-M_alt      'P 1'


loop_
_space_group_symop_operation_xyz
  'x, y, z' 

loop_
_atom_site_label
_atom_site_fract_x
_atom_site_fract_y
_atom_site_fract_z
_atom_site_type_symbol
C       0.0065   0.0893   0.9614     C
C       0.0065   0.4107   0.4614     C
C       0.0101   0.6551   0.6787     C
C       0.0101   0.8449   0.1787     C
H       0.0108   0.0675   0.0101     H
H       0.0108   0.4325   0.5101     H
H       0.0128   0.7272   0.3534     H
H       0.0128   0.7728   0.8534     H
C       0.0141    0.728   0.0475     C
C       0.0141    0.772   0.5475     C
C       0.0157   0.2429   0.0997     C
C       0.0157   0.2571   0.5997     C
H       0.0163   0.6781   0.7258     H
H       0.0163   0.8219   0.2258     H
H       0.0291   0.5093   0.6788     H
H       0.0291   0.9907   0.1788     H
H       0.0428   0.0737   0.2308     H
H       0.0428   0.4263   0.7308     H
H       0.0454     0.71   0.1799     H
H       0.0454     0.79   0.6799     H
C       0.0508    0.748   0.4777     C
C       0.0508    0.752   0.9777     C
C       0.0773   0.7237   0.1329     C
C       0.0773   0.7763   0.6329     C
C       0.0827   0.5878      0.6     C
C       0.0827   0.9122      0.1     C
C       0.0839   0.1554   0.8825     C
C       0.0839   0.3446   0.3825     C
C       0.0895   0.0113   0.1694     C
C       0.0895   0.4887   0.6694     C
C       0.0906   0.1227   0.9524     C
C       0.0906   0.3773   0.4524     C
C       0.0935   0.2095   0.4669     C
C       0.0935   0.2905   0.9669     C
C       0.0943   0.6208   0.6701     C
C       0.0943   0.8792   0.1701     C
C       0.0983   0.0607   0.2002     C
C       0.0983   0.4393   0.7002     C
O       0.1105  0.16568   0.2442     O
O       0.1105  0.33432   0.7442     O
N       0.1196  0.24055   0.6108     N
N       0.1196  0.25945   0.1108     N
H       0.1231   0.7349   0.4834     H
H       0.1231   0.7651   0.9834     H
H       0.1235   0.1921   0.4223     H
H       0.1235   0.3079   0.9223     H
H       0.1535   0.1233   0.9944     H
H       0.1535   0.3767   0.4944     H
O       0.1546  0.22189   0.8071     O
O       0.1546  0.27811   0.3071     O
C        0.155   0.2167   0.5453     C
C        0.155   0.2833   0.0453     C
H       0.1581     0.62   0.7112     H
H       0.1581     0.88   0.2112     H
C       0.1704   0.5071   0.6247     C
C       0.1704   0.9929   0.1247     C
O       0.1705    0.556   0.5899     O
O       0.1705    0.944   0.0899     O
C       0.1725   0.1914   0.8701     C
C       0.1725   0.3086   0.3701     C
N       0.1744   0.7383   0.1426     N
N       0.1744   0.7617   0.6426     N
C       0.1858   0.0918   0.1878     C
C       0.1858   0.4082   0.6878     C
C       0.1876   0.1461   0.2136     C
C       0.1876   0.3539   0.7136     C
H       0.2016   0.0261   0.4357     H
H       0.2016   0.4739   0.9357     H
N        0.221   0.7364   0.2289     N
N        0.221   0.7636   0.7289     N
Zn     0.22368  0.24099   0.2212    Zn
Zn     0.22368  0.25901   0.7212    Zn
H       0.2274   0.2037   0.5533     H
H       0.2274   0.2963   0.0533     H
H       0.2319   0.1138   0.4304     H
H       0.2319   0.3862   0.9304     H
O       0.2599  0.19019   0.9222     O
O       0.2599  0.30981   0.4222     O
C       0.2611   0.0219    0.112     C
C       0.2611   0.4781    0.612     C
C       0.2658    0.039   0.4159     C
C       0.2658    0.461   0.9159     C
C        0.267   0.0715   0.1437     C
C        0.267   0.4285   0.6437     C
O       0.2721  0.17233    0.199     O
O       0.2721  0.32767    0.699     O
H       0.2753   0.7415   0.8894     H
H       0.2753   0.7585   0.3894     H
C        0.284    0.091   0.4122     C
C        0.284    0.409   0.9122     C
H       0.3173   0.0084   0.0826     H
H       0.3173   0.4916   0.5826     H
C       0.3213   0.7212   0.2379     C
C       0.3213   0.7788   0.7379     C
O       0.3218  0.54478   0.8992     O
O       0.3218  0.95522   0.3992     O
O       0.3223  0.19478   0.4017     O
O       0.3223  0.30522   0.9017     O
H       0.3225   0.5672   0.7384     H
H       0.3225   0.9328   0.2384     H
H       0.3279    0.092   0.1351     H
H       0.3279    0.408   0.6351     H
C       0.3438   0.0062     0.39     C
C       0.3438   0.4938     0.89     C
O       0.3439  0.21119   0.6974     O
O       0.3439  0.28881   0.1974     O
C       0.3468   0.7445   0.3948     C
C       0.3468   0.7555   0.8948     C
H       0.3536   0.7099   0.1895     H
H       0.3536   0.7901   0.6895     H
C       0.3726   0.5874   0.7751     C
C       0.3726   0.9126   0.2751     C
C       0.3766   0.1101   0.3826     C
C       0.3766   0.3899   0.8826     C
H       0.3792   0.1864    0.077     H
H       0.3792   0.3136    0.577     H
Zn     0.38279  0.23676  0.90834    Zn
Zn     0.38279  0.26324  0.40834    Zn
C       0.3857   0.7218   0.3255     C
C       0.3857   0.7782   0.8255     C
C       0.3867   0.5801   0.8637     C
C       0.3867   0.9199   0.3637     C
H       0.3875   0.7367   0.0176     H
H       0.3875   0.7633   0.5176     H
C          0.4   0.1654   0.3847     C
C          0.4   0.3346   0.8847     C
C       0.4132   0.7464   0.4706     C
C       0.4132   0.7536   0.9706     C
H       0.4229   0.1622   0.5805     H
H       0.4229   0.3378   0.0805     H
H       0.4234   0.6311   0.6811     H
H       0.4234   0.8689   0.1811     H
C       0.4247   0.1922   0.7439     C
C       0.4247   0.3078   0.2439     C
C       0.4335   0.6249   0.7413     C
C       0.4335   0.8751   0.2413     C
C       0.4358   0.0244   0.3593     C
C       0.4358   0.4756   0.8593     C
C       0.4498   0.2015   0.0844     C
C       0.4498   0.2985   0.5844     C
C       0.4512   0.0765   0.3571     C
C       0.4512   0.4235   0.8571     C
O       0.4543   0.2025   0.8219     O
O       0.4543   0.2975   0.3219     O
C       0.4599   0.6074   0.9169     C
C       0.4599   0.8926   0.4169     C
H       0.4677   0.6018   0.9773     H
H       0.4677   0.8982   0.4773     H
C       0.4765   0.1438   0.6173     C
C       0.4765   0.3562   0.1173     C
H       0.4847   0.5894   0.1627     H
H       0.4847   0.9106   0.6627     H
N       0.4851   0.2254   0.0167     N
N       0.4851   0.2746   0.5167     N
H       0.4866   0.1801   0.2093     H
H       0.4866   0.3199   0.7093     H
H       0.4876   0.0018   0.3402     H
H       0.4876   0.4982   0.8402     H
C       0.4879   0.6981   0.3367     C
C       0.4879   0.8019   0.8367     C
C       0.4913   0.1534   0.7057     C
C       0.4913   0.3466   0.2057     C
O        0.492  0.18171   0.3743     O
O        0.492  0.31829   0.8743     O
O        0.508  0.68171   0.1257     O
O        0.508  0.81829   0.6257     O
C       0.5087   0.6534   0.7943     C
C       0.5087   0.8466   0.2943     C
C       0.5121   0.1981   0.1633     C
C       0.5121   0.3019   0.6633     C
H       0.5124   0.5018   0.1598     H
H       0.5124   0.9982   0.6598     H
H       0.5134   0.6801   0.2907     H
H       0.5134   0.8199   0.7907     H
N       0.5149   0.7254   0.4833     N
N       0.5149   0.7746   0.9833     N
H       0.5153   0.0894   0.3373     H
H       0.5153   0.4106   0.8373     H
C       0.5235   0.6438   0.8827     C
C       0.5235   0.8562   0.3827     C
H       0.5323   0.1018   0.5227     H
H       0.5323   0.3982   0.0227     H
C       0.5401   0.1074   0.5831     C
C       0.5401   0.3926   0.0831     C
O       0.5457   0.7025   0.6781     O
O       0.5457   0.7975   0.1781     O
C       0.5488   0.5765   0.1429     C
C       0.5488   0.9235   0.6429     C
C       0.5502   0.7015   0.4156     C
C       0.5502   0.7985   0.9156     C
C       0.5642   0.5244   0.1407     C
C       0.5642   0.9756   0.6407     C
C       0.5665   0.1249   0.7587     C
C       0.5665   0.3751   0.2587     C
C       0.5753   0.6922   0.7561     C
C       0.5753   0.8078   0.2561     C
H       0.5766   0.1311   0.8189     H
H       0.5766   0.3689   0.3189     H
H       0.5771   0.6622   0.9195     H
H       0.5771   0.8378   0.4195     H
C       0.5868   0.2464   0.0294     C
C       0.5868   0.2536   0.5294     C
C          0.6   0.6654   0.1153     C
C          0.6   0.8346   0.6153     C
H       0.6125   0.2367   0.4824     H
H       0.6125   0.2633   0.9824     H
C       0.6133   0.0801   0.6363     C
C       0.6133   0.4199   0.1363     C
C       0.6143   0.2218   0.1745     C
C       0.6143   0.2782   0.6745     C
Zn     0.61721  0.73676  0.59166    Zn
Zn     0.61721  0.76324  0.09166    Zn
H       0.6208   0.6864    0.423     H
H       0.6208   0.8136    0.923     H
C       0.6234   0.6101   0.1174     C
C       0.6234   0.8899   0.6174     C
C       0.6274   0.0874   0.7249     C
C       0.6274   0.4126   0.2249     C
H       0.6464   0.2099   0.3105     H
H       0.6464   0.2901   0.8105     H
C       0.6532   0.2445   0.1052     C
C       0.6532   0.2555   0.6052     C
O       0.6561  0.71119   0.8026     O
O       0.6561  0.78881   0.3026     O
C       0.6562   0.5062     0.11     C
C       0.6562   0.9938     0.61     C
H       0.6721    0.592   0.3649     H
H       0.6721    0.908   0.8649     H
H       0.6775   0.0672   0.7616     H
H       0.6775   0.4328   0.2616     H
O       0.6777  0.69478   0.0983     O
O       0.6777  0.80522   0.5983     O
O       0.6782  0.04478   0.6008     O
O       0.6782  0.45522   0.1008     O
C       0.6787   0.2212   0.2621     C
C       0.6787   0.2788   0.7621     C
H       0.6827   0.5084   0.4174     H
H       0.6827   0.9916   0.9174     H
C        0.716    0.591   0.0878     C
C        0.716    0.909   0.5878     C
H       0.7247   0.2415   0.6106     H
H       0.7247   0.2585   0.1106     H
O       0.7279  0.67233    0.301     O
O       0.7279  0.82767    0.801     O
C        0.733   0.5715   0.3563     C
C        0.733   0.9285   0.8563     C
C       0.7342    0.539   0.0841     C
C       0.7342    0.961   0.5841     C
C       0.7389   0.5219    0.388     C
C       0.7389   0.9781    0.888     C
O       0.7401  0.69019   0.5778     O
O       0.7401  0.80981   0.0778     O
H       0.7681   0.6138   0.0696     H
H       0.7681   0.8862   0.5696     H
H       0.7726   0.7037   0.9467     H
H       0.7726   0.7963   0.4467     H
Zn     0.77632  0.74099   0.2788    Zn
Zn     0.77632  0.75901   0.7788    Zn
N        0.779   0.2364   0.2711     N
N        0.779   0.2636   0.7711     N
H       0.7984   0.5261   0.0643     H
H       0.7984   0.9739   0.5643     H
C       0.8124   0.6461   0.2864     C
C       0.8124   0.8539   0.7864     C
C       0.8142   0.5918   0.3122     C
C       0.8142   0.9082   0.8122     C
N       0.8256   0.2383   0.3574     N
N       0.8256   0.2617   0.8574     N
C       0.8275   0.6914   0.6299     C
C       0.8275   0.8086   0.1299     C
O       0.8295    0.056   0.9101     O
O       0.8295    0.444   0.4101     O
C       0.8296   0.0071   0.8753     C
C       0.8296   0.4929   0.3753     C
H       0.8419     0.12   0.7888     H
H       0.8419     0.38   0.2888     H
C        0.845   0.7167   0.9547     C
C        0.845   0.7833   0.4547     C
O       0.8454  0.72189   0.6929     O
O       0.8454  0.77811   0.1929     O
H       0.8465   0.6233   0.5056     H
H       0.8465   0.8767   0.0056     H
H       0.8765   0.6921   0.0777     H
H       0.8765   0.8079   0.5777     H
H       0.8769   0.2349   0.0166     H
H       0.8769   0.2651   0.5166     H
N       0.8804  0.74055   0.8892     N
N       0.8804  0.75945   0.3892     N
O       0.8895  0.66568   0.2558     O
O       0.8895  0.83432   0.7558     O
C       0.9017   0.5607   0.2998     C
C       0.9017   0.9393   0.7998     C
C       0.9057   0.1208   0.8299     C
C       0.9057   0.3792   0.3299     C
C       0.9065   0.7095   0.0331     C
C       0.9065   0.7905   0.5331     C
C       0.9094   0.6227   0.5476     C
C       0.9094   0.8773   0.0476     C
C       0.9105   0.5113   0.3306     C
C       0.9105   0.9887   0.8306     C
C       0.9161   0.6554   0.6175     C
C       0.9161   0.8446   0.1175     C
C       0.9173   0.0878      0.9     C
C       0.9173   0.4122      0.4     C
C       0.9227   0.2237   0.3671     C
C       0.9227   0.2763   0.8671     C
C       0.9492    0.248   0.0223     C
C       0.9492    0.252   0.5223     C
H       0.9546     0.21   0.3201     H
H       0.9546     0.29   0.8201     H
H       0.9572   0.5737   0.2692     H
H       0.9572   0.9263   0.7692     H
H       0.9709   0.0093   0.8212     H
H       0.9709   0.4907   0.3212     H
H       0.9837   0.1781   0.7742     H
H       0.9837   0.3219   0.2742     H
C       0.9843   0.7429   0.4003     C
C       0.9843   0.7571   0.9003     C
C       0.9859    0.228   0.4525     C
C       0.9859    0.272   0.9525     C
H       0.9872   0.2272   0.1466     H
H       0.9872   0.2728   0.6466     H
H       0.9892   0.5675   0.4899     H
H       0.9892   0.9325   0.9899     H
C       0.9899   0.1551   0.8213     C
C       0.9899   0.3449   0.3213     C
C       0.9935   0.5893   0.5386     C
C       0.9935   0.9107   0.0386     C
