data_I
_chemical_name_common  '/home/zhangsd/repos/MofS-CGCNN/ML/data/TSD/clean_cifs/BOPHIZ_clean'
_cell_length_a 11.21950
_cell_length_b 15.81700
_cell_length_c 18.09890
_cell_angle_alpha 102.09900
_cell_angle_beta  96.38500
_cell_angle_gamma 98.94700
_space_group_name_H-M_alt      'P 1'


loop_
_space_group_symop_operation_xyz
  'x, y, z' 

loop_
_atom_site_label
_atom_site_fract_x
_atom_site_fract_y
_atom_site_fract_z
_atom_site_type_symbol
C        0.007    0.544   0.5781     C
H       0.0191   0.2434    0.506     H
C        0.024   0.5954   0.6581     C
H       0.0279   0.6165   0.2086     H
C       0.0411   0.4775   0.0664     C
C       0.0518   0.9304   0.4636     C
C       0.0537   0.4086    0.795     C
C       0.0567   0.4767   0.9341     C
C       0.0574   0.3312    0.232     C
C       0.0595   0.6951   0.8087     C
O       0.0666   0.8111   0.3613     O
C       0.0681   0.0873   0.5218     C
H       0.0693   0.4627   0.1114     H
H         0.07   0.3607   0.6855     H
H       0.0716   0.7283   0.8587     H
C        0.075    0.536   0.4521     C
C       0.0764    0.379   0.3085     C
C       0.0793   0.5765   0.5283     C
C       0.0968   0.4539   0.0036     C
C        0.102   0.2486   0.5224     C
C       0.1118   0.3963   0.7315     C
C       0.1149   0.0162   0.4848     C
C       0.1166    0.863   0.4199     C
C       0.1179    0.459   0.8646     C
H       0.1343   0.6291   0.5478     H
C       0.1396   0.6225   0.7011     C
C       0.1462   0.1769   0.5375     C
H       0.1481   0.3762   0.5189     H
C       0.1541   0.5865   0.4062     C
H       0.1542   0.3935   0.3367     H
O       0.1554   0.2636   0.1309     O
C       0.1573   0.6723   0.7752     C
C       0.1681   0.3166   0.1941     C
H       0.1681   0.6634   0.0906     H
C       0.1794    0.329   0.5313     C
O       0.1817   0.6652   0.4321     O
H       0.1871   0.6636   0.9655     H
O       0.1886   0.5502    0.349     O
H        0.194   0.0271   0.4736     H
C       0.1957   0.3998   0.0078     C
O       0.1964   0.3364   0.9551     O
H       0.2067   0.6066   0.6795     H
C       0.2195   0.7092   0.0788     C
O       0.2265   0.8651   0.4498     O
C       0.2302   0.7102   0.0042     C
C       0.2308    0.436   0.7357     C
H       0.2357   0.6904   0.8025     H
C       0.2363   0.4999   0.8677     C
O       0.2397   0.7063   0.2353     O
Cd      0.2691  0.74997  0.36416    Cd
H       0.2697    0.426   0.6928     H
O         0.27   0.4221   0.0681     O
C       0.2709   0.1873   0.5638     C
O        0.271   0.3632   0.2264     O
H        0.279   0.5343    0.914     H
C       0.2825   0.7777   0.2195     C
C       0.2874   0.7783   0.1368     C
C       0.2932   0.4907   0.8031     C
C       0.3021   0.3396   0.5583     C
H       0.3024   0.1391   0.5739     H
C       0.3035   0.7787   0.9852     C
H       0.3091   0.7778   0.9342     H
O        0.323   0.8451   0.2704     O
C       0.3493   0.2682   0.5752     C
H       0.3528   0.3939   0.5652     H
Cd     0.35852  0.32119   0.1153    Cd
C       0.3587   0.8478   0.1172     C
Cd     0.36471  0.50679  0.30283    Cd
H       0.3649   0.0158   0.0869     H
C       0.3689   0.8488    0.042     C
H       0.4008   0.8949   0.1558     H
O        0.408   0.2153   0.0178     O
C       0.4191    0.009   0.0516     C
C       0.4201   0.5419   0.8055     C
O       0.4365   0.1925   0.1326     O
C       0.4389   0.1704   0.0628     C
C       0.4406   0.9253   0.0214     C
O       0.4559   0.6494   0.3624     O
O       0.4638   0.5926   0.8671     O
O       0.4677   0.5307   0.7473     O
O       0.4701   0.7896   0.4092     O
C       0.4771   0.0832   0.0301     C
C       0.4839   0.2772   0.6036     C
C       0.5161   0.7228   0.3964     C
C       0.5229   0.9168   0.9699     C
O       0.5299   0.2104   0.5908     O
O       0.5323   0.4693   0.2527     O
O       0.5362   0.4074   0.1329     O
O       0.5441   0.3506   0.6376     O
C       0.5594   0.0747   0.9786     C
C       0.5611   0.8296   0.9372     C
O       0.5635   0.8075   0.8674     O
C       0.5799   0.4581   0.1945     C
C       0.5809    0.991   0.9484     C
O        0.592   0.7847   0.9822     O
H       0.5992   0.1051   0.8442     H
C       0.6311   0.1512    0.958     C
H       0.6351   0.9842   0.9131     H
Cd     0.63529  0.49321  0.69717    Cd
C       0.6413   0.1522   0.8828     C
Cd     0.64148  0.67881   0.8847    Cd
H       0.6472   0.6061   0.4348     H
C       0.6507   0.7318   0.4248     C
O        0.677   0.1549   0.7296     O
H       0.6909   0.2222   0.0658     H
C       0.6965   0.2213   0.0148     C
H       0.6976   0.8609   0.4261     H
C       0.6979   0.6604   0.4417     C
C       0.7068   0.5093   0.1969     C
C       0.7126   0.2217   0.8632     C
C       0.7175   0.2223   0.7805     C
H        0.721   0.4657    0.086     H
O        0.729   0.6368   0.7736     O
C       0.7291   0.8127   0.4362     C
O         0.73   0.5779   0.9319     O
H       0.7303    0.574   0.3072     H
Cd      0.7309  0.25003  0.63584    Cd
O       0.7603   0.2937   0.7647     O
C       0.7637   0.5001   0.1323     C
H       0.7643   0.3096   0.1975     H
C       0.7692    0.564   0.2643     C
C       0.7698   0.2898   0.9958     C
O       0.7735   0.1349   0.5502     O
C       0.7805   0.2908   0.9212     C
H       0.7933   0.3934   0.3205     H
O       0.8036   0.6636   0.0449     O
C       0.8043   0.6002   0.9922     C
H        0.806   0.9729   0.5264     H
O       0.8114   0.4498    0.651     O
H       0.8129   0.3364   0.0345     H
O       0.8183   0.3348   0.5679     O
C       0.8206    0.671   0.4687     C
H       0.8319   0.3366   0.9094     H
C       0.8319   0.6834   0.8059     C
C       0.8427   0.3277   0.2248     C
O       0.8446   0.7364   0.8691     O
H       0.8458   0.6065   0.6633     H
C       0.8459   0.4135   0.5938     C
H       0.8519   0.6238   0.4811     H
C       0.8538   0.8231   0.4625     C
C       0.8604   0.3775   0.2989     C
H       0.8657   0.3709   0.4522     H
C       0.8821    0.541   0.1354     C
C       0.8834    0.137   0.5801     C
C       0.8851   0.9838   0.5152     C
C       0.8882   0.6037   0.2685     C
C        0.898   0.7514   0.4776     C
C       0.9032   0.5461   0.9964     C
C       0.9207   0.4235   0.4717     C
C       0.9236    0.621   0.6915     C
C        0.925    0.464   0.5479     C
H       0.9284   0.2717   0.1413     H
H         0.93   0.6393   0.3145     H
H       0.9307   0.5373   0.8886     H
C       0.9319   0.9127   0.4782     C
O       0.9334   0.1889   0.6387     O
C       0.9405   0.3049   0.1913     C
C       0.9426   0.6688    0.768     C
C       0.9433   0.5233   0.0659     C
C       0.9463   0.5914    0.205     C
C       0.9482   0.0696   0.5364     C
C       0.9589   0.5225   0.9336     C
H       0.9721   0.3835   0.7914     H
C        0.976   0.4046   0.3419     C
H       0.9809   0.7566    0.494     H
C        0.993    0.456   0.4219     C
