data_I
_chemical_name_common  '/home/zhangsd/repos/MofS-CGCNN/ML/data/TSD/clean_cifs/BOXYIY_clean'
_cell_length_a  8.03520
_cell_length_b 10.18950
_cell_length_c 16.02660
_cell_angle_alpha 93.34900
_cell_angle_beta  94.50400
_cell_angle_gamma 92.45200
_space_group_name_H-M_alt      'P 1'


loop_
_space_group_symop_operation_xyz
  'x, y, z' 

loop_
_atom_site_label
_atom_site_fract_x
_atom_site_fract_y
_atom_site_fract_z
_atom_site_type_symbol
H       0.0136   0.5389    0.924     H
O       0.0448   0.1291  0.33444     O
O       0.0939   0.5063   0.9035     O
P      0.13031  0.83931  0.69402     P
O       0.1376   0.7188  0.74497     O
O       0.1501    0.866  0.25732     O
H       0.1893   0.7123   0.8504     H
O       0.2011    0.961  0.75572     O
O       0.2039   0.6643  0.20875     O
O       0.2134   0.1672  0.16862     O
O       0.2326   0.3666  0.11926     O
O       0.2352   0.8289  0.62036     O
O       0.2418   0.7233   0.8964     O
C       0.2425   0.7829  0.22707     C
Mn       0.256  0.06321  0.28629    Mn
P      0.25842  0.58959   0.9359     P
C       0.2639   0.2857   0.1729     C
O       0.2669   0.6194  0.02828     O
H       0.3029   0.9686   0.7549     H
O       0.3248   0.5612  0.54315     O
O       0.3664   0.3596  0.49034     O
C       0.3767   0.3363   0.2525     C
Mn     0.38842  0.55471  0.13608    Mn
O       0.3914   0.5123  0.90373     O
O       0.3965   0.8546  0.45694     O
O       0.4009   0.0565   0.4094     O
O       0.4051    0.252  0.30612     O
C       0.4108   0.4771  0.50997     C
C       0.4218   0.8316   0.2112     C
O       0.4265   0.4526  0.25792     O
C       0.4408   0.9725  0.46145     C
Mn     0.44433  0.75552  0.57642    Mn
O       0.4594   0.9513  0.23096     O
O       0.4869   0.2513   0.8185     O
O       0.5131   0.7487   0.1815     O
O       0.5406   0.0487  0.76904     O
Mn     0.55567  0.24448  0.42358    Mn
C       0.5592   0.0275  0.53855     C
O       0.5735   0.5474  0.74208     O
C       0.5782   0.1684   0.7888     C
C       0.5892   0.5229  0.49003     C
O       0.5949    0.748  0.69388     O
O       0.5991   0.9435   0.5906     O
O       0.6035   0.1454  0.54306     O
O       0.6086   0.4877  0.09627     O
Mn     0.61158  0.44529  0.86392    Mn
C       0.6233   0.6637   0.7475     C
O       0.6336   0.6404  0.50966     O
O       0.6752   0.4388  0.45685     O
H       0.6971   0.0314   0.2451     H
O       0.7331   0.3806  0.97172     O
C       0.7361   0.7143   0.8271     C
P      0.74158  0.41041   0.0641     P
Mn       0.744  0.93679  0.71371    Mn
C       0.7575   0.2171  0.77293     C
O       0.7582   0.2767   0.1036     O
O       0.7648   0.1711  0.37964     O
O       0.7674   0.6334  0.88074     O
O       0.7866   0.8328  0.83138     O
O       0.7961   0.3357  0.79125     O
O       0.7989    0.039  0.24428     O
H       0.8107   0.2877   0.1496     H
O       0.8499    0.134  0.74268     O
O       0.8624   0.2812  0.25503     O
P      0.86969  0.16069  0.30598     P
O       0.9061   0.4937   0.0965     O
O       0.9552   0.8709  0.66556     O
H       0.9864   0.4611    0.076     H
