data_I
_chemical_name_common  '/home/zhangsd/repos/MofS-CGCNN/ML/data/TSD/clean_cifs/BOYCEY_auto'
_cell_length_a 18.34110
_cell_length_b 18.34110
_cell_length_c 52.60410
_cell_angle_alpha 90.00000
_cell_angle_beta  90.00000
_cell_angle_gamma 120.00000
_space_group_name_H-M_alt      'P 1'


loop_
_space_group_symop_operation_xyz
  'x, y, z' 

loop_
_atom_site_label
_atom_site_fract_x
_atom_site_fract_y
_atom_site_fract_z
_atom_site_type_symbol
H      0.00776  0.74785  0.68735     H
H      0.00868  0.26698  0.68639     H
C      0.01457   0.2384   0.2638     C
C      0.01611  0.78043   0.2636     C
O      0.02882  0.22112  0.28601     O
O       0.0304   0.8122  0.28579     O
C       0.0429  0.23453  0.65063     C
C      0.04337  0.81193  0.65116     C
C      0.04461  0.52472  0.35607     C
H      0.04896   0.6441    0.353     H
H      0.04947  0.40993  0.35313     H
C      0.05581  0.80151  0.67702     C
C      0.05638   0.2603  0.67623     C
C       0.0565  0.46448  0.34299     C
C      0.05744  0.59721  0.34302     C
H      0.06885  0.67929  0.88183     H
O      0.07013  0.30345  0.25227     O
H      0.07178  0.39434  0.88147     H
O      0.07179  0.77118  0.25206     O
C      0.08209  0.47663  0.31739     C
C      0.08298  0.61043  0.31742     C
H      0.08382  0.63816   0.7536     H
H      0.09316   0.2017  0.61841     H
C       0.0942  0.54933  0.30475     C
H      0.09457  0.89314  0.61853     H
O      0.09485  0.35327  0.31608     O
O      0.09616  0.74664  0.31609     O
H       0.0963  0.72315  0.71697     H
H      0.09648  0.62259  0.79906     H
H      0.09893  0.38603  0.71403     H
C      0.10382    0.223  0.63797     C
C      0.10425  0.41826  0.30452     C
C       0.1045  0.88378  0.63828     C
C       0.1048  0.69283  0.76574     C
C      0.10546  0.69099  0.30454     C
H      0.11129  0.41838  0.75851     H
C        0.112  0.68392  0.79172     C
H      0.11541  0.55988  0.28518     H
C      0.11675  0.77794  0.72902     C
C      0.11981  0.35337  0.72661     C
H      0.12327   0.4425  0.79766     H
C      0.12438  0.72585  0.89182     C
C      0.12442   0.7709  0.75542     C
C      0.12652  0.40134   0.8915     C
C      0.12737  0.86277  0.69008     C
C       0.1275  0.37205  0.75258     C
Cu     0.12811  0.27879  0.30437    Cu
C       0.1288  0.27282  0.68926     C
Cu     0.12963  0.85417  0.30428    Cu
H      0.13193  0.68067  0.84136     H
O      0.13592  0.43559  0.28233     O
C      0.13641  0.85531  0.71799     C
C      0.13662  0.71225  0.91741     C
O      0.13722  0.70529  0.28236     O
C      0.13729  0.42349  0.91736     C
H      0.13798  0.46538  0.84257     H
C      0.13891  0.75283  0.80811     C
C      0.13938  0.29412  0.71686     C
C      0.14398  0.40598  0.80829     C
C      0.14615  0.74191  0.83428     C
C      0.15186  0.41929  0.83454     C
C        0.152  0.84228  0.77152     C
C      0.15489  0.33152  0.76987     C
C      0.15927  0.83309   0.7983     C
C       0.1627  0.34774  0.79666     C
C      0.16348  0.92574  0.73382     C
C       0.1672  0.25371  0.73368     C
O      0.17033  0.22183  0.28582     O
C      0.17119  0.91964  0.76005     C
O      0.17156  0.95349  0.28589     O
C       0.1738  0.80969  0.85127     C
C      0.17493  0.27161  0.75987     C
C      0.17635  0.94569  0.65092     C
C      0.17647  0.23492  0.65059     C
H      0.17676  0.22301  0.13242     H
H      0.17758  0.98595  0.72593     H
Cu     0.17777  0.37805  0.26401    Cu
C      0.17867  0.37536  0.85022     C
Cu     0.17929  0.80458  0.26392    Cu
H      0.18124  0.20672  0.72645     H
C      0.18429  0.79836  0.87884     C
C      0.18636  0.90052  0.81575     C
C      0.18718  0.39085  0.87818     C
C      0.18768  0.93412  0.67674     C
C      0.18875  0.26052  0.67619     C
C      0.19029  0.30355  0.81259     C
H      0.19179  0.09814  0.28298     H
H      0.19209  0.97666  0.77082     H
C      0.19356  0.88879   0.8417     C
C      0.19817  0.31779  0.83901     C
H      0.19902  0.18718  0.17471     H
C      0.20201  0.22934  0.77608     C
C      0.20215  0.23934  0.26364     C
H      0.20268  0.96322  0.80997     H
C       0.2033  0.96783  0.26371     C
H      0.20476   0.2353  0.08694     H
C      0.20888  0.43313  0.93009     C
C      0.20923  0.77287  0.93008     C
C      0.20961  0.24511  0.80209     C
O      0.21143  0.30428   0.2521     O
O      0.21269  0.91224  0.25216     O
C      0.21332  0.10892  0.26344     C
H      0.21428  0.94201  0.85441     H
O      0.21718  0.03985  0.61564     O
H      0.21728  0.18352   0.7686     H
O      0.21749  0.18116  0.61553     O
H      0.21838  0.45186  0.94989     H
H      0.21849  0.28308  0.85095     H
H      0.21986  0.76203  0.94962     H
C      0.22226  0.20708  0.12507     C
C      0.22475  0.18132  0.25078     C
C      0.22563   0.0484  0.25085     C
H      0.23062  0.21117  0.81409     H
C      0.23466   0.0258  0.63786     C
C      0.23485  0.21287  0.63771     C
O      0.23549  0.35268  0.31632     O
O      0.23721  0.88739   0.3161     O
C      0.23823  0.21407  0.09907     C
H      0.24261  0.98179   0.6867     H
H      0.24432  0.26944  0.68615     H
C      0.24588  0.17273  0.16763     C
C      0.25072  0.19378   0.2252     C
C       0.2517  0.06201  0.22529     C
C      0.25666   0.8581  0.89192     C
C      0.25847  0.40076  0.89131     C
H      0.25893  0.01453  0.21519     H
H      0.25937  0.24921  0.21522     H
C      0.26388  0.13422   0.2122     C
C        0.264  0.17987  0.14146     C
C      0.27012  0.84548  0.91749     C
C      0.27032  0.42282  0.91725     C
Cu     0.27476  0.13909  0.59716    Cu
H      0.27662  0.22193  0.05028     H
O      0.27686   0.4351  0.28259     O
O      0.27848   0.8463  0.28237     O
H      0.28238  0.43414  0.43604     H
C       0.2858  0.14484  0.18463     C
C      0.29115  0.41762  0.30478     C
C      0.29277  0.87791  0.30457     C
C      0.29625  0.19388  0.08874     C
H      0.29816  0.42172  0.48149     H
O      0.29974  0.08149  0.64934     O
O      0.29985  0.22234  0.64927     O
H      0.30434  0.91265  0.88182     H
H      0.30676  0.39552    0.881     H
C      0.31079  0.20126  0.06233     C
C      0.32355  0.15905  0.13164     C
H       0.3385  0.40796  0.35323     H
H      0.33935  0.93282  0.35319     H
C      0.33982  0.16603  0.10484     C
H      0.34036     0.47  0.39373     H
C      0.34383   0.4501  0.44337     C
C      0.34497  0.12485  0.17505     C
O      0.34897  0.10567  0.58551     O
O      0.34912  0.24659  0.58525     O
C      0.35038  0.44408  0.93028     C
C      0.35079   0.9034  0.93036     C
C      0.35286  0.44304  0.46935     C
C      0.36379  0.13186  0.14909     C
O      0.36441  0.47536  0.95253     O
O      0.36509  0.88583  0.95253     O
C      0.36808  0.18104  0.05129     C
C      0.37177  0.47568  0.31764     C
C      0.37324  0.89993  0.31746     C
Cu     0.37405  0.18891  0.63752    Cu
H      0.37741  0.10404  0.18775     H
H      0.38342  0.43489  0.51812     H
C      0.38452  0.18987  0.02336     C
C       0.3853  0.46333  0.34323     C
C      0.38679  0.92564  0.34306     C
H      0.38814  0.07453  0.02005     H
H      0.38939  0.30956  0.02056     H
C      0.39494  0.26141  0.01026     C
C       0.3955  0.12946  0.01006     C
C      0.39751  0.14622  0.09337     C
C       0.4017   0.4845  0.40079     C
H      0.40588  0.06275  0.54829     H
O      0.40598  0.43455   0.9188     O
O      0.40649  0.96835  0.91883     O
H      0.40871  0.34695   0.5477     H
H         0.41  0.11532  0.14331     H
C      0.41116  0.15367  0.06713     C
C      0.41276  0.47739  0.42697     C
C      0.41398  0.11506  0.59704     C
C      0.41415  0.30218  0.59678     C
C      0.41786  0.27373  -0.0156     C
C      0.41854  0.14071 -0.01575     C
H      0.42202  0.55868   0.2854     H
H      0.42302  0.86637  0.28527     H
C      0.42859  0.21254 -0.02843     C
H       0.4291  0.05085  0.38087     H
O      0.43006  0.40961  0.98298     O
O      0.43106  1.01736  0.98276     O
C       0.4311  0.46324  0.47967     C
O      0.43139  0.28796  0.61901     O
O      0.43151  0.14684  0.61921     O
C      0.43276  0.54798  0.30495     C
H      0.43337  0.12501  0.10413     H
C      0.43374  0.88766  0.30483     C
C      0.43827  0.45571  0.50607     C
C      0.43954  0.35403  0.97146     C
C      0.44048  1.08241  0.97125     C
H      0.44215  0.08384  0.42531     H
H      0.44797  0.22241 -0.04817     H
C      0.45025   0.0184  0.39345     C
H      0.45485  0.10863  0.46441     H
H      0.45697  0.13914  0.05924     H
C      0.45807   0.5229   0.3562     C
C      0.45837   0.0375   0.4194     C
C      0.45896  0.93753  0.35612     C
C      0.46087  0.07012  0.55824     C
C       0.4623  0.39506  0.55804     C
Cu     0.46345  0.51715  0.97111    Cu
Cu     0.46434   0.9431  0.97101    Cu
C      0.46946  0.51238  0.38378     C
C      0.46979  -0.0409  0.38372     C
H      0.47084  0.13268  0.50926     H
O      0.47111  0.36828  0.94925     O
O      0.47216  1.09988  0.94906     O
C       0.4722  0.09305  0.58404     C
C       0.4728  0.38255  0.58389     C
C      0.47607  0.07256  0.47505     C
C      0.48469  0.08653  0.50126     C
C      0.48629 -0.00257  0.43668     C
C      0.49316  0.49825  0.43677     C
C      0.49473  0.01423  0.46345     C
C      0.49801 -0.08093  0.40056     C
C      0.50251  0.49123  0.46356     C
C      0.50564  0.60851  0.31751     C
O      0.50567  0.61645  0.95265     O
C      0.50606  0.89886  0.31748     C
C      0.50629 -0.06251  0.42672     C
O      0.50633  0.88577  0.95261     O
H      0.51203 -0.12797  0.39336     H
C      0.51214  0.04318  0.51695     C
H      0.51278  0.62096   0.7993     H
Cu     0.51331  0.46757   0.9308    Cu
Cu     0.51405  1.04238  0.93066    Cu
C      0.51581  0.47593   0.5171     C
C      0.51812  0.59502  0.34308     C
C       0.5185  0.92455  0.34307     C
C      0.52128  0.05934  0.54488     C
C      0.52298 -0.02939  0.47938     C
C      0.52338  0.46682  0.54501     C
H      0.52687  0.76152  0.94976     H
C      0.53158 -0.01449  0.50577     C
C      0.53398 -0.10425  0.44293     C
H      0.53463   0.6793  0.84155     H
C      0.53758  0.63078  0.93048     C
C      0.53807  0.90315  0.93043     C
H      0.54094  0.63646  0.75383     H
C      0.54224 -0.08789  0.46891     C
C      0.54405  0.10306  0.59669     C
C      0.54457  0.44374  0.59678     C
O      0.54651  0.70329  0.28243     O
O      0.54659  0.84453  0.28242     O
O      0.54699  0.57516  0.91897     O
O      0.54739  0.96809  0.91887     O
C      0.54841  0.77223  0.93022     C
C      0.54867  0.53245  0.39335     C
H      0.54928 -0.15007  0.43547     H
H      0.55239 -0.04878  0.51771     H
H      0.55395  0.12235  0.61644     H
H      0.55399  0.43374  0.61652     H
C       0.5581  0.68242  0.79193     C
C      0.56007  0.71135  0.91759     C
C      0.56051  0.84494  0.91759     C
C      0.56055  0.52548   0.4193     C
H      0.56377  -0.1214  0.48091     H
C      0.56393  0.68899  0.30462     C
C      0.56408  0.87629  0.30461     C
O      0.57091  0.55053  0.98306     O
O      0.57186  1.01734   0.9829     O
H      0.57286  0.64252  0.35316     H
H      0.57394  0.93309  0.35302     H
C      0.57416  0.69128  0.76593     C
C      0.58005   0.5111  0.47502     C
C      0.58132  0.74065  0.83445     C
C      0.58606  0.72482  0.89202     C
C      0.58628  0.50352  0.50125     C
C      0.58658  0.85734  0.89203     C
C      0.59288  0.06968  0.55793     C
H      0.59365  0.91193  0.88191     H
C      0.59465  0.52721  0.55837     C
H      0.59489  0.67809  0.88207     H
C      0.59899  0.79738  0.87898     C
C      0.59951  0.75152  0.80827     C
H      0.60189  0.55326  0.38063     H
Cu     0.60385  0.80253  0.26399    Cu
C      0.60524  0.09243  0.58381     C
C      0.60632  0.51577  0.58417     C
O      0.61236  0.50945  0.94936     O
H      0.61265  0.72161  0.71714     H
O      0.61319  1.09962  0.94915     O
C      0.62094   0.8086  0.85141     C
H      0.62333  0.54206  0.42507     H
C      0.62657  0.54114  0.97156     C
C      0.62744  1.08236  0.97137     C
O      0.62895  0.74458  0.31615     O
O      0.62899  0.88554  0.31615     O
C      0.63195  0.76952  0.75557     C
H      0.63713  0.53247  0.46425     H
H      0.64098   0.0642  0.54758     H
H       0.6422  0.58228  0.54843     H
C      0.64656  0.77656  0.72916     C
H      0.64664  0.51808  0.50913     H
C      0.65884  0.83192  0.79842     C
H       0.6714  0.59202  0.02063     H
H       0.6722  0.07685  0.02048     H
C      0.67518  0.84109  0.77163     C
O      0.67807  0.91005  0.25219     O
O      0.67815  0.76932  0.25216     O
C      0.67989  0.88779  0.84179     C
C      0.68552  0.11402  0.59676     C
C      0.68645  0.57407  0.59724     C
C      0.69877  0.89949  0.81584     C
O      0.69973  0.14552  0.61899     O
O      0.70056  0.55651  0.61944     O
Cu     0.70314  0.85216  0.30435    Cu
C      0.70358  0.85411  0.71808     C
C      0.70704  0.56327 -0.01553     C
C      0.70779  0.14099 -0.01573     C
H      0.71212  0.94115  0.85447     H
C      0.71957   0.5866   0.0103     C
C      0.72004  0.86164  0.69016     C
C      0.72025  0.13048  0.01013     C
H      0.72277  0.98016  0.68676     H
H       0.7258  0.74728  0.68744     H
C      0.73051  0.93277  0.67681     C
C      0.73097  0.80076  0.67711     C
C      0.73264  0.91862  0.76012     C
H       0.7341  0.72283  0.21515     H
H      0.73416  0.01201  0.21514     H
O      0.74107   0.1045  0.58525     O
O       0.7421   0.6392  0.58577     O
C      0.74305  0.96565  0.26372     C
C      0.74324   0.7789  0.26368     C
H       0.7448  0.96228  0.81003     H
C      0.74635  0.92471  0.73388     C
H      0.74777  0.77877  0.08691     H
H      0.74996  -0.0315  0.08712     H
C      0.75351  0.94452    0.651     C
C      0.75389  0.81135  0.65124     C
H      0.75837  0.53323 -0.04811     H
H      0.75897   0.2223 -0.04834     H
H         0.76  0.70606  0.05023     H
O      0.76045  0.95141  0.28592     O
O      0.76054  0.81043  0.28589     O
H      0.76081  0.80714  0.13237     H
H       0.7615   0.0526  0.05029     H
H      0.76291 -0.04596  0.13263     H
C      0.76408  0.88299  0.63837     C
O      0.76559   0.0802  0.64946     O
O      0.76649   0.6879  0.64982     O
H      0.76823   0.9758  0.77085     H
C      0.76838  0.55286 -0.02839     C
C      0.76893  0.21285  -0.0286     C
C      0.76902  0.74525  0.09902     C
C      0.77059  0.02336  0.09915     C
C      0.77505  0.02459  0.63796     C
C      0.77592  0.75296  0.63832     C
C      0.77646  0.76146    0.125     C
C      0.77798  0.01508  0.12517     C
C      0.78077  0.67196  0.06227     C
C      0.78166  0.10753  0.06226     C
H      0.78343  0.89247  0.61862     H
C      0.78873  0.68689  0.08867     C
C      0.78935  0.05903  0.22516     C
C      0.78956  0.10106  0.08867     C
C      0.78966  0.73179  0.22512     C
C      0.79146  0.59765  0.02334     C
C      0.79185   0.1917  0.02318     C
H      0.79194  0.98509  0.72597     H
H      0.79681  0.78478  0.17466     H
H      0.79797  0.01302  0.17486     H
Cu     0.79877  0.18757   0.6376    Cu
Cu     0.79993  0.61383   0.6379    Cu
C       0.8006  0.61436  0.05124     C
C       0.8008  0.18459   0.0511     C
C      0.80129  0.04609  0.25082     C
C      0.80179  0.75717  0.25075     C
C      0.80374   0.7197  0.14136     C
C      0.80444  0.08425  0.14142     C
O      0.80652  0.03871  0.61574     O
O       0.8076  0.77042  0.61612     O
C      0.81118   0.7379  0.16754     C
C      0.81178  0.07399  0.16763     C
C       0.8167  0.64335  0.10474     C
C      0.81672  0.17268  0.10465     C
C       0.8242  0.16414  0.13145     C
C      0.82424  0.65995  0.13152     C
C      0.82741  0.25519  0.06681     C
C      0.82803   0.5713  0.06705     C
C      0.83528  0.24965  0.09305     C
C      0.83599  0.58528  0.09327     C
C      0.83889  0.14206  0.18449     C
C      0.83917  0.69794  0.18449     C
O      0.84047  0.28705  0.61934     O
C      0.84055  0.56356 -0.01577     C
C      0.84083  0.27467 -0.01596     C
H      0.84106  0.31515  0.05882     H
O      0.84185  0.55666  0.61934     O
H      0.84223  0.52526  0.05916     H
Cu     0.84845  0.13796  0.59725    Cu
C      0.84913  0.13143  0.21212     C
Cu     0.84957  0.71327  0.59759    Cu
C      0.84971  0.71958  0.21207     C
C      0.85087  0.23188  0.14876     C
C       0.8517  0.61982  0.14892     C
C      0.85198  0.58692  0.01001     C
C       0.8522    0.263  0.00984     C
H      0.85314  0.34063  0.50942     H
H      0.85583  0.30681  0.10371     H
H      0.85718  0.54937  0.10401     H
C      0.85812  0.22079  0.17474     C
C      0.85908  0.63877  0.17487     C
H      0.86516  0.43401  0.61669     H
H      0.86677  0.29434  0.14285     H
H      0.86816  0.57357  0.14312     H
C      0.87211  0.30128  0.59715     C
C      0.87324  0.57396   0.5971     C
C      0.87344  0.10731  0.26353     C
C      0.87442  0.76912  0.26339     C
H      0.87604  0.34896  0.46451     H
H      0.87841  0.27421  0.18734     H
H      0.88002  0.60638  0.18754     H
O      0.88151  0.24566  0.58562     O
O      0.88159  0.36911  0.94885     O
O      0.88163  0.51036    0.949     O
O      0.88277  0.63909  0.58562     O
H      0.88384  0.09696  0.28314     H
C      0.88415  0.44338  0.59691     C
H      0.88495  0.79024  0.28297     H
C      0.89393  0.38151  0.58419     C
C      0.89464  0.51523  0.58409     C
C      0.89902  0.54191  0.97121     C
C      0.89905  0.40069   0.5014     C
C      0.89907  0.35491  0.97104     C
H      0.89951  0.36141  0.42534     H
O      0.90651  0.22109  0.64934     O
H      0.90715  0.31063  0.01981     H
H      0.90716  0.59474  0.01995     H
O      0.90751  0.68814  0.64977     O
C      0.91233  0.40622  0.47515     C
C      0.91645   0.3931  0.55835     C
C        0.917  0.52561  0.55818     C
C      0.92106  0.19182  0.22523     C
C      0.92212  0.73218  0.22513     C
H      0.92233   0.5792  0.54787     H
H      0.92359  0.34544  0.54833     H
C      0.92708  0.46433  0.54504     C
H       0.9315  0.38158  0.38085     H
C      0.93419  0.17991  0.25089     C
C      0.93545  0.75779  0.25073     C
Cu     0.93912  0.46863  0.93053    Cu
C      0.94274  0.47143  0.51709     C
C      0.94574  0.42399  0.41942     C
O      0.94781  0.17992  0.61563     O
O      0.94879  0.77046  0.61603     O
C      0.96218  0.21181  0.63779     C
C      0.96306   0.7532  0.63824     C
O      0.96405  0.41057  0.98257     O
O      0.96411  0.55138  0.98271     O
C      0.96422   0.4351  0.39344     C
H      0.96867  0.24633   0.2151     H
H      0.96989  0.72558  0.21498     H
C      0.97026  0.48331  0.46352     C
C      0.98629  0.49185  0.43671     C
C      1.00009  0.54861  0.50589     C
O       1.0132  0.57624  0.91872     O
O      1.01376  0.43569  0.91884     O
C      1.01428  0.55508  0.47947     C
C      1.02335  0.51398  0.38368     C
H      1.03465  0.60366  0.51783     H
Cu     1.03837  0.51819   0.9709    Cu
C      1.04596  0.57188  0.42672     C
C      1.06373  0.58216  0.40053     C
C      1.07245  0.63293  0.46896     C
C      1.07822  0.63175  0.93026     C
C      1.07878  0.44509  0.93037     C
C      1.08811  0.64121  0.44295     C
O       1.0956  0.61738  0.95245     O
O      1.09611  0.47655  0.95258     O
H      1.10626  0.68789  0.48097     H
H      1.11062  0.64325  0.39331     H
H      1.13371  0.70238  0.43547     H
