data_I
_chemical_name_common  '/home/zhangsd/repos/MofS-CGCNN/ML/data/TSD/clean_cifs/BUGSIG_clean'
_cell_length_a  5.51500
_cell_length_b 13.39300
_cell_length_c 20.81050
_cell_angle_alpha 90.00000
_cell_angle_beta  95.38200
_cell_angle_gamma 90.00000
_space_group_name_H-M_alt      'P 1'


loop_
_space_group_symop_operation_xyz
  'x, y, z' 

loop_
_atom_site_label
_atom_site_fract_x
_atom_site_fract_y
_atom_site_fract_z
_atom_site_type_symbol
O       0.0019   0.6809   0.6408     O
O       0.0019   0.8191   0.1408     O
H       0.1265   0.7008   0.2485     H
H       0.1265   0.7992   0.7485     H
Gd     0.12756  0.13255  0.97223    Gd
Gd     0.12756  0.36745  0.47223    Gd
H       0.1676   0.0822   0.1633     H
H       0.1676   0.4178   0.6633     H
C       0.1713   0.7361    0.625     C
C       0.1713   0.7639    0.125     C
O       0.1786   0.5192   0.5452     O
O       0.1786   0.9808   0.0452     O
O       0.1989   0.7489   0.0677     O
O       0.1989   0.7511   0.5677     O
H       0.2473   0.5739   0.1679     H
H       0.2473   0.9261   0.6679     H
H         0.25   0.1026   0.2851     H
H         0.25   0.3974   0.7851     H
H       0.2555   0.6949   0.7559     H
H       0.2555   0.8051   0.2559     H
H       0.2565   0.5255   0.6823     H
H       0.2565   0.9745   0.1823     H
C       0.2807   0.7351   0.2467     C
C       0.2807   0.7649   0.7467     C
C       0.3089   0.0388   0.1671     C
C       0.3089   0.4612   0.6671     C
C        0.364   0.7247   0.1776     C
C        0.364   0.7753   0.6776     C
O       0.3746   0.0497  0.90878     O
O       0.3746   0.4503  0.40878     O
H       0.3747   0.5031   0.7905     H
H       0.3747   0.9969   0.2905     H
H       0.3788   0.2277   0.2008     H
H       0.3788   0.2723   0.7008     H
C          0.4   0.6089   0.1652     C
C          0.4   0.8911   0.6652     C
C       0.4024   0.0672   0.2828     C
C       0.4024   0.4328   0.7828     C
P       0.4093  0.02121  0.08584     P
P       0.4093  0.47879  0.58584     P
H       0.4095    0.697   0.3409     H
H       0.4095    0.803   0.8409     H
H       0.4513   0.5985   0.1224     H
H       0.4513   0.9015   0.6224     H
O       0.4593   0.1227   0.0556     O
O       0.4593   0.3773   0.5556     O
C       0.4689   0.6913   0.2987     C
C       0.4689   0.8087   0.7987     C
H       0.4816     0.24    0.825     H
H       0.4816     0.26    0.325     H
N       0.4912   0.0813   0.2175     N
N       0.4912   0.4187   0.7175     N
N       0.5088   0.5813   0.2825     N
N       0.5088   0.9187   0.7825     N
H       0.5184     0.74    0.675     H
H       0.5184     0.76    0.175     H
C       0.5311   0.1913   0.2013     C
C       0.5311   0.3087   0.7013     C
O       0.5407   0.6227   0.4444     O
O       0.5407   0.8773   0.9444     O
H       0.5487   0.0985   0.3776     H
H       0.5487   0.4015   0.8776     H
H       0.5905    0.197   0.1591     H
H       0.5905    0.303   0.6591     H
P       0.5907  0.52121  0.41416     P
P       0.5907  0.97879  0.91416     P
C       0.5976   0.5672   0.2172     C
C       0.5976   0.9328   0.7172     C
C          0.6   0.1089   0.3348     C
C          0.6   0.3911   0.8348     C
H       0.6212   0.7277   0.2992     H
H       0.6212   0.7723   0.7992     H
H       0.6253   0.0031   0.7095     H
H       0.6253   0.4969   0.2095     H
O       0.6254   0.5497  0.59122     O
O       0.6254   0.9503  0.09122     O
C        0.636   0.2247   0.3224     C
C        0.636   0.2753   0.8224     C
C       0.6911   0.5388   0.3329     C
C       0.6911   0.9612   0.8329     C
C       0.7193   0.2351   0.2533     C
C       0.7193   0.2649   0.7533     C
H       0.7435   0.0255   0.8177     H
H       0.7435   0.4745   0.3177     H
H       0.7445   0.1949   0.7441     H
H       0.7445   0.3051   0.2441     H
H         0.75   0.6026   0.2149     H
H         0.75   0.8974   0.7149     H
H       0.7527   0.0739   0.3321     H
H       0.7527   0.4261   0.8321     H
O       0.8011   0.2489   0.4323     O
O       0.8011   0.2511   0.9323     O
O       0.8214   0.0192   0.9548     O
O       0.8214   0.4808   0.4548     O
C       0.8287   0.2361    0.875     C
C       0.8287   0.2639    0.375     C
H       0.8324   0.5822   0.3367     H
H       0.8324   0.9178   0.8367     H
Gd     0.87244  0.63255  0.52777    Gd
Gd     0.87244  0.86745  0.02777    Gd
H       0.8735   0.2008   0.2515     H
H       0.8735   0.2992   0.7515     H
O       0.9981   0.1809   0.8592     O
O       0.9981   0.3191   0.3592     O
