data_I
_chemical_name_common  '/home/zhangsd/repos/MofS-CGCNN/ML/data/TSD/clean_cifs/BUGSEC_clean'
_cell_length_a  5.55200
_cell_length_b 13.36860
_cell_length_c 20.79700
_cell_angle_alpha 90.00000
_cell_angle_beta  95.57700
_cell_angle_gamma 90.00000
_space_group_name_H-M_alt      'P 1'


loop_
_space_group_symop_operation_xyz
  'x, y, z' 

loop_
_atom_site_label
_atom_site_fract_x
_atom_site_fract_y
_atom_site_fract_z
_atom_site_type_symbol
O        0.002   0.6808   0.6409     O
O        0.002   0.8192   0.1409     O
H       0.1254   0.7013   0.2486     H
H       0.1254   0.7987   0.7486     H
Eu     0.12765  0.13267  0.97218    Eu
Eu     0.12765  0.36733  0.47218    Eu
H       0.1655   0.0801   0.1633     H
H       0.1655   0.4199   0.6633     H
C       0.1704   0.7358   0.6251     C
C       0.1704   0.7642   0.1251     C
O       0.1776   0.5186   0.5457     O
O       0.1776   0.9814   0.0457     O
O       0.1978   0.7488   0.0674     O
O       0.1978   0.7512   0.5674     O
H       0.2487   0.5735   0.1674     H
H       0.2487   0.9265   0.6674     H
H       0.2521    0.104   0.2848     H
H       0.2521    0.396   0.7848     H
H       0.2534    0.694   0.7548     H
H       0.2534    0.806   0.2548     H
H       0.2596    0.527   0.6827     H
H       0.2596    0.973   0.1827     H
C       0.2783   0.7356   0.2464     C
C       0.2783   0.7644   0.7464     C
C       0.3078   0.0377   0.1672     C
C       0.3078   0.4623   0.6672     C
C       0.3615    0.723   0.1779     C
C       0.3615    0.777   0.6779     C
H       0.3746   0.5022   0.7901     H
H       0.3746   0.9978   0.2901     H
O        0.376   0.0498   0.9091     O
O        0.376   0.4502   0.4091     O
H       0.3781   0.2286   0.2014     H
H       0.3781   0.2714   0.7014     H
C       0.3996   0.6094   0.1651     C
C       0.3996   0.8906   0.6651     C
C       0.4031   0.0682   0.2825     C
C       0.4031   0.4318   0.7825     C
P       0.4101  0.02088  0.08605     P
P       0.4101  0.47912  0.58605     P
H       0.4145   0.6988   0.3413     H
H       0.4145   0.8012   0.8413     H
H       0.4516   0.5999   0.1224     H
H       0.4516   0.9001   0.6224     H
O       0.4592    0.123   0.0556     O
O       0.4592    0.377   0.5556     O
C       0.4709   0.6922   0.2988     C
C       0.4709   0.8078   0.7988     C
H       0.4852   0.2415   0.8245     H
H       0.4852   0.2585   0.3245     H
N       0.4905   0.0822   0.2166     N
N       0.4905   0.4178   0.7166     N
N       0.5095   0.5822   0.2834     N
N       0.5095   0.9178   0.7834     N
H       0.5148   0.7415   0.6755     H
H       0.5148   0.7585   0.1755     H
C       0.5291   0.1922   0.2012     C
C       0.5291   0.3078   0.7012     C
O       0.5408    0.623   0.4444     O
O       0.5408    0.877   0.9444     O
H       0.5484   0.0999   0.3776     H
H       0.5484   0.4001   0.8776     H
H       0.5855   0.1988   0.1587     H
H       0.5855   0.3012   0.6587     H
P       0.5899  0.52088  0.41395     P
P       0.5899  0.97912  0.91395     P
C       0.5969   0.5682   0.2175     C
C       0.5969   0.9318   0.7175     C
C       0.6004   0.1094   0.3349     C
C       0.6004   0.3906   0.8349     C
H       0.6219   0.7286   0.2986     H
H       0.6219   0.7714   0.7986     H
O        0.624   0.5498   0.5909     O
O        0.624   0.9502   0.0909     O
H       0.6254   0.0022   0.7099     H
H       0.6254   0.4978   0.2099     H
C       0.6385    0.223   0.3221     C
C       0.6385    0.277   0.8221     C
C       0.6922   0.5377   0.3328     C
C       0.6922   0.9623   0.8328     C
C       0.7217   0.2356   0.2536     C
C       0.7217   0.2644   0.7536     C
H       0.7404    0.027   0.8173     H
H       0.7404    0.473   0.3173     H
H       0.7466    0.194   0.7452     H
H       0.7466    0.306   0.2452     H
H       0.7479    0.604   0.2152     H
H       0.7479    0.896   0.7152     H
H       0.7513   0.0735   0.3326     H
H       0.7513   0.4265   0.8326     H
O       0.8022   0.2488   0.4326     O
O       0.8022   0.2512   0.9326     O
O       0.8224   0.0186   0.9543     O
O       0.8224   0.4814   0.4543     O
C       0.8296   0.2358   0.8749     C
C       0.8296   0.2642   0.3749     C
H       0.8345   0.5801   0.3367     H
H       0.8345   0.9199   0.8367     H
Eu     0.87235  0.63267  0.52782    Eu
Eu     0.87235  0.86733  0.02782    Eu
H       0.8746   0.2013   0.2514     H
H       0.8746   0.2987   0.7514     H
O        0.998   0.1808   0.8591     O
O        0.998   0.3192   0.3591     O
