data_I
_chemical_name_common  '/home/zhangsd/repos/MofS-CGCNN/ML/data/TSD/clean_cifs/BUPVEP_clean'
_cell_length_a 18.57280
_cell_length_b 18.57280
_cell_length_c 18.57280
_cell_angle_alpha 90.00000
_cell_angle_beta  90.00000
_cell_angle_gamma 90.00000
_space_group_name_H-M_alt      'P 1'


loop_
_space_group_symop_operation_xyz
  'x, y, z' 

loop_
_atom_site_label
_atom_site_fract_x
_atom_site_fract_y
_atom_site_fract_z
_atom_site_type_symbol
C          0.0    0.463    0.274     C
C          0.0    0.463    0.726     C
C          0.0    0.537    0.274     C
C          0.0    0.537    0.726     C
C        0.009    0.233    0.964     C
C        0.009    0.767    0.036     C
O       0.0304    0.243    0.151     O
O       0.0304    0.757    0.849     O
C        0.036    0.009    0.767     C
C        0.036    0.991    0.233     C
C        0.037    0.226      0.5     C
C        0.037    0.774      0.5     C
O        0.048    0.227    0.372     O
O        0.048    0.773    0.628     O
C         0.05    0.241    0.081     C
C         0.05    0.759    0.919     C
O        0.053    0.357    0.257     O
O        0.053    0.643    0.743     O
C        0.064    0.426    0.269     C
C        0.064    0.574    0.731     C
O       0.0655    0.117    0.248     O
O       0.0655    0.883    0.752     O
C        0.074    0.231    0.436     C
C        0.074    0.769    0.564     C
C        0.081     0.05    0.241     C
C        0.081     0.95    0.759     C
Ce      0.1071   0.2402   0.2559    Ce
Ce      0.1071   0.7598   0.7441    Ce
O        0.117    0.248   0.0655     O
O        0.117    0.752   0.9345     O
O        0.128    0.452    0.273     O
O        0.128    0.548    0.727     O
O        0.143    0.243    0.447     O
O        0.143    0.757    0.553     O
O        0.151   0.0304    0.243     O
O        0.151   0.9696    0.757     O
O       0.1651   0.1651   0.1651     O
O       0.1651   0.8349   0.8349     O
O       0.1775   0.1775   0.3225     O
O       0.1775   0.3225   0.1775     O
O       0.1775   0.3225   0.3225     O
O       0.1775   0.6775   0.6775     O
O       0.1775   0.6775   0.8225     O
O       0.1775   0.8225   0.6775     O
C        0.226      0.5    0.037     C
C        0.226      0.5    0.963     C
O        0.227    0.372    0.048     O
O        0.227    0.628    0.952     O
C        0.231    0.436    0.074     C
C        0.231    0.564    0.926     C
C        0.233    0.036    0.991     C
C        0.233    0.964    0.009     C
Ce      0.2402   0.2559   0.1071    Ce
Ce      0.2402   0.7441   0.8929    Ce
C        0.241    0.081     0.05     C
C        0.241    0.919     0.95     C
O        0.243    0.151   0.0304     O
O        0.243    0.447    0.143     O
O        0.243    0.553    0.857     O
O        0.243    0.849   0.9696     O
Ce      0.2441   0.3929   0.2598    Ce
Ce      0.2441   0.6071   0.7402    Ce
O        0.248   0.0655    0.117     O
O        0.248   0.9345    0.883     O
O        0.252   0.4345    0.383     O
O        0.252   0.5655    0.617     O
Ce      0.2559   0.1071   0.2402    Ce
Ce      0.2559   0.8929   0.7598    Ce
O        0.257    0.053    0.357     O
O        0.257    0.349   0.4696     O
O        0.257    0.651   0.5304     O
O        0.257    0.947    0.643     O
C        0.259    0.419     0.45     C
C        0.259    0.581     0.55     C
Ce      0.2598   0.2441   0.3929    Ce
Ce      0.2598   0.7559   0.6071    Ce
C        0.267    0.464    0.509     C
C        0.267    0.536    0.491     C
C        0.269    0.064    0.426     C
C        0.269    0.936    0.574     C
O        0.273    0.128    0.452     O
O        0.273    0.872    0.548     O
C        0.274      0.0    0.463     C
C        0.274      0.0    0.537     C
O       0.3225   0.1775   0.1775     O
O       0.3225   0.1775   0.3225     O
O       0.3225   0.3225   0.1775     O
O       0.3225   0.6775   0.8225     O
O       0.3225   0.8225   0.6775     O
O       0.3225   0.8225   0.8225     O
O       0.3349   0.3349   0.3349     O
O       0.3349   0.6651   0.6651     O
O        0.349   0.4696    0.257     O
O        0.349   0.5304    0.743     O
O        0.357    0.257    0.053     O
O        0.357    0.743    0.947     O
O        0.372    0.048    0.227     O
O        0.372    0.952    0.773     O
O        0.383    0.252   0.4345     O
O        0.383    0.748   0.5655     O
Ce      0.3929   0.2598   0.2441    Ce
Ce      0.3929   0.7402   0.7559    Ce
C        0.419     0.45    0.259     C
C        0.419     0.55    0.741     C
C        0.426    0.269    0.064     C
C        0.426    0.731    0.936     C
O       0.4345    0.383    0.252     O
O       0.4345    0.617    0.748     O
C        0.436    0.074    0.231     C
C        0.436    0.926    0.769     C
O        0.447    0.143    0.243     O
O        0.447    0.857    0.757     O
C         0.45    0.259    0.419     C
C         0.45    0.741    0.581     C
O        0.452    0.273    0.128     O
O        0.452    0.727    0.872     O
C        0.463    0.274      0.0     C
C        0.463    0.726      0.0     C
C        0.464    0.491    0.733     C
C        0.464    0.509    0.267     C
O       0.4696    0.257    0.349     O
O       0.4696    0.743    0.651     O
C        0.491    0.267    0.536     C
C        0.491    0.733    0.464     C
C          0.5    0.037    0.226     C
C          0.5    0.037    0.774     C
C          0.5    0.963    0.226     C
C          0.5    0.963    0.774     C
C        0.509    0.267    0.464     C
C        0.509    0.733    0.536     C
O       0.5304    0.257    0.651     O
O       0.5304    0.743    0.349     O
C        0.536    0.491    0.267     C
C        0.536    0.509    0.733     C
C        0.537    0.274      0.0     C
C        0.537    0.726      0.0     C
O        0.548    0.273    0.872     O
O        0.548    0.727    0.128     O
C         0.55    0.259    0.581     C
C         0.55    0.741    0.419     C
O        0.553    0.143    0.757     O
O        0.553    0.857    0.243     O
C        0.564    0.074    0.769     C
C        0.564    0.926    0.231     C
O       0.5655    0.383    0.748     O
O       0.5655    0.617    0.252     O
C        0.574    0.269    0.936     C
C        0.574    0.731    0.064     C
C        0.581     0.45    0.741     C
C        0.581     0.55    0.259     C
Ce      0.6071   0.2598   0.7559    Ce
Ce      0.6071   0.7402   0.2441    Ce
O        0.617    0.252   0.5655     O
O        0.617    0.748   0.4345     O
O        0.628    0.048    0.773     O
O        0.628    0.952    0.227     O
O        0.643    0.257    0.947     O
O        0.643    0.743    0.053     O
O        0.651   0.4696    0.743     O
O        0.651   0.5304    0.257     O
O       0.6651   0.3349   0.6651     O
O       0.6651   0.6651   0.3349     O
O       0.6775   0.1775   0.6775     O
O       0.6775   0.1775   0.8225     O
O       0.6775   0.3225   0.8225     O
O       0.6775   0.6775   0.1775     O
O       0.6775   0.8225   0.1775     O
O       0.6775   0.8225   0.3225     O
C        0.726      0.0    0.463     C
C        0.726      0.0    0.537     C
O        0.727    0.128    0.548     O
O        0.727    0.872    0.452     O
C        0.731    0.064    0.574     C
C        0.731    0.936    0.426     C
C        0.733    0.464    0.491     C
C        0.733    0.536    0.509     C
Ce      0.7402   0.2441   0.6071    Ce
Ce      0.7402   0.7559   0.3929    Ce
C        0.741    0.419     0.55     C
C        0.741    0.581     0.45     C
O        0.743    0.053    0.643     O
O        0.743    0.349   0.5304     O
O        0.743    0.651   0.4696     O
O        0.743    0.947    0.357     O
Ce      0.7441   0.1071   0.7598    Ce
Ce      0.7441   0.8929   0.2402    Ce
O        0.748   0.4345    0.617     O
O        0.748   0.5655    0.383     O
O        0.752   0.0655    0.883     O
O        0.752   0.9345    0.117     O
Ce      0.7559   0.3929   0.7402    Ce
Ce      0.7559   0.6071   0.2598    Ce
O        0.757    0.151   0.9696     O
O        0.757    0.447    0.857     O
O        0.757    0.553    0.143     O
O        0.757    0.849   0.0304     O
C        0.759    0.081     0.95     C
C        0.759    0.919     0.05     C
Ce      0.7598   0.2559   0.8929    Ce
Ce      0.7598   0.7441   0.1071    Ce
C        0.767    0.036    0.009     C
C        0.767    0.964    0.991     C
C        0.769    0.436    0.926     C
C        0.769    0.564    0.074     C
O        0.773    0.372    0.952     O
O        0.773    0.628    0.048     O
C        0.774      0.5    0.037     C
C        0.774      0.5    0.963     C
O       0.8225   0.1775   0.6775     O
O       0.8225   0.3225   0.6775     O
O       0.8225   0.3225   0.8225     O
O       0.8225   0.6775   0.1775     O
O       0.8225   0.6775   0.3225     O
O       0.8225   0.8225   0.3225     O
O       0.8349   0.1651   0.8349     O
O       0.8349   0.8349   0.1651     O
O        0.849   0.0304    0.757     O
O        0.849   0.9696    0.243     O
O        0.857    0.243    0.553     O
O        0.857    0.757    0.447     O
O        0.872    0.452    0.727     O
O        0.872    0.548    0.273     O
O        0.883    0.248   0.9345     O
O        0.883    0.752   0.0655     O
Ce      0.8929   0.2402   0.7441    Ce
Ce      0.8929   0.7598   0.2559    Ce
C        0.919     0.05    0.759     C
C        0.919     0.95    0.241     C
C        0.926    0.231    0.564     C
C        0.926    0.769    0.436     C
O       0.9345    0.117    0.752     O
O       0.9345    0.883    0.248     O
C        0.936    0.426    0.731     C
C        0.936    0.574    0.269     C
O        0.947    0.357    0.743     O
O        0.947    0.643    0.257     O
C         0.95    0.241    0.919     C
C         0.95    0.759    0.081     C
O        0.952    0.227    0.628     O
O        0.952    0.773    0.372     O
C        0.963    0.226      0.5     C
C        0.963    0.774      0.5     C
C        0.964    0.009    0.233     C
C        0.964    0.991    0.767     C
O       0.9696    0.243    0.849     O
O       0.9696    0.757    0.151     O
C        0.991    0.233    0.036     C
C        0.991    0.767    0.964     C
