data_I
_chemical_name_common  '/home/zhangsd/repos/MofS-CGCNN/ML/data/TSD/clean_cifs/CAQCAZ_clean'
_cell_length_a  7.21040
_cell_length_b 13.63700
_cell_length_c 17.37900
_cell_angle_alpha 90.00000
_cell_angle_beta  100.65700
_cell_angle_gamma 90.00000
_space_group_name_H-M_alt      'P 1'


loop_
_space_group_symop_operation_xyz
  'x, y, z' 

loop_
_atom_site_label
_atom_site_fract_x
_atom_site_fract_y
_atom_site_fract_z
_atom_site_type_symbol
In         0.0      0.0      0.5    In
In         0.0      0.5      0.0    In
O       0.0138     0.62   0.9262     O
O       0.0138     0.88   0.4262     O
O       0.0238   0.5952   0.0997     O
C       0.0238   0.6776   0.8004     C
C       0.0238   0.8224   0.3004     C
O       0.0238   0.9048   0.5997     O
C       0.0349   0.7313    0.184     C
C       0.0349   0.7687    0.684     C
C        0.064   0.1682   0.3826     C
C        0.064   0.3318   0.8826     C
C       0.0691   0.2246   0.7659     C
C       0.0691   0.2754   0.2659     C
C       0.0856   0.1329   0.6415     C
C       0.0856   0.3671   0.1415     C
H       0.2031   0.2267   0.7771     H
H       0.2031   0.2733   0.2771     H
C       0.2204   0.6702   0.8156     C
C       0.2204   0.8298   0.3156     C
O       0.2322   0.1937   0.4131     O
O       0.2322   0.3063   0.9131     O
C       0.2336   0.7369   0.2001     C
C       0.2336   0.7631   0.7001     C
O       0.2545   0.1113   0.6624     O
O       0.2545   0.3887   0.1624     O
O       0.3087   0.0123   0.5287     O
O       0.3087   0.4877   0.0287     O
O       0.3191   0.5197   0.8742     O
O       0.3191   0.9803   0.3742     O
C       0.3247   0.7141   0.7657     C
C       0.3247   0.7859   0.2657     C
C       0.3282   0.6118   0.8825     C
C       0.3282   0.8882   0.3825     C
O       0.3361   0.7192   0.0781     O
O       0.3361   0.7808   0.5781     O
C       0.3498   0.6895   0.1475     C
C       0.3498   0.8105   0.6475     C
O       0.4259   0.6584   0.9381     O
O       0.4259   0.8416   0.4381     O
H       0.4585   0.7104   0.7766     H
H       0.4585   0.7896   0.2766     H
In     0.46697  0.09877  0.44673    In
In     0.46697  0.40123  0.94673    In
O       0.4677    0.624   0.1744     O
O       0.4677    0.876   0.6744     O
O       0.5323    0.124   0.3256     O
O       0.5323    0.376   0.8256     O
In     0.53303  0.59877  0.05327    In
In     0.53303  0.90123  0.55327    In
H       0.5415   0.2104   0.7234     H
H       0.5415   0.2896   0.2234     H
O       0.5741   0.1584   0.5619     O
O       0.5741   0.3416   0.0619     O
C       0.6502   0.1895   0.3525     C
C       0.6502   0.3105   0.8525     C
O       0.6639   0.2192   0.4219     O
O       0.6639   0.2808   0.9219     O
C       0.6718   0.1118   0.6175     C
C       0.6718   0.3882   0.1175     C
C       0.6753   0.2141   0.7343     C
C       0.6753   0.2859   0.2343     C
O       0.6809   0.0197   0.6258     O
O       0.6809   0.4803   0.1258     O
O       0.6913   0.5123   0.9713     O
O       0.6913   0.9877   0.4713     O
O       0.7455   0.6113   0.8376     O
O       0.7455   0.8887   0.3376     O
C       0.7664   0.2369   0.2999     C
C       0.7664   0.2631   0.7999     C
O       0.7678   0.6937   0.0869     O
O       0.7678   0.8063   0.5869     O
C       0.7796   0.1702   0.6844     C
C       0.7796   0.3298   0.1844     C
H       0.7969   0.7267   0.7229     H
H       0.7969   0.7733   0.2229     H
C       0.9144   0.6329   0.8585     C
C       0.9144   0.8671   0.3585     C
C       0.9309   0.7246   0.7341     C
C       0.9309   0.7754   0.2341     C
C        0.936   0.6682   0.1174     C
C        0.936   0.8318   0.6174     C
C       0.9651   0.2313    0.316     C
C       0.9651   0.2687    0.816     C
O       0.9762   0.0952   0.4003     O
C       0.9762   0.1776   0.6996     C
C       0.9762   0.3224   0.1996     C
O       0.9762   0.4048   0.9003     O
O       0.9862     0.12   0.5738     O
O       0.9862     0.38   0.0738     O
