data_I
_chemical_name_common  '/home/zhangsd/repos/MofS-CGCNN/ML/data/TSD/clean_cifs/CAVSUP_clean'
_cell_length_a 13.34440
_cell_length_b 18.78200
_cell_length_c  5.84900
_cell_angle_alpha 90.00000
_cell_angle_beta  97.71100
_cell_angle_gamma 90.00000
_space_group_name_H-M_alt      'P 1'


loop_
_space_group_symop_operation_xyz
  'x, y, z' 

loop_
_atom_site_label
_atom_site_fract_x
_atom_site_fract_y
_atom_site_fract_z
_atom_site_type_symbol
C       0.0303   0.4587    0.596     C
C        0.047   0.9785    0.604     C
C       0.1374   0.4808    0.585     C
C        0.155   0.9813    0.558     C
O       0.1574    0.638    0.193     O
C       0.1643   0.0055    0.318     C
C       0.1704   0.4817    0.351     C
O       0.1731   0.8326     0.08     O
C        0.266   0.9571    0.018     C
P       0.2669   0.6336    0.137     P
N       0.2674   0.9927    0.249     N
O        0.271   0.6613    0.891     O
P       0.2803   0.8651   0.1063     P
N       0.2817   0.4897    0.337     N
C        0.306   0.5417    0.155     C
C       0.3248   0.0624    0.261     C
O       0.3308   0.8628    0.358     O
O        0.339   0.6758    0.316     O
C       0.3403   0.4207    0.336     C
O       0.3474   0.8284    0.948     O
La      0.3711     0.75   0.6649    La
O        0.423   0.0743    0.881     O
O        0.437   0.4091    0.955     O
P       0.4399   0.0853    0.144     P
P       0.4576   0.4045     0.22     P
O        0.463   0.1636    0.206     O
O       0.4662   0.9624    0.684     O
O       0.4751   0.5366    0.742     O
O       0.4967   0.3304      0.3     O
O       0.5033   0.8304      0.7     O
O       0.5249   0.0366    0.258     O
O       0.5338   0.4624    0.316     O
O        0.537   0.6636    0.794     O
P       0.5424   0.9045     0.78     P
P       0.5601   0.5853    0.856     P
O        0.563   0.9091    0.045     O
O        0.577   0.5743    0.119     O
La      0.6289     0.25   0.3351    La
O       0.6526   0.3284    0.052     O
C       0.6597   0.9207    0.664     C
O        0.661   0.1758    0.684     O
O       0.6692   0.3628    0.642     O
C       0.6752   0.5624    0.739     C
C        0.694   0.0417    0.845     C
N       0.7183   0.9897    0.663     N
P       0.7197   0.3651   0.8937     P
O        0.729   0.1613    0.109     O
N       0.7326   0.4927    0.751     N
P       0.7331   0.1336    0.863     P
C        0.734   0.4571    0.982     C
O       0.8269   0.3326     0.92     O
C       0.8296   0.9817    0.649     C
C       0.8357   0.5055    0.682     C
O       0.8426    0.138    0.807     O
C        0.845   0.4813    0.442     C
C       0.8626   0.9808    0.415     C
C        0.953   0.4785    0.396     C
C       0.9697   0.9587    0.404     C
