data_I
_chemical_name_common  '/home/zhangsd/repos/MofS-CGCNN/ML/data/TSD/clean_cifs/CAWGAJ_clean'
_cell_length_a  9.46300
_cell_length_b 16.75340
_cell_length_c 22.38360
_cell_angle_alpha 90.00000
_cell_angle_beta  90.00000
_cell_angle_gamma 91.89900
_space_group_name_H-M_alt      'P 1'


loop_
_space_group_symop_operation_xyz
  'x, y, z' 

loop_
_atom_site_label
_atom_site_fract_x
_atom_site_fract_y
_atom_site_fract_z
_atom_site_type_symbol
H       0.0249   0.4024   0.0487     H
H       0.0249   0.9024   0.4513     H
H       0.0255   0.4097   0.6503     H
H       0.0255   0.9097   0.8497     H
H       0.0397   0.3959   0.1507     H
H       0.0397   0.8959   0.3493     H
H       0.0471   0.3952    0.549     H
H       0.0471   0.8952    0.951     H
H        0.048   0.3894   0.8543     H
H        0.048   0.8894   0.6457     H
F      0.05136  0.02158  0.25234     F
F      0.05136  0.52158  0.24766     F
H       0.0728   0.3698   0.9549     H
H       0.0728   0.8698   0.5451     H
U      0.09427  0.23507  0.75392     U
U      0.09427  0.73507  0.74608     U
C       0.0946  0.43995   0.6302     C
C       0.0946  0.93995   0.8698     C
F      0.10487  0.34305  0.25561     F
F      0.10487  0.84305  0.24439     F
C       0.1058  0.42202  0.06809     C
C       0.1058  0.92202  0.43191     C
C       0.1064  0.42468  0.87587     C
C       0.1064  0.92468  0.62413     C
C        0.107  0.43094  0.56937     C
C        0.107  0.93094  0.93063     C
C       0.1158  0.41811  0.12942     C
C       0.1158  0.91811  0.37058     C
C       0.1203  0.41255  0.93638     C
C       0.1203  0.91255  0.56362     C
H       0.1398   0.3558   0.4643     H
H       0.1398   0.8558   0.0357     H
H       0.1456   0.3497   0.3626     H
H       0.1456   0.8497   0.1374     H
Zn     0.15887  0.49454  0.75405    Zn
Zn     0.15887  0.99454  0.74595    Zn
F      0.17198  0.11225  0.74166     F
F      0.17198  0.61225  0.75834     F
N       0.1725  0.48458  0.84654     N
N       0.1725  0.98458  0.65346     N
C       0.1739  0.39972  0.44264     C
C       0.1739  0.89972  0.05736     C
C       0.1771  0.39646  0.38143     C
C       0.1771  0.89646  0.11857     C
N        0.178  0.49057  0.66172     N
N        0.178  0.99057  0.83828     N
F      0.19398  0.36683  0.75452     F
F      0.19398  0.86683  0.74548     F
C       0.2064  0.46494  0.96968     C
C       0.2064  0.96494  0.53032     C
C       0.2099  0.47565  0.53843     C
C       0.2099  0.97565  0.96157     C
C       0.2176  0.45544  0.03543     C
C       0.2176  0.95544  0.46457     C
C        0.221  0.46799  0.47239     C
C        0.221  0.96799  0.02761     C
N       0.2237  0.45764  0.34763     N
N       0.2237  0.95764  0.15237     N
Zn     0.22604  0.44958  0.25369    Zn
Zn     0.22604  0.94958  0.24631    Zn
N       0.2292  0.44458  0.15988     N
N       0.2292  0.94458  0.34012     N
C        0.256  0.03461  0.62137     C
C        0.256  0.53461  0.87863     C
C       0.2714  0.02336  0.12401     C
C       0.2714  0.52336  0.37599     C
C       0.2734  0.03055  0.06302     C
C       0.2734  0.53055  0.43698     C
C        0.275  0.02706  0.56079     C
C        0.275  0.52706  0.93921     C
C       0.2775   0.0335  0.86802     C
C       0.2775   0.5335  0.63198     C
C       0.2975  0.02722  0.92835     C
C       0.2975  0.52722  0.57165     C
H       0.3034   0.0764   0.6411     H
H       0.3034   0.5764   0.8589     H
H       0.3049   0.0664   0.1468     H
H       0.3049   0.5664   0.3532     H
H       0.3098   0.0771   0.0453     H
H       0.3098   0.5771   0.4547     H
H       0.3335   0.0634   0.5403     H
H       0.3335   0.5634   0.9597     H
H       0.3356   0.0691   0.8466     H
H       0.3356   0.5691   0.6534     H
C        0.337  0.48135  0.06719     C
C        0.337  0.98135  0.43281     C
C       0.3391  0.47459  0.12818     C
C       0.3391  0.97459  0.37182     C
F      0.33984  0.24174  0.74943     F
F      0.33984  0.74174  0.75057     F
F      0.34523   0.0566  0.25125     F
F      0.34523   0.5566  0.24875     F
H       0.3691   0.0572   0.9471     H
H       0.3691   0.5572   0.5529     H
F      0.37049  0.22418  0.24765     F
F      0.37049  0.72418  0.25235     F
F      0.38193  0.49289  0.75616     F
F      0.38193  0.99289  0.74384     F
H       0.4151   0.0032   0.4529     H
H       0.4151   0.5032   0.0471     H
H       0.4203   0.4916   0.1486     H
H       0.4203   0.9916   0.3514     H
U      0.45702  0.36442  0.75189     U
U      0.45702  0.86442  0.74811     U
U      0.54298  0.13558  0.25189     U
U      0.54298  0.63558  0.24811     U
H       0.5797   0.0084   0.6486     H
H       0.5797   0.5084   0.8514     H
H       0.5849   0.4968   0.9529     H
H       0.5849   0.9968   0.5471     H
F      0.61807  0.00711  0.25616     F
F      0.61807  0.50711  0.24384     F
F      0.62951  0.27582  0.74765     F
F      0.62951  0.77582  0.75235     F
H       0.6309   0.4428   0.4471     H
H       0.6309   0.9428   0.0529     H
F      0.65477   0.4434  0.75125     F
F      0.65477   0.9434  0.74875     F
F      0.66016  0.25826  0.24943     F
F      0.66016  0.75826  0.25057     F
C       0.6609  0.02541  0.62818     C
C       0.6609  0.52541  0.87182     C
C        0.663  0.01865  0.56719     C
C        0.663  0.51865  0.93281     C
H       0.6644   0.4309   0.3466     H
H       0.6644   0.9309   0.1534     H
H       0.6665   0.4366   0.0403     H
H       0.6665   0.9366   0.4597     H
H       0.6902   0.4229   0.5453     H
H       0.6902   0.9229   0.9547     H
H       0.6951   0.4336   0.6468     H
H       0.6951   0.9336   0.8532     H
H       0.6966   0.4236   0.1411     H
H       0.6966   0.9236   0.3589     H
C       0.7025  0.47278  0.42835     C
C       0.7025  0.97278  0.07165     C
C       0.7225   0.4665  0.36802     C
C       0.7225   0.9665  0.13198     C
C        0.725  0.47294  0.06079     C
C        0.725  0.97294  0.43921     C
C       0.7266  0.46945  0.56302     C
C       0.7266  0.96945  0.93698     C
C       0.7286  0.47664  0.62401     C
C       0.7286  0.97664  0.87599     C
C        0.744  0.46539  0.12137     C
C        0.744  0.96539  0.37863     C
N       0.7708  0.05542  0.65988     N
N       0.7708  0.55542  0.84012     N
Zn     0.77396  0.05042  0.75369    Zn
Zn     0.77396  0.55042  0.74631    Zn
N       0.7763  0.04236  0.84763     N
N       0.7763  0.54236  0.65237     N
C        0.779  0.03201  0.97239     C
C        0.779  0.53201  0.52761     C
C       0.7824  0.04456  0.53543     C
C       0.7824  0.54456  0.96457     C
C       0.7901  0.02435  0.03843     C
C       0.7901  0.52435  0.46157     C
C       0.7936  0.03506  0.46968     C
C       0.7936  0.53506  0.03032     C
F      0.80602  0.13317  0.25452     F
F      0.80602  0.63317  0.24548     F
N        0.822  0.00943  0.16172     N
N        0.822  0.50943  0.33828     N
C       0.8229  0.10354  0.88143     C
C       0.8229  0.60354  0.61857     C
C       0.8261  0.10028  0.94264     C
C       0.8261  0.60028  0.55736     C
N       0.8275  0.01542  0.34654     N
N       0.8275  0.51542  0.15346     N
F      0.82802  0.38775  0.24166     F
F      0.82802  0.88775  0.25834     F
Zn     0.84113  0.00546  0.25405    Zn
Zn     0.84113  0.50546  0.24595    Zn
H       0.8544   0.1503   0.8626     H
H       0.8544   0.6503   0.6374     H
H       0.8602   0.1442   0.9643     H
H       0.8602   0.6442   0.5357     H
C       0.8797  0.08745  0.43638     C
C       0.8797  0.58745  0.06362     C
C       0.8842  0.08189  0.62942     C
C       0.8842  0.58189  0.87058     C
C        0.893  0.06906  0.06937     C
C        0.893  0.56906  0.43063     C
C       0.8936  0.07532  0.37587     C
C       0.8936  0.57532  0.12413     C
C       0.8942  0.07798  0.56809     C
C       0.8942  0.57798  0.93191     C
F      0.89513  0.15695  0.75561     F
F      0.89513  0.65695  0.74439     F
C       0.9054  0.06005   0.1302     C
C       0.9054  0.56005   0.3698     C
U      0.90573  0.26493  0.25392     U
U      0.90573  0.76493  0.24608     U
H       0.9272   0.1302   0.4549     H
H       0.9272   0.6302   0.0451     H
F      0.94864  0.47842  0.75234     F
F      0.94864  0.97842  0.74766     F
H        0.952   0.1106   0.3543     H
H        0.952   0.6106   0.1457     H
H       0.9529   0.1048    0.049     H
H       0.9529   0.6048    0.451     H
H       0.9603   0.1041   0.6507     H
H       0.9603   0.6041   0.8493     H
H       0.9745   0.0903   0.1503     H
H       0.9745   0.5903   0.3497     H
H       0.9751   0.0976   0.5487     H
H       0.9751   0.5976   0.9513     H
