data_I
_chemical_name_common  '/home/zhangsd/repos/MofS-CGCNN/ML/data/TSD/clean_cifs/CAXTAY_clean'
_cell_length_a 21.10510
_cell_length_b 21.10510
_cell_length_c 34.88840
_cell_angle_alpha 90.00000
_cell_angle_beta  90.00000
_cell_angle_gamma 120.00000
_space_group_name_H-M_alt      'P 1'


loop_
_space_group_symop_operation_xyz
  'x, y, z' 

loop_
_atom_site_label
_atom_site_fract_x
_atom_site_fract_y
_atom_site_fract_z
_atom_site_type_symbol
C          0.0  0.36092      0.5     C
C          0.0  0.43397      0.5     C
C          0.0  0.56603      0.5     C
C          0.0  0.63908      0.5     C
C      0.00572  0.44519  0.01988     C
C      0.00572  0.56054  0.01988     C
C      0.00791  0.50396  0.03964     C
O      0.01037  0.50518  0.82987     O
C      0.01753  0.50877   0.0835     C
O      0.01847  0.45645  0.09821     O
O      0.01847  0.56203  0.09821     O
O        0.021  0.24815  0.53118     O
O        0.021  0.77285  0.53118     O
O        0.024  0.29875  0.17837     O
O        0.024  0.72526  0.17837     O
C      0.02759  0.33333  0.83333     C
C      0.02759  0.69425  0.83333     C
O      0.03459  0.39192  0.84503     O
O      0.03459  0.64266  0.84503     O
Al     0.05061  0.45814  0.15129    Al
Al     0.05061  0.59248  0.15129    Al
O      0.05859  0.36792   0.4883     O
O      0.05859  0.69067   0.4883     O
C      0.05909  0.49658  0.48589     C
C      0.05909  0.56251  0.48589     C
C       0.0601   0.2702   0.5679     C
C       0.0601   0.7899   0.5679     C
C      0.06313  0.45657  0.23457     C
C      0.06313  0.60657  0.23457     C
C         0.07     0.14  0.45968     C
C         0.07     0.93  0.45968     C
Al     0.07419  0.28272  0.48462    Al
Al     0.07419  0.79147  0.48462    Al
O      0.08518  0.43952  0.19785     O
O      0.08518  0.64567  0.19785     O
C      0.08777  0.54388    0.818     C
C      0.10064  0.33333  0.83333     C
C      0.10064   0.7673  0.83333     C
C      0.10416  0.27424  0.81922     C
C      0.10416  0.82991  0.81922     C
O      0.10464  0.31486  0.43154     O
O      0.10464  0.78978  0.43154     O
C      0.10613  0.32761  0.35321     C
C      0.10613  0.77852  0.35321     C
O      0.10618  0.41852  0.13549     O
O      0.10618  0.68767  0.13549     O
O      0.10745   0.2149  0.47839     O
O      0.10745  0.89255  0.47839     O
C      0.11185  0.33906  0.31346     C
C      0.11185   0.7728  0.31346     C
O      0.11843  0.55922  0.14506     O
C      0.12278  0.24557  0.15134     C
C      0.12278  0.87722  0.15134     C
O      0.12311  0.35181  0.23513     O
O      0.12311  0.77131  0.23513     O
C      0.12323  0.39647  0.09877     C
C      0.12323  0.72677  0.09877     C
Al      0.1248  0.38395  0.18205    Al
Al      0.1248  0.74086  0.18205    Al
C         0.14     0.07  0.54032     C
C       0.1579   0.3158  0.41683     C
C       0.1579   0.8421  0.41683     C
O      0.16148  0.32297  0.16321     O
O      0.16148  0.83852  0.16321     O
C      0.16271  0.32542  0.37297     C
C      0.16271  0.83729  0.37297     C
C      0.16325  0.39242  0.84744     C
C      0.16325  0.77082  0.84744     C
C      0.17009  0.27424  0.81922     C
C      0.17009  0.89584  0.81922     C
C      0.17062  0.34125   0.2937     C
C      0.17062  0.82938   0.2937     C
O      0.17185   0.3437  0.50346     O
O      0.17185  0.82815  0.50346     O
C      0.17543  0.35087  0.24984     C
C      0.17543  0.82457  0.24984     C
C      0.19333  0.59667  0.12635     C
Al     0.20853  0.28272  0.48462    Al
Al     0.20853  0.92581  0.48462    Al
C       0.2101   0.2702   0.5679     C
C       0.2101   0.9399   0.5679     C
O      0.21022  0.31486  0.43154     O
O      0.21022  0.89536  0.43154     O
C      0.21055   0.4211  0.51533     C
C      0.21055  0.78945  0.51533     C
O       0.2149  0.10745  0.52161     O
C      0.22148  0.32761  0.35321     C
C      0.22148  0.89387  0.35321     C
O      0.22588  0.45177  0.18828     O
O      0.22588  0.77412  0.18828     O
O      0.22715  0.24815  0.53118     O
O      0.22715    0.979  0.53118     O
C       0.2272  0.33906  0.31346     C
C       0.2272  0.88815  0.31346     C
O      0.22869  0.35181  0.23513     O
O      0.22869  0.87689  0.23513     O
C      0.22918  0.39242  0.84744     C
C      0.22918  0.83675  0.84744     C
C       0.2327  0.33333  0.83333     C
C       0.2327  0.89936  0.83333     C
C      0.24557  0.12278  0.84866     C
O      0.24815    0.021  0.46882     O
O      0.24815  0.22715  0.46882     O
Al     0.25914  0.38395  0.18205    Al
Al     0.25914   0.8752  0.18205    Al
C      0.26333  0.52667  0.20699     C
C      0.26333  0.73667  0.20699     C
C       0.2702   0.0601   0.4321     C
C       0.2702   0.2101   0.4321     C
C      0.27323  0.39647  0.09877     C
C      0.27323  0.87677  0.09877     C
C      0.27424  0.10416  0.18078     C
C      0.27424  0.17009  0.18078     C
O      0.27474  0.29875  0.17837     O
O      0.27474    0.976  0.17837     O
Al     0.28272  0.07419  0.51538    Al
Al     0.28272  0.20853  0.51538    Al
O      0.29875    0.024  0.82163     O
O      0.29875  0.27474  0.82163     O
C      0.30575  0.33333  0.83333     C
C      0.30575  0.97241  0.83333     C
O      0.30933  0.36792   0.4883     O
O      0.30933  0.94141   0.4883     O
O      0.31233  0.41852  0.13549     O
O      0.31233  0.89382  0.13549     O
O      0.31486  0.10464  0.56846     O
O      0.31486  0.21022  0.56846     O
C       0.3158   0.1579  0.58317     C
O      0.32297  0.16148  0.83679     O
C      0.32542  0.16271  0.62703     C
C      0.32761  0.10613  0.64679     C
C      0.32761  0.22148  0.64679     C
C      0.33333  0.02759  0.16667     C
C      0.33333  0.10064  0.16667     C
C      0.33333   0.2327  0.16667     C
C      0.33333  0.30575  0.16667     C
C      0.33906  0.11185  0.68654     C
C      0.33906   0.2272  0.68654     C
C      0.34125  0.17062   0.7063     C
O       0.3437  0.17185  0.49654     O
C      0.35087  0.17543  0.75016     C
O      0.35181  0.12311  0.76487     O
O      0.35181  0.22869  0.76487     O
O      0.35433  0.43952  0.19785     O
O      0.35433  0.91482  0.19785     O
O      0.35734  0.39192  0.84503     O
O      0.35734  0.96541  0.84503     O
C      0.36092      0.0      0.5     C
C      0.36092  0.36092      0.5     C
O      0.36792  0.05859   0.5117     O
O      0.36792  0.30933   0.5117     O
Al     0.38395   0.1248  0.81795    Al
Al     0.38395  0.25914  0.81795    Al
O      0.39192  0.03459  0.15497     O
O      0.39192  0.35734  0.15497     O
C      0.39242  0.16325  0.15256     C
C      0.39242  0.22918  0.15256     C
C      0.39343  0.45657  0.23457     C
C      0.39343  0.93687  0.23457     C
C      0.39647  0.12323  0.90123     C
C      0.39647  0.27323  0.90123     C
C      0.40333  0.59667  0.12635     C
C      0.40333  0.80667  0.12635     C
Al     0.40752  0.45814  0.15129    Al
Al     0.40752  0.94939  0.15129    Al
O      0.41852  0.10618  0.86451     O
O      0.41852  0.31233  0.86451     O
C       0.4211  0.21055  0.48467     C
C      0.43397      0.0      0.5     C
C      0.43397  0.43397      0.5     C
C      0.43749  0.49658  0.48589     C
C      0.43749  0.94091  0.48589     C
O      0.43797  0.45645  0.09821     O
O      0.43797  0.98153  0.09821     O
C      0.43946  0.44519  0.01988     C
C      0.43946  0.99428  0.01988     C
O      0.43952  0.08518  0.80215     O
O      0.43952  0.35433  0.80215     O
O      0.44078  0.55922  0.14506     O
O      0.44078  0.88157  0.14506     O
C      0.44519  0.00572  0.98012     C
C      0.44519  0.43946  0.98012     C
O      0.45177  0.22588  0.81172     O
C      0.45612  0.54388    0.818     C
C      0.45612  0.91223    0.818     C
O      0.45645  0.01847  0.90179     O
O      0.45645  0.43797  0.90179     O
C      0.45657  0.06313  0.76543     C
C      0.45657  0.39343  0.76543     C
Al     0.45814  0.05061  0.84871    Al
Al     0.45814  0.40752  0.84871    Al
C      0.47333  0.73667  0.20699     C
C      0.49123  0.50877   0.0835     C
C      0.49123  0.98247   0.0835     C
O      0.49482  0.50518  0.82987     O
O      0.49482  0.98963  0.82987     O
C      0.49604  0.50396  0.03964     C
C      0.49604  0.99209  0.03964     C
C      0.49658  0.05909  0.51411     C
C      0.49658  0.43749  0.51411     C
C      0.50342  0.56251  0.48589     C
C      0.50342  0.94091  0.48589     C
C      0.50396  0.00791  0.96036     C
C      0.50396  0.49604  0.96036     C
O      0.50518  0.01037  0.17013     O
O      0.50518  0.49482  0.17013     O
C      0.50877  0.01753   0.9165     C
C      0.50877  0.49123   0.9165     C
C      0.52667  0.26333  0.79301     C
Al     0.54186  0.59248  0.15129    Al
Al     0.54186  0.94939  0.15129    Al
C      0.54343  0.60657  0.23457     C
C      0.54343  0.93687  0.23457     C
O      0.54355  0.56203  0.09821     O
O      0.54355  0.98153  0.09821     O
C      0.54388  0.08777    0.182     C
C      0.54388  0.45612    0.182     C
O      0.54823  0.77412  0.18828     O
C      0.55481  0.56054  0.01988     C
C      0.55481  0.99428  0.01988     C
O      0.55922  0.11843  0.85494     O
O      0.55922  0.44078  0.85494     O
O      0.56048  0.64567  0.19785     O
O      0.56048  0.91482  0.19785     O
C      0.56054  0.00572  0.98012     C
C      0.56054  0.55481  0.98012     C
O      0.56203  0.01847  0.90179     O
O      0.56203  0.54355  0.90179     O
C      0.56251  0.05909  0.51411     C
C      0.56251  0.50342  0.51411     C
C      0.56603      0.0      0.5     C
C      0.56603  0.56603      0.5     C
C       0.5789  0.78945  0.51533     C
O      0.58148  0.68767  0.13549     O
O      0.58148  0.89382  0.13549     O
Al     0.59248  0.05061  0.84871    Al
Al     0.59248  0.54186  0.84871    Al
C      0.59667  0.19333  0.87365     C
C      0.59667  0.40333  0.87365     C
C      0.60353  0.72677  0.09877     C
C      0.60353  0.87677  0.09877     C
C      0.60657  0.06313  0.76543     C
C      0.60657  0.54343  0.76543     C
C      0.60758  0.77082  0.84744     C
C      0.60758  0.83675  0.84744     C
O      0.60808  0.64266  0.84503     O
O      0.60808  0.96541  0.84503     O
Al     0.61605  0.74086  0.18205    Al
Al     0.61605   0.8752  0.18205    Al
O      0.63208  0.69067   0.4883     O
O      0.63208  0.94141   0.4883     O
C      0.63908      0.0      0.5     C
C      0.63908  0.63908      0.5     C
O      0.64266  0.03459  0.15497     O
O      0.64266  0.60808  0.15497     O
O      0.64567  0.08518  0.80215     O
O      0.64567  0.56048  0.80215     O
O      0.64819  0.77131  0.23513     O
O      0.64819  0.87689  0.23513     O
C      0.64913  0.82457  0.24984     C
O       0.6563  0.82815  0.50346     O
C      0.65875  0.82938   0.2937     C
C      0.66094   0.7728  0.31346     C
C      0.66094  0.88815  0.31346     C
C      0.66667  0.69425  0.83333     C
C      0.66667   0.7673  0.83333     C
C      0.66667  0.89936  0.83333     C
C      0.66667  0.97241  0.83333     C
C      0.67239  0.77852  0.35321     C
C      0.67239  0.89387  0.35321     C
C      0.67458  0.83729  0.37297     C
O      0.67703  0.83852  0.16321     O
C       0.6842   0.8421  0.41683     C
O      0.68514  0.78978  0.43154     O
O      0.68514  0.89536  0.43154     O
O      0.68767  0.10618  0.86451     O
O      0.68767  0.58148  0.86451     O
O      0.69067  0.05859   0.5117     O
O      0.69067  0.63208   0.5117     O
C      0.69425  0.02759  0.16667     C
C      0.69425  0.66667  0.16667     C
O      0.70125  0.72526  0.17837     O
O      0.70125    0.976  0.17837     O
Al     0.71728  0.79147  0.48462    Al
Al     0.71728  0.92581  0.48462    Al
O      0.72526    0.024  0.82163     O
O      0.72526  0.70125  0.82163     O
C      0.72576  0.82991  0.81922     C
C      0.72576  0.89584  0.81922     C
C      0.72677  0.12323  0.90123     C
C      0.72677  0.60353  0.90123     C
C       0.7298   0.7899   0.5679     C
C       0.7298   0.9399   0.5679     C
C      0.73667  0.26333  0.79301     C
C      0.73667  0.47333  0.79301     C
Al     0.74086   0.1248  0.81795    Al
Al     0.74086  0.61605  0.81795    Al
O      0.75185  0.77285  0.53118     O
O      0.75185    0.979  0.53118     O
C      0.75443  0.87722  0.15134     C
C       0.7673  0.10064  0.16667     C
C       0.7673  0.66667  0.16667     C
C      0.77082  0.16325  0.15256     C
C      0.77082  0.60758  0.15256     C
O      0.77131  0.12311  0.76487     O
O      0.77131  0.64819  0.76487     O
C       0.7728  0.11185  0.68654     C
C       0.7728  0.66094  0.68654     C
O      0.77285    0.021  0.46882     O
O      0.77285  0.75185  0.46882     O
O      0.77412  0.22588  0.81172     O
O      0.77412  0.54823  0.81172     O
C      0.77852  0.10613  0.64679     C
C      0.77852  0.67239  0.64679     C
O       0.7851  0.89255  0.47839     O
C      0.78945  0.21055  0.48467     C
C      0.78945   0.5789  0.48467     C
O      0.78978  0.10464  0.56846     O
O      0.78978  0.68514  0.56846     O
C       0.7899   0.0601   0.4321     C
C       0.7899   0.7298   0.4321     C
Al     0.79147  0.07419  0.51538    Al
Al     0.79147  0.71728  0.51538    Al
C      0.80667  0.40333  0.87365     C
C      0.82457  0.17543  0.75016     C
C      0.82457  0.64913  0.75016     C
O      0.82815  0.17185  0.49654     O
O      0.82815   0.6563  0.49654     O
C      0.82938  0.17062   0.7063     C
C      0.82938  0.65875   0.7063     C
C      0.82991  0.10416  0.18078     C
C      0.82991  0.72576  0.18078     C
C      0.83675  0.22918  0.15256     C
C      0.83675  0.60758  0.15256     C
C      0.83729  0.16271  0.62703     C
C      0.83729  0.67458  0.62703     C
O      0.83852  0.16148  0.83679     O
O      0.83852  0.67703  0.83679     O
C       0.8421   0.1579  0.58317     C
C       0.8421   0.6842  0.58317     C
C         0.86     0.93  0.45968     C
Al      0.8752  0.25914  0.81795    Al
Al      0.8752  0.61605  0.81795    Al
C      0.87677  0.27323  0.90123     C
C      0.87677  0.60353  0.90123     C
O      0.87689  0.22869  0.76487     O
O      0.87689  0.64819  0.76487     O
C      0.87722  0.12278  0.84866     C
C      0.87722  0.75443  0.84866     C
O      0.88157  0.44078  0.85494     O
C      0.88815   0.2272  0.68654     C
C      0.88815  0.66094  0.68654     C
O      0.89255  0.10745  0.52161     O
O      0.89255   0.7851  0.52161     O
O      0.89382  0.31233  0.86451     O
O      0.89382  0.58148  0.86451     O
C      0.89387  0.22148  0.64679     C
C      0.89387  0.67239  0.64679     C
O      0.89536  0.21022  0.56846     O
O      0.89536  0.68514  0.56846     O
C      0.89584  0.17009  0.18078     C
C      0.89584  0.72576  0.18078     C
C      0.89936   0.2327  0.16667     C
C      0.89936  0.66667  0.16667     C
C      0.91223  0.45612    0.182     C
O      0.91482  0.35433  0.80215     O
O      0.91482  0.56048  0.80215     O
Al     0.92581  0.20853  0.51538    Al
Al     0.92581  0.71728  0.51538    Al
C         0.93     0.07  0.54032     C
C         0.93     0.86  0.54032     C
C      0.93687  0.39343  0.76543     C
C      0.93687  0.54343  0.76543     C
C       0.9399   0.2101   0.4321     C
C       0.9399   0.7298   0.4321     C
C      0.94091  0.43749  0.51411     C
C      0.94091  0.50342  0.51411     C
O      0.94141  0.30933   0.5117     O
O      0.94141  0.63208   0.5117     O
Al     0.94939  0.40752  0.84871    Al
Al     0.94939  0.54186  0.84871    Al
O      0.96541  0.35734  0.15497     O
O      0.96541  0.60808  0.15497     O
C      0.97241  0.30575  0.16667     C
C      0.97241  0.66667  0.16667     C
O        0.976  0.27474  0.82163     O
O        0.976  0.70125  0.82163     O
O        0.979  0.22715  0.46882     O
O        0.979  0.75185  0.46882     O
O      0.98153  0.43797  0.90179     O
O      0.98153  0.54355  0.90179     O
C      0.98247  0.49123   0.9165     C
O      0.98963  0.49482  0.17013     O
C      0.99209  0.49604  0.96036     C
C      0.99428  0.43946  0.98012     C
C      0.99428  0.55481  0.98012     C
