data_I
_chemical_name_common  '/home/zhangsd/repos/MofS-CGCNN/ML/data/TSD/clean_cifs/CAYDUD_clean'
_cell_length_a 12.39190
_cell_length_b 12.39190
_cell_length_c  7.90430
_cell_angle_alpha 90.00000
_cell_angle_beta  90.00000
_cell_angle_gamma 90.00000
_space_group_name_H-M_alt      'P 1'


loop_
_space_group_symop_operation_xyz
  'x, y, z' 

loop_
_atom_site_label
_atom_site_fract_x
_atom_site_fract_y
_atom_site_fract_z
_atom_site_type_symbol
H       0.0081   0.3379   0.7116     H
C       0.0098   0.6348   0.3231     C
C       0.0103   0.5153   0.3185     C
N       0.0231   0.6578   0.8634     N
H       0.0458   0.3411   0.9009     H
N       0.0524   0.5528   0.9085     N
N       0.0546     0.35   0.2557     N
N       0.0789   0.4548   0.2268     N
H       0.1109   0.7588   0.3839     H
C       0.1161   0.6808    0.377     C
H       0.1348   0.6536   0.4883     H
Cu     0.17687  0.51429  0.05505    Cu
O          0.2    0.651   0.2561     O
H       0.2045    0.272   0.4714     H
H       0.2412   0.1109   0.6339     H
H       0.2664   0.3152   0.6319     H
H        0.272   0.7955   0.2214     H
C       0.2749   0.2918   0.5155     C
N       0.2759   0.6001   0.9169     N
N       0.2763   0.6073   0.7465     N
H       0.2806   0.4457   0.4198     H
N       0.2917   0.4018   0.0946     N
C       0.2918   0.7251   0.2655     C
H       0.3152   0.7336   0.3819     H
C       0.3192   0.1161    0.627     C
C       0.3248   0.3815   0.4088     C
N       0.3263   0.3539   0.9526     N
C       0.3363   0.3549   0.2227     C
H       0.3379   0.9919   0.4616     H
H       0.3411   0.9542   0.6509     H
N       0.3422   0.0231   0.1134     N
H       0.3464   0.1348   0.7383     H
O        0.349      0.2   0.5061     O
N         0.35   0.9454   0.0057     N
N       0.3539   0.6737   0.7026     N
C       0.3549   0.6637   0.9727     C
C       0.3652   0.0098   0.5731     C
C       0.3815   0.6752   0.1588     C
N       0.3927   0.2763   0.9965     N
H       0.3956   0.3983    0.454     H
H       0.3983   0.6044    0.204     H
N       0.3999   0.2759   0.1669     N
N       0.4018   0.7083   0.8446     N
H       0.4457   0.7194   0.1698     H
N       0.4472   0.0524   0.1585     N
N       0.4548   0.9211   0.9768     N
C       0.4847   0.0103   0.5685     C
Cu     0.48571  0.17687  0.30505    Cu
Cu     0.51429  0.82313  0.80505    Cu
C       0.5153   0.9897   0.0685     C
N       0.5452   0.0789   0.4768     N
N       0.5528   0.9476   0.6585     N
H       0.5543   0.2806   0.6698     H
N       0.5982   0.2917   0.3446     N
N       0.6001   0.7241   0.6669     N
H       0.6017   0.3956    0.704     H
H       0.6044   0.6017    0.954     H
N       0.6073   0.7237   0.4965     N
C       0.6185   0.3248   0.6588     C
C       0.6348   0.9902   0.0731     C
C       0.6451   0.3363   0.4727     C
N       0.6461   0.3263   0.2026     N
N         0.65   0.0546   0.5057     N
O        0.651      0.8   0.0061     O
H       0.6536   0.8652   0.2383     H
N       0.6578   0.9769   0.6134     N
H       0.6589   0.0458   0.1509     H
H       0.6621   0.0081   0.9616     H
C       0.6637   0.6451   0.7227     C
N       0.6737   0.6461   0.4526     N
C       0.6752   0.6185   0.9088     C
C       0.6808   0.8839    0.127     C
H       0.6848   0.2664   0.8819     H
C       0.7082   0.2749   0.7655     C
N       0.7083   0.5982   0.5946     N
H       0.7194   0.5543   0.9198     H
N       0.7237   0.3927   0.2465     N
N       0.7241   0.3999   0.4169     N
C       0.7251   0.7082   0.0155     C
H        0.728   0.2045   0.7214     H
H       0.7336   0.6848   0.1319     H
H       0.7588   0.8891   0.1339     H
H       0.7955    0.728   0.9714     H
O          0.8    0.349   0.7561     O
Cu     0.82313  0.48571  0.55505    Cu
H       0.8652   0.3464   0.9883     H
C       0.8839   0.3192    0.877     C
H       0.8891   0.2412   0.8839     H
N       0.9211   0.5452   0.7268     N
N       0.9454     0.65   0.7557     N
N       0.9476   0.4472   0.4085     N
H       0.9542   0.6589   0.4009     H
N       0.9769   0.3422   0.3634     N
C       0.9897   0.4847   0.8185     C
C       0.9902   0.3652   0.8231     C
H       0.9919   0.6621   0.2116     H
