data_I
_chemical_name_common  '/home/zhangsd/repos/MofS-CGCNN/ML/data/TSD/clean_cifs/CEBDOD_clean'
_cell_length_a  7.18620
_cell_length_b 13.48360
_cell_length_c 13.48360
_cell_angle_alpha 119.43100
_cell_angle_beta  97.53290
_cell_angle_gamma 82.46710
_space_group_name_H-M_alt      'P 1'


loop_
_space_group_symop_operation_xyz
  'x, y, z' 

loop_
_atom_site_label
_atom_site_fract_x
_atom_site_fract_y
_atom_site_fract_z
_atom_site_type_symbol
O         0.01  0.85991  0.37629     O
H        0.027     0.79    0.558     H
C       0.0312   0.1442   0.4308     C
O       0.0631  0.26941  0.03399     O
O       0.0709  0.91848  0.03852     O
H        0.101    0.986    0.792     H
P      0.10205  0.80278  0.03416     P
Ba     0.10959  0.33181  0.84871    Ba
N         0.11  0.94268  0.62832     N
H        0.122    0.124    0.394     H
P      0.14534  0.14568  0.56022     P
O       0.1475  0.80695  0.14845     O
C       0.1925  0.95115  0.73885     C
O       0.2099  0.52363  0.04397     O
H         0.23    0.874    0.728     H
O       0.2382  0.25857  0.62743     O
Ba        0.25  0.10062  0.10062    Ba
O       0.2618  0.62743  0.25857     O
H         0.27    0.728    0.874     H
O       0.2901  0.04397  0.52363     O
C       0.3075  0.73885  0.95115     C
O       0.3525  0.14845  0.80695     O
P      0.35466  0.56022  0.14568     P
H        0.378    0.394    0.124     H
N         0.39  0.62832  0.94268     N
Ba     0.39041  0.84871  0.33181    Ba
P      0.39795  0.03416  0.80278     P
H        0.399    0.792    0.986     H
O       0.4291  0.03852  0.91848     O
O       0.4369  0.03399  0.26941     O
C       0.4688   0.4308   0.1442     C
H        0.473    0.558     0.79     H
O         0.49  0.37629  0.85991     O
O         0.51  0.62371  0.14009     O
H        0.527    0.442     0.21     H
C       0.5312   0.5692   0.8558     C
O       0.5631  0.96601  0.73059     O
O       0.5709  0.96148  0.08152     O
H        0.601    0.208    0.014     H
P      0.60205  0.96584  0.19722     P
Ba     0.60959  0.15129  0.66819    Ba
N         0.61  0.37168  0.05732     N
H        0.622    0.606    0.876     H
P      0.64534  0.43978  0.85432     P
O       0.6475  0.85155  0.19305     O
C       0.6925  0.26115  0.04885     C
O       0.7099  0.95603  0.47637     O
H         0.73    0.272    0.126     H
O       0.7382  0.37257  0.74143     O
Ba        0.75  0.89938  0.89938    Ba
O       0.7618  0.74143  0.37257     O
H         0.77    0.126    0.272     H
O       0.7901  0.47637  0.95603     O
C       0.8075  0.04885  0.26115     C
O       0.8525  0.19305  0.85155     O
P      0.85466  0.85432  0.43978     P
H        0.878    0.876    0.606     H
N         0.89  0.05732  0.37168     N
Ba     0.89041  0.66819  0.15129    Ba
P      0.89795  0.19722  0.96584     P
H        0.899    0.014    0.208     H
O       0.9291  0.08152  0.96148     O
O       0.9369  0.73059  0.96601     O
C       0.9688   0.8558   0.5692     C
H        0.973     0.21    0.442     H
O         0.99  0.14009  0.62371     O
