data_I
_chemical_name_common  '/home/zhangsd/repos/MofS-CGCNN/ML/data/TSD/clean_cifs/CELZIE_SL'
_cell_length_a 21.36090
_cell_length_b 21.36090
_cell_length_c 10.56980
_cell_angle_alpha 90.00000
_cell_angle_beta  90.00000
_cell_angle_gamma 90.00000
_space_group_name_H-M_alt      'P 1'


loop_
_space_group_symop_operation_xyz
  'x, y, z' 

loop_
_atom_site_label
_atom_site_fract_x
_atom_site_fract_y
_atom_site_fract_z
_atom_site_type_symbol
C      0.00496  0.28673   0.3319     C
C      0.00496  0.78673   0.9181     C
C      0.00683  0.14065   0.4559     C
C      0.00683  0.64065   0.7941     C
H      0.00718  0.23078  0.01699     H
H      0.00718  0.73078  0.23301     H
H      0.01148  0.37928  0.88705     H
H      0.01148  0.87928  0.36295     H
H      0.02627  0.18965  0.43906     H
H      0.02627  0.68965  0.81094     H
C      0.03019  0.32772  0.58538     C
C      0.03019  0.82772  0.66462     C
C      0.03258   0.1827  0.70623     C
C      0.03258   0.6827  0.54377     C
O      0.04264  0.35631  0.70514     O
O      0.04264  0.85631  0.54486     O
C      0.04436   0.2033  0.82563     C
C      0.04436   0.7033  0.42437     C
H      0.04554  0.10913  0.49407     H
H      0.04554  0.60913  0.75593     H
C      0.06251  0.30016  0.37674     C
C      0.06251  0.80016  0.87326     C
H        0.073  0.17358  0.63826     H
H        0.073  0.67358  0.61174     H
C      0.07891  0.32129  0.50022     C
C      0.07891  0.82129  0.74978     C
H      0.10913  0.45446  0.74407     H
H      0.10913  0.95446  0.50593     H
C      0.11117  0.20927  0.87083     C
C      0.11117  0.70927  0.37917     C
O      0.11477  0.25134  0.95359     O
O      0.11477  0.75134  0.29641     O
O      0.11705  0.26078   0.2026     O
O      0.11705  0.76078   0.0474     O
H      0.12072  0.01148  0.63705     H
H      0.12072  0.51148  0.61295     H
C      0.12538  0.29456  0.29996     C
C      0.12538  0.79456  0.95004     C
H      0.12988  0.33185  0.52406     H
H      0.12988  0.83185  0.72594     H
C      0.14065  0.49317   0.7059     C
C      0.14065  0.99317   0.5441     C
O      0.14369  0.04264  0.45514     O
O      0.14369  0.54264  0.79486     O
O      0.15452  0.18607  0.80593     O
O      0.15452  0.68607  0.44407     O
H      0.16815  0.12988  0.27406     H
H      0.16815  0.62988  0.97594     H
C      0.17228  0.03019  0.33538     C
C      0.17228  0.53019  0.91462     C
H      0.17358    0.427  0.88826     H
H      0.17358    0.927  0.36174     H
O      0.17513  0.32042  0.33898     O
O      0.17513  0.82042  0.91102     O
C      0.17871  0.07891  0.25022     C
C      0.17871  0.57891  0.99978     C
O      0.17958  0.17513  0.08898     O
O      0.17958  0.67513  0.16102     O
C       0.1827  0.46742  0.95623     C
C       0.1827  0.96742  0.29377     C
Al     0.18325  0.25939  0.07097    Al
Al     0.18325  0.75939  0.17903    Al
O      0.18607  0.34548  0.05593     O
O      0.18607  0.84548  0.19407     O
H      0.18965  0.47373  0.68906     H
H      0.18965  0.97373  0.56094     H
C      0.19984  0.06251  0.12674     C
C      0.19984  0.56251  0.12326     C
C       0.2033  0.45564  0.07563     C
C       0.2033  0.95564  0.17437     C
C      0.20544  0.12538  0.04996     C
C      0.20544  0.62538  0.20004     C
C      0.20927  0.38883  0.12083     C
C      0.20927  0.88883  0.12917     C
C      0.21327  0.00496   0.0819     C
C      0.21327  0.50496   0.1681     C
H      0.21331  0.27536  0.68899     H
H      0.21331  0.77536  0.56101     H
H      0.22464  0.21331  0.43899     H
H      0.22464  0.71331  0.81101     H
H      0.23078  0.49282  0.26699     H
H      0.23078  0.99282  0.98301     H
O      0.23791  0.24924  0.93899     O
O      0.23791  0.74924  0.31101     O
O      0.23922  0.11705   0.9526     O
O      0.23922  0.61705   0.2974     O
Al     0.24061  0.18325  0.82097    Al
Al     0.24061  0.68325  0.42903    Al
O      0.24866  0.11477  0.70359     O
O      0.24866  0.61477  0.54641     O
O      0.24924  0.26209  0.18899     O
O      0.24924  0.76209  0.06101     O
O      0.25076  0.23791  0.68899     O
O      0.25076  0.73791  0.56101     O
O      0.25134  0.38523  0.20359     O
O      0.25134  0.88523  0.04641     O
Al     0.25939  0.31675  0.32097    Al
Al     0.25939  0.81675  0.92903    Al
O      0.26078  0.38295   0.4526     O
O      0.26078  0.88295   0.7974     O
O      0.26209  0.25076  0.43899     O
O      0.26209  0.75076  0.81101     O
H      0.26922  0.00718  0.76699     H
H      0.26922  0.50718  0.48301     H
H      0.27536  0.28669  0.93899     H
H      0.27536  0.78669  0.31101     H
H      0.28669  0.22464  0.18899     H
H      0.28669  0.72464  0.06101     H
C      0.28673  0.49504   0.5819     C
C      0.28673  0.99504   0.6681     C
C      0.29073  0.11117  0.62083     C
C      0.29073  0.61117  0.62917     C
C      0.29456  0.37462  0.54996     C
C      0.29456  0.87462  0.70004     C
C       0.2967  0.04436  0.57563     C
C       0.2967  0.54436  0.67437     C
C      0.30016  0.43749  0.62674     C
C      0.30016  0.93749  0.62326     C
H      0.31035  0.02627  0.18906     H
H      0.31035  0.52627  0.06094     H
O      0.31393  0.15452  0.55593     O
O      0.31393  0.65452  0.69407     O
Al     0.31675  0.24061  0.57097    Al
Al     0.31675  0.74061  0.67903    Al
C       0.3173  0.03258  0.45623     C
C       0.3173  0.53258  0.79377     C
O      0.32042  0.32487  0.58898     O
O      0.32042  0.82487  0.66102     O
C      0.32129  0.42109  0.75022     C
C      0.32129  0.92109  0.49978     C
O      0.32487  0.17958  0.83898     O
O      0.32487  0.67958  0.41102     O
H      0.32642    0.073  0.38826     H
H      0.32642    0.573  0.86174     H
C      0.32772  0.46981  0.83538     C
C      0.32772  0.96981  0.41462     C
H      0.33185  0.37012  0.77406     H
H      0.33185  0.87012  0.47594     H
O      0.34548  0.31393  0.30593     O
O      0.34548  0.81393  0.94407     O
O      0.35631  0.45736  0.95514     O
O      0.35631  0.95736  0.29486     O
C      0.35935  0.00683   0.2059     C
C      0.35935  0.50683   0.0441     C
H      0.37012  0.16815  0.02406     H
H      0.37012  0.66815  0.22594     H
C      0.37462  0.20544  0.79996     C
C      0.37462  0.70544  0.45004     C
H      0.37928  0.48852  0.13705     H
H      0.37928  0.98852  0.11295     H
O      0.38295  0.23922   0.7026     O
O      0.38295  0.73922   0.5474     O
O      0.38523  0.24866  0.45359     O
O      0.38523  0.74866  0.79641     O
C      0.38883  0.29073  0.37083     C
C      0.38883  0.79073  0.87917     C
H      0.39087  0.04554  0.24407     H
H      0.39087  0.54554  0.00593     H
C      0.42109  0.17871  0.00022     C
C      0.42109  0.67871  0.24978     C
H        0.427  0.32642  0.13826     H
H        0.427  0.82642  0.11174     H
C      0.43749  0.19984  0.87674     C
C      0.43749  0.69984  0.37326     C
H      0.45446  0.39087  0.99407     H
H      0.45446  0.89087  0.25593     H
C      0.45564   0.2967  0.32563     C
C      0.45564   0.7967  0.92437     C
O      0.45736  0.14369  0.20514     O
O      0.45736  0.64369  0.04486     O
C      0.46742   0.3173  0.20623     C
C      0.46742   0.8173  0.04377     C
C      0.46981  0.17228  0.08538     C
C      0.46981  0.67228  0.16462     C
H      0.47373  0.31035  0.93906     H
H      0.47373  0.81035  0.31094     H
H      0.48852  0.12072  0.38705     H
H      0.48852  0.62072  0.86295     H
H      0.49282  0.26922  0.51699     H
H      0.49282  0.76922  0.73301     H
C      0.49317  0.35935   0.9559     C
C      0.49317  0.85935   0.2941     C
C      0.49504  0.21327   0.8319     C
C      0.49504  0.71327   0.4181     C
C      0.50496  0.28673   0.4181     C
C      0.50496  0.78673   0.8319     C
C      0.50683  0.14065   0.2941     C
C      0.50683  0.64065   0.9559     C
H      0.50718  0.23078  0.73301     H
H      0.50718  0.73078  0.51699     H
H      0.51148  0.37928  0.86295     H
H      0.51148  0.87928  0.38705     H
H      0.52627  0.18965  0.31094     H
H      0.52627  0.68965  0.93906     H
C      0.53019  0.32772  0.16462     C
C      0.53019  0.82772  0.08538     C
C      0.53258   0.1827  0.04377     C
C      0.53258   0.6827  0.20623     C
O      0.54264  0.35631  0.04486     O
O      0.54264  0.85631  0.20514     O
C      0.54436   0.2033  0.92437     C
C      0.54436   0.7033  0.32563     C
H      0.54554  0.10913  0.25593     H
H      0.54554  0.60913  0.99407     H
C      0.56251  0.30016  0.37326     C
C      0.56251  0.80016  0.87674     C
H        0.573  0.17358  0.11174     H
H        0.573  0.67358  0.13826     H
C      0.57891  0.32129  0.24978     C
C      0.57891  0.82129  0.00022     C
H      0.60913  0.45446  0.00593     H
H      0.60913  0.95446  0.24407     H
C      0.61117  0.20927  0.87917     C
C      0.61117  0.70927  0.37083     C
O      0.61477  0.25134  0.79641     O
O      0.61477  0.75134  0.45359     O
O      0.61705  0.26078   0.5474     O
O      0.61705  0.76078   0.7026     O
H      0.62072  0.01148  0.11295     H
H      0.62072  0.51148  0.13705     H
C      0.62538  0.29456  0.45004     C
C      0.62538  0.79456  0.79996     C
H      0.62988  0.33185  0.22594     H
H      0.62988  0.83185  0.02406     H
C      0.64065  0.49317   0.0441     C
C      0.64065  0.99317   0.2059     C
O      0.64369  0.04264  0.29486     O
O      0.64369  0.54264  0.95514     O
O      0.65452  0.18607  0.94407     O
O      0.65452  0.68607  0.30593     O
H      0.66815  0.12988  0.47594     H
H      0.66815  0.62988  0.77406     H
C      0.67228  0.03019  0.41462     C
C      0.67228  0.53019  0.83538     C
H      0.67358    0.427  0.86174     H
H      0.67358    0.927  0.38826     H
O      0.67513  0.32042  0.41102     O
O      0.67513  0.82042  0.83898     O
C      0.67871  0.07891  0.49978     C
C      0.67871  0.57891  0.75022     C
O      0.67958  0.17513  0.66102     O
O      0.67958  0.67513  0.58898     O
C       0.6827  0.46742  0.79377     C
C       0.6827  0.96742  0.45623     C
Al     0.68325  0.25939  0.67903    Al
Al     0.68325  0.75939  0.57097    Al
O      0.68607  0.34548  0.69407     O
O      0.68607  0.84548  0.55593     O
H      0.68965  0.47373  0.06094     H
H      0.68965  0.97373  0.18906     H
C      0.69984  0.06251  0.62326     C
C      0.69984  0.56251  0.62674     C
C       0.7033  0.45564  0.67437     C
C       0.7033  0.95564  0.57563     C
C      0.70544  0.12538  0.70004     C
C      0.70544  0.62538  0.54996     C
C      0.70927  0.38883  0.62917     C
C      0.70927  0.88883  0.62083     C
C      0.71327  0.00496   0.6681     C
C      0.71327  0.50496   0.5819     C
H      0.71331  0.27536  0.06101     H
H      0.71331  0.77536  0.18899     H
H      0.72464  0.21331  0.31101     H
H      0.72464  0.71331  0.93899     H
H      0.73078  0.49282  0.48301     H
H      0.73078  0.99282  0.76699     H
O      0.73791  0.24924  0.81101     O
O      0.73791  0.74924  0.43899     O
O      0.73922  0.11705   0.7974     O
O      0.73922  0.61705   0.4526     O
Al     0.74061  0.18325  0.92903    Al
Al     0.74061  0.68325  0.32097    Al
O      0.74866  0.11477  0.04641     O
O      0.74866  0.61477  0.20359     O
O      0.74924  0.26209  0.56101     O
O      0.74924  0.76209  0.68899     O
O      0.75076  0.23791  0.06101     O
O      0.75076  0.73791  0.18899     O
O      0.75134  0.38523  0.54641     O
O      0.75134  0.88523  0.70359     O
Al     0.75939  0.31675  0.42903    Al
Al     0.75939  0.81675  0.82097    Al
O      0.76078  0.38295   0.2974     O
O      0.76078  0.88295   0.9526     O
O      0.76209  0.25076  0.31101     O
O      0.76209  0.75076  0.93899     O
H      0.76922  0.00718  0.98301     H
H      0.76922  0.50718  0.26699     H
H      0.77536  0.28669  0.81101     H
H      0.77536  0.78669  0.43899     H
H      0.78669  0.22464  0.56101     H
H      0.78669  0.72464  0.68899     H
C      0.78673  0.49504   0.1681     C
C      0.78673  0.99504   0.0819     C
C      0.79073  0.11117  0.12917     C
C      0.79073  0.61117  0.12083     C
C      0.79456  0.37462  0.20004     C
C      0.79456  0.87462  0.04996     C
C       0.7967  0.04436  0.17437     C
C       0.7967  0.54436  0.07563     C
C      0.80016  0.43749  0.12326     C
C      0.80016  0.93749  0.12674     C
H      0.81035  0.02627  0.56094     H
H      0.81035  0.52627  0.68906     H
O      0.81393  0.15452  0.19407     O
O      0.81393  0.65452  0.05593     O
Al     0.81675  0.24061  0.17903    Al
Al     0.81675  0.74061  0.07097    Al
C       0.8173  0.03258  0.29377     C
C       0.8173  0.53258  0.95623     C
O      0.82042  0.32487  0.16102     O
O      0.82042  0.82487  0.08898     O
C      0.82129  0.42109  0.99978     C
C      0.82129  0.92109  0.25022     C
O      0.82487  0.17958  0.91102     O
O      0.82487  0.67958  0.33898     O
H      0.82642    0.073  0.36174     H
H      0.82642    0.573  0.88826     H
C      0.82772  0.46981  0.91462     C
C      0.82772  0.96981  0.33538     C
H      0.83185  0.37012  0.97594     H
H      0.83185  0.87012  0.27406     H
O      0.84548  0.31393  0.44407     O
O      0.84548  0.81393  0.80593     O
O      0.85631  0.45736  0.79486     O
O      0.85631  0.95736  0.45514     O
C      0.85935  0.00683   0.5441     C
C      0.85935  0.50683   0.7059     C
H      0.87012  0.16815  0.72594     H
H      0.87012  0.66815  0.52406     H
C      0.87462  0.20544  0.95004     C
C      0.87462  0.70544  0.29996     C
H      0.87928  0.48852  0.61295     H
H      0.87928  0.98852  0.63705     H
O      0.88295  0.23922   0.0474     O
O      0.88295  0.73922   0.2026     O
O      0.88523  0.24866  0.29641     O
O      0.88523  0.74866  0.95359     O
C      0.88883  0.29073  0.37917     C
C      0.88883  0.79073  0.87083     C
H      0.89087  0.04554  0.50593     H
H      0.89087  0.54554  0.74407     H
C      0.92109  0.17871  0.74978     C
C      0.92109  0.67871  0.50022     C
H        0.927  0.32642  0.61174     H
H        0.927  0.82642  0.63826     H
C      0.93749  0.19984  0.87326     C
C      0.93749  0.69984  0.37674     C
H      0.95446  0.39087  0.75593     H
H      0.95446  0.89087  0.49407     H
C      0.95564   0.2967  0.42437     C
C      0.95564   0.7967  0.82563     C
O      0.95736  0.14369  0.54486     O
O      0.95736  0.64369  0.70514     O
C      0.96742   0.3173  0.54377     C
C      0.96742   0.8173  0.70623     C
C      0.96981  0.17228  0.66462     C
C      0.96981  0.67228  0.58538     C
H      0.97373  0.31035  0.81094     H
H      0.97373  0.81035  0.43906     H
H      0.98852  0.12072  0.36295     H
H      0.98852  0.62072  0.88705     H
H      0.99282  0.26922  0.23301     H
H      0.99282  0.76922  0.01699     H
C      0.99317  0.35935   0.7941     C
C      0.99317  0.85935   0.4559     C
C      0.99504  0.21327   0.9181     C
C      0.99504  0.71327   0.3319     C
