data_I
_chemical_name_common  '/home/zhangsd/repos/MofS-CGCNN/ML/data/TSD/clean_cifs/CETGOY_clean'
_cell_length_a 14.90700
_cell_length_b 25.53100
_cell_length_c 25.53100
_cell_angle_alpha 120.00000
_cell_angle_beta  90.00000
_cell_angle_gamma 90.00000
_space_group_name_H-M_alt      'P 1'


loop_
_space_group_symop_operation_xyz
  'x, y, z' 

loop_
_atom_site_label
_atom_site_fract_x
_atom_site_fract_y
_atom_site_fract_z
_atom_site_type_symbol
H       0.0097   0.1499   0.6408     H
H       0.0123   0.0764   0.2494     H
C       0.0129   0.8695   0.6667     C
C       0.0159   0.1228   0.6574     C
C      0.01793   0.6857   0.4961     C
C       0.0211   0.9209   0.6614     C
C      0.02293   0.7774   0.4838     C
H        0.025   0.7589   0.6496     H
H       0.0253   0.7648   0.7428     H
H      0.02553   0.6104   0.5027     H
C      0.02853    0.857   0.4604     C
C       0.0321   0.0577   0.6053     C
H       0.0371   0.9707   0.5877     H
C       0.0383   0.0104   0.6264     C
H       0.0391    0.445    0.321     H
O       0.0401  0.47035  0.48514     O
C       0.0408   0.8012   0.7411     C
H       0.0433   0.3397   0.2977     H
H       0.0447   0.1875   0.3343     H
C       0.0455    0.349   0.3403     C
H      0.04567   0.1897   0.5015     H
C       0.0469   0.4782   0.4405     C
C       0.0508   0.2911   0.3423     C
N      0.05937   0.4027   0.5407     N
C      0.06073   0.6389   0.4983     C
H      0.06443   0.8832   0.4528     H
C      0.06563   0.7289   0.4905     C
H       0.0668   0.1358   0.6854     H
C      0.06747   0.2988   0.5138     C
C      0.07153   0.8157   0.4718     C
H       0.0722    0.489   0.6713     H
C       0.0732   0.7835   0.6789     C
H       0.0738   0.2996   0.3821     H
H      0.07453   0.6416   0.0071     H
H      0.07713   0.5812   0.0513     H
H        0.085   0.0633   0.7481     H
H       0.0882   0.8235   0.7706     H
C       0.0891   0.8419   0.6733     C
H       0.0925   0.2626   0.3107     H
H      0.09403   0.6703   0.9335     H
H       0.0995   0.3739   0.3595     H
H      0.10467   0.2647   0.5031     H
C       0.1055   0.9447   0.6627     C
C      0.10617   0.3537    0.527     C
H      0.10783   0.6791   0.8469     H
O       0.1095  0.50614  0.43195     O
Ni     0.11727  0.48358  0.55502    Ni
H       0.1179    0.016   0.5307     H
C       0.1186   0.0538   0.5704     C
H       0.1206   0.0883   0.5629     H
C       0.1242   0.0068   0.6584     C
H       0.1255   0.5889    0.576     H
H      0.12763   0.6435   0.0943     H
H      0.12823   0.6902   0.7681     H
C      0.13083     0.62   0.0049     C
C      0.13093   0.6055    0.055     C
H      0.13143   0.5818   0.9657     H
H      0.13513   0.8139   0.4713     H
C       0.1357   0.4905   0.6747     C
C        0.136   0.0613   0.7229     C
H       0.1369   0.4852   0.7512     H
H       0.1389   0.0987   0.7211     H
H      0.14173   0.7405   0.0565     H
H       0.1434   0.7094   0.6679     H
N      0.14943  0.63243   0.4946     N
C      0.15163   0.6694   0.9172     C
C        0.156   0.7445   0.6632     C
C      0.15953   0.7225   0.4883     C
C      0.15983   0.6747   0.8658     C
H      0.16023   0.6212   0.7307     H
H      0.16367   0.5262    0.356     H
O      0.16667  0.56299  0.56299     O
H      0.16967    0.356   0.5262     H
H       0.1731   0.7307   0.6212     H
C       0.1735   0.8658   0.6747     C
C       0.1738   0.4883   0.7225     C
C      0.17733   0.6632   0.7445     C
C       0.1817   0.9172   0.6694     C
N       0.1839   0.4946  0.63243     N
H      0.18993   0.6679   0.7094     H
H       0.1916   0.0565   0.7405     H
H      0.19443   0.7211   0.0987     H
H      0.19643   0.7512   0.4852     H
C      0.19733   0.7229   0.0613     C
C      0.19763   0.6747   0.4905     C
H       0.1982   0.4713   0.8139     H
H       0.2019   0.9657   0.5818     H
C       0.2024    0.055   0.6055     C
C       0.2025   0.0049     0.62     C
H       0.2051   0.7681   0.6902     H
H       0.2057   0.0943   0.6435     H
H      0.20783    0.576   0.5889     H
C      0.20913   0.6584   0.0068     C
H      0.21273   0.5629   0.0883     H
C      0.21473   0.5704   0.0538     C
H      0.21543   0.5307    0.016     H
Ni     0.21606  0.55502  0.48358    Ni
O      0.22383  0.43195  0.50614     O
H       0.2255   0.8469   0.6791     H
C      0.22717    0.527   0.3537     C
C      0.22783   0.6627   0.9447     C
H      0.22867   0.5031   0.2647     H
H      0.23383   0.3595   0.3739     H
H       0.2393   0.9335   0.6703     H
H      0.24083   0.3107   0.2626     H
C      0.24423   0.6733   0.8419     C
H      0.24513   0.7706   0.8235     H
H      0.24833   0.7481   0.0633     H
H       0.2562   0.0513   0.5812     H
H       0.2588   0.0071   0.6416     H
H      0.25953   0.3821   0.2996     H
C      0.26013   0.6789   0.7835     C
H      0.26113   0.6713    0.489     H
C       0.2618   0.4718   0.8157     C
C      0.26587   0.5138   0.2988     C
H      0.26653   0.6854   0.1358     H
C       0.2677   0.4905   0.7289     C
H       0.2689   0.4528   0.8832     H
C       0.2726   0.4983   0.6389     C
N      0.27397   0.5407   0.4027     N
C      0.28253   0.3423   0.2911     C
C      0.28643   0.4405   0.4782     C
H      0.28767   0.5015   0.1897     H
C      0.28783   0.3403    0.349     C
H      0.28863   0.3343   0.1875     H
H      0.29003   0.2977   0.3397     H
C      0.29253   0.7411   0.8012     C
O      0.29323  0.48514  0.47035     O
H      0.29423    0.321    0.445     H
C      0.29503   0.6264   0.0104     C
H      0.29623   0.5877   0.9707     H
C      0.30123   0.6053   0.0577     C
C       0.3048   0.4604    0.857     C
H       0.3078   0.5027   0.6104     H
H      0.30803   0.7428   0.7648     H
H      0.30833   0.6496   0.7589     H
C       0.3104   0.4838   0.7774     C
C      0.31223   0.6614   0.9209     C
C       0.3154   0.4961   0.6857     C
C      0.31743   0.6574   0.1228     C
C      0.32043   0.6667   0.8695     C
H      0.32103   0.2494   0.0764     H
H      0.32363   0.6408   0.1499     H
H      0.34303   0.3592   0.5091     H
H      0.34563   0.7506    0.827     H
C      0.34623   0.3333   0.2028     C
C      0.34923   0.3426   0.4654     C
C      0.35127   0.5039   0.1896     C
C      0.35443   0.3386   0.2595     C
C      0.35627   0.5162   0.2936     C
H      0.35833   0.3504   0.1093     H
H      0.35863   0.2572    0.022     H
H      0.35887   0.4973   0.1077     H
C      0.36187   0.5396   0.3966     C
C      0.36543   0.3947   0.4524     C
H      0.37043   0.4123    0.383     H
C      0.37163   0.3736    0.384     C
H      0.37243    0.679    0.124     H
O      0.37343  0.51486  0.98521     O
C      0.37413   0.2589   0.0601     C
H      0.37663   0.7023    0.042     H
H      0.37803   0.6657   0.8532     H
C      0.37883   0.6597   0.0087     C
H        0.379   0.4985   0.6882     H
C      0.38023   0.5595   0.0377     C
C      0.38413   0.6577   0.9488     C
N       0.3927   0.4593    0.862     N
C      0.39407   0.5017   0.1406     C
H      0.39777   0.5472   0.4304     H
C      0.39897   0.5095   0.2384     C
H      0.40013   0.3146   0.4504     H
C       0.4008   0.4862    0.785     C
C      0.40487   0.5282   0.3439     C
H      0.40553   0.3287   0.8177     H
C      0.40653   0.3211   0.1046     C
H      0.40713   0.6179   0.9175     H
H      0.40787   0.9929   0.6345     H
H      0.41047   0.9487   0.5299     H
H      0.41833   0.2519   0.3152     H
H      0.42153   0.2294   0.0529     H
C      0.42243   0.3267   0.1686     C
H      0.42583   0.6893   0.9519     H
H      0.42737   0.0665   0.7368     H
H      0.43283   0.6405   0.0144     H
H        0.438   0.4969   0.7616     H
C      0.43883   0.3373    0.282     C
C       0.4395    0.473   0.8267     C
H      0.44117   0.1531   0.8322     H
O      0.44283  0.56805  0.07419     O
Ni      0.4506  0.44498  0.92856    Ni
H      0.45123   0.4693   0.4853     H
C      0.45193   0.4296   0.4834     C
H      0.45393   0.4371   0.5254     H
C      0.45753   0.3416   0.3484     C
H      0.45883    0.424   0.0129     H
H      0.46097   0.9057   0.5492     H
H      0.46157   0.2319   0.9221     H
C      0.46417   0.9951   0.6151     C
C      0.46427    0.945   0.5505     C
H      0.46477   0.0343   0.6161     H
H      0.46847   0.5287   0.3426     H
C      0.46903   0.3253   0.8158     C
C      0.46933   0.2771   0.3384     C
H      0.47023   0.2488    0.734     H
H      0.47223   0.2789   0.3776     H
H      0.47507   0.9435    0.684     H
H      0.47673   0.3321   0.0415     H
N      0.48277   0.5054  0.13783     N
C      0.48497   0.0828   0.7522     C
C      0.48933   0.3368   0.0813     C
C      0.49287   0.5117   0.2342     C
C      0.49317   0.1342   0.8089     C
H      0.49357   0.2693   0.8905     H
H        0.497    0.644   0.1702     H
O          0.5  0.43701     -0.0     O
H        0.503   0.4738   0.8298     H
H      0.50643   0.3788   0.1095     H
C      0.50683   0.3253   0.1911     C
C      0.50713   0.2775   0.7658     C
C      0.51067   0.2555   0.9187     C
C      0.51503   0.3306   0.2478     C
N      0.51723  0.36757  0.86217     N
H      0.52327   0.2906   0.9585     H
H      0.52493   0.2595    0.316     H
H      0.52777   0.9013   0.6224     H
H      0.52977   0.5148    0.266     H
C      0.53067   0.9387   0.6616     C
C      0.53097   0.5095   0.1842     C
H      0.53153   0.1861   0.6574     H
H      0.53523   0.4182   0.3839     H
C      0.53573   0.3945   0.4495     C
C      0.53583     0.38   0.3849     C
H      0.53843   0.3098   0.0779     H
H      0.53903   0.3565   0.4508     H
H      0.54117   0.4111   0.9871     H
C      0.54247   0.9932   0.6516     C
H      0.54607   0.9117   0.4746     H
C      0.54807   0.9462   0.5166     C
H      0.54877    0.984   0.5147     H
Ni      0.5494  0.51642  0.07144    Ni
O      0.55717  0.49386  0.92581     O
H      0.55883   0.3209   0.1678     H
C       0.5605   0.6463   0.1733     C
C      0.56117   0.0553    0.718     C
H        0.562   0.7353   0.2384     H
H      0.56717   0.6261   0.9856     H
H      0.57263   0.3297   0.2632     H
H      0.57417   0.7374   0.0481     H
C      0.57757   0.1581   0.8314     C
H      0.57847   0.1765   0.9471     H
H      0.58167   0.9367   0.6848     H
H      0.58953   0.4188   0.4701     H
H      0.59213   0.3584   0.3655     H
H      0.59287   0.7004   0.0825     H
C      0.59347   0.2165   0.8954     C
H      0.59447    0.511   0.1823     H
C      0.59513   0.1843   0.6561     C
C       0.5992   0.7012    0.215     C
H      0.59987   0.8642   0.5496     H
C      0.60103   0.2711   0.7616     C
H      0.60223   0.1168   0.5696     H
C      0.60593   0.3611   0.8594     C
N       0.6073   0.5973    0.138     N
C      0.61587   0.7089   0.0512     C
C      0.61977   0.5218   0.9623     C
H        0.621   0.8103   0.3118     H
C      0.62117    0.651   0.9913     C
H      0.62197   0.8125   0.1468     H
H      0.62337   0.6603    0.958     H
C      0.62587   0.1988   0.9399     C
O      0.62657  0.52965  0.01479     O
H      0.62757    0.555    0.876     H
C      0.62837   0.9896    0.616     C
H      0.62957   0.0293    0.617     H
C      0.63457   0.9423   0.5476     C
C      0.63813    0.143   0.6034     C
H      0.64113   0.3896   0.8923     H
H      0.64137   0.2352    0.978     H
H      0.64167   0.2411   0.8907     H
C      0.64373   0.2226   0.7064     C
C      0.64557   0.0791   0.7405     C
C      0.64873   0.3143   0.8104     C
C      0.65077   0.8772   0.5346     C
C      0.65377   0.1305   0.7972     C
H      0.65437   0.9236    0.173     H
H      0.65697   0.8501   0.4909     H
H      0.67637   0.4909   0.8501     H
H      0.67897    0.173   0.9236     H
C      0.67957   0.7972   0.1305     C
C      0.68257   0.5346   0.8772     C
C       0.6846   0.8104   0.3143     C
C      0.68777   0.7405   0.0791     C
C       0.6896   0.7064   0.2226     C
H      0.69167   0.8907   0.2411     H
H      0.69197    0.978   0.2352     H
H       0.6922   0.8923   0.3896     H
C       0.6952   0.6034    0.143     C
C      0.69877   0.5476   0.9423     C
H      0.70377    0.617   0.0293     H
C      0.70497    0.616   0.9896     C
H      0.70577    0.876    0.555     H
O      0.70677  0.01479  0.52965     O
C      0.70747   0.9399   0.1988     C
H      0.70997    0.958   0.6603     H
H      0.71137   0.1468   0.8125     H
C      0.71217   0.9913    0.651     C
H      0.71233   0.3118   0.8103     H
C      0.71357   0.9623   0.5218     C
C      0.71747   0.0512   0.7089     C
N      0.72603    0.138   0.5973     N
C       0.7274   0.8594   0.3611     C
H       0.7311   0.5696   0.1168     H
C       0.7323   0.7616   0.2711     C
H      0.73347   0.5496   0.8642     H
C      0.73413    0.215   0.7012     C
C       0.7382   0.6561   0.1843     C
H      0.73887   0.1823    0.511     H
C      0.73987   0.8954   0.2165     C
H      0.74047   0.0825   0.7004     H
H       0.7412   0.3655   0.3584     H
H       0.7438   0.4701   0.4188     H
H      0.75167   0.6848   0.9367     H
H      0.75487   0.9471   0.1765     H
C      0.75577   0.8314   0.1581     C
H      0.75917   0.0481   0.7374     H
H       0.7607   0.2632   0.3297     H
H      0.76617   0.9856   0.6261     H
H      0.77133   0.2384   0.7353     H
C      0.77217    0.718   0.0553     C
C      0.77283   0.1733   0.6463     C
H       0.7745   0.1678   0.3209     H
O      0.77617  0.92581  0.49386     O
Ni     0.78394  0.07144  0.51642    Ni
H      0.78457   0.5147    0.984     H
C      0.78527   0.5166   0.9462     C
H      0.78727   0.4746   0.9117     H
C      0.79087   0.6516   0.9932     C
H      0.79217   0.9871   0.4111     H
H       0.7943   0.4508   0.3565     H
H       0.7949   0.0779   0.3098     H
C       0.7975   0.3849     0.38     C
C       0.7976   0.4495   0.3945     C
H       0.7981   0.3839   0.4182     H
H       0.8018   0.6574   0.1861     H
C      0.80237   0.1842   0.5095     C
C      0.80267   0.6616   0.9387     C
H      0.80357    0.266   0.5148     H
H      0.80557   0.6224   0.9013     H
H       0.8084    0.316   0.2595     H
H      0.81007   0.9585   0.2906     H
N       0.8161  0.86217  0.36757     N
C       0.8183   0.2478   0.3306     C
C      0.82267   0.9187   0.2555     C
C       0.8262   0.7658   0.2775     C
C       0.8265   0.1911   0.3253     C
H       0.8269   0.1095   0.3788     H
H      0.83033   0.8298   0.4738     H
O      0.83333     -0.0  0.43701     O
H      0.83633   0.1702    0.644     H
H      0.83977   0.8905   0.2693     H
C      0.84017   0.8089   0.1342     C
C      0.84047   0.2342   0.5117     C
C        0.844   0.0813   0.3368     C
C      0.84837   0.7522   0.0828     C
N      0.85057  0.13783   0.5054     N
H       0.8566   0.0415   0.3321     H
H      0.85827    0.684   0.9435     H
H       0.8611   0.3776   0.2789     H
H       0.8631    0.734   0.2488     H
C        0.864   0.3384   0.2771     C
C       0.8643   0.8158   0.3253     C
H      0.86487   0.3426   0.5287     H
H      0.86857   0.6161   0.0343     H
C      0.86907   0.5505    0.945     C
C      0.86917   0.6151   0.9951     C
H      0.87177   0.9221   0.2319     H
H      0.87237   0.5492   0.9057     H
H       0.8745   0.0129    0.424     H
C       0.8758   0.3484   0.3416     C
H       0.8794   0.5254   0.4371     H
C       0.8814   0.4834   0.4296     C
H       0.8821   0.4853   0.4693     H
Ni     0.88273  0.92856  0.44498    Ni
O       0.8905  0.07419  0.56805     O
H      0.89217   0.8322   0.1531     H
C      0.89383   0.8267    0.473     C
C       0.8945    0.282   0.3373     C
H      0.89533   0.7616   0.4969     H
H       0.9005   0.0144   0.6405     H
H      0.90597   0.7368   0.0665     H
H       0.9075   0.9519   0.6893     H
C       0.9109   0.1686   0.3267     C
H       0.9118   0.0529   0.2294     H
H        0.915   0.3152   0.2519     H
H      0.92287   0.5299   0.9487     H
H      0.92547   0.6345   0.9929     H
H       0.9262   0.9175   0.6179     H
C       0.9268   0.1046   0.3211     C
H       0.9278   0.8177   0.3287     H
C      0.92847   0.3439   0.5282     C
C      0.93253    0.785   0.4862     C
H       0.9332   0.4504   0.3146     H
C      0.93437   0.2384   0.5095     C
H      0.93557   0.4304   0.5472     H
C      0.93927   0.1406   0.5017     C
N      0.94063    0.862   0.4593     N
C       0.9492   0.9488   0.6577     C
C       0.9531   0.0377   0.5595     C
H      0.95433   0.6882   0.4985     H
C       0.9545   0.0087   0.6597     C
H       0.9553   0.8532   0.6657     H
H       0.9567    0.042   0.7023     H
C       0.9592   0.0601   0.2589     C
O       0.9599  0.98521  0.51486     O
H       0.9609    0.124    0.679     H
C       0.9617    0.384   0.3736     C
H       0.9629    0.383   0.4123     H
C       0.9679   0.4524   0.3947     C
C      0.97147   0.3966   0.5396     C
H      0.97447   0.1077   0.4973     H
H       0.9747    0.022   0.2572     H
H        0.975   0.1093   0.3504     H
C      0.97707   0.2936   0.5162     C
C       0.9789   0.2595   0.3386     C
C      0.98207   0.1896   0.5039     C
C       0.9841   0.4654   0.3426     C
C       0.9871   0.2028   0.3333     C
H       0.9877    0.827   0.7506     H
H       0.9903   0.5091   0.3592     H
