data_I
_chemical_name_common  '/home/zhangsd/repos/MofS-CGCNN/ML/data/TSD/clean_cifs/CETVAA_clean'
_cell_length_a 11.75260
_cell_length_b 11.75260
_cell_length_c 11.83230
_cell_angle_alpha 91.78120
_cell_angle_beta  91.78120
_cell_angle_gamma 105.18700
_space_group_name_H-M_alt      'P 1'


loop_
_space_group_symop_operation_xyz
  'x, y, z' 

loop_
_atom_site_label
_atom_site_fract_x
_atom_site_fract_y
_atom_site_fract_z
_atom_site_type_symbol
C      0.01947  0.58541  0.85092     C
H       0.0315   0.5219   0.8932     H
C      0.05607  0.32631  0.22172     C
H        0.057   0.7116   0.2866     H
N      0.06248  0.70104  0.68593     N
C      0.07558    0.612  0.75016     C
H       0.0771   0.3557   0.2973     H
C      0.10335  0.29565  0.03094     C
Cl      0.1157  0.53382  0.49537    Cl
H       0.1256   0.5654   0.7251     H
Cu     0.12945  0.73122  0.53017    Cu
H       0.1375   0.7023    0.112     H
C      0.14015  0.72591   0.2827     C
C      0.14316  0.33648   0.1415     C
H       0.1579   0.3043   0.9722     H
C      0.18781  0.71951  0.17817     C
N      0.20684  0.75148  0.37896     N
H       0.2137   0.9609    0.432     H
H        0.226    0.574   0.0117     H
N      0.23063  0.90203  0.58524     N
C      0.24286  0.98496  0.50712     C
H        0.258   0.4794   0.3143     H
H       0.2665   0.8817   0.7464     H
C      0.27062  0.38402  0.16927     C
C       0.2731  0.93892  0.69032     C
C      0.29565  0.10335  0.53094     C
C      0.29934  0.62256  0.98946     C
H       0.3027   0.5309   0.8414     H
H       0.3031   0.3259   0.5344     H
H       0.3043   0.1579   0.4722     H
C      0.30895  0.73811  0.16931     C
C      0.31236  0.45766  0.26585     C
C      0.32389  0.77239  0.37125     C
H       0.3259   0.3031   0.0344     H
C      0.32631  0.05607  0.72172     C
C      0.33648  0.14316   0.6415     C
C      0.34458  0.59672  0.88798     C
C      0.35285  0.35307  0.09978     C
C      0.35307  0.35285  0.59978     C
H       0.3557   0.0771   0.7973     H
C       0.3594   0.7187  0.05989     C
H        0.372   0.7918   0.4387     H
H       0.3725   0.5281   0.5766     H
C      0.37837  0.76709   0.2694     C
C      0.38402  0.27062  0.66927     C
C      0.39409  0.47339   0.6248     C
C      0.43267  0.49869  0.29067     C
C      0.45253  0.66825  0.85434     C
C      0.45766  0.31236  0.76585     C
H       0.4602   0.5488   0.3558     H
H       0.4618    0.783   0.2678     H
C      0.46584  0.79078  0.02488     C
C      0.46683  0.51351  0.72054     C
H       0.4719   0.8507   0.7241     H
C      0.47339  0.39409   0.1248     C
H       0.4794    0.258   0.8143     H
C      0.49869  0.43267  0.79067     C
N      0.50174  0.63676  0.75357     N
H       0.5068   0.8574    0.071     H
C      0.51283  0.76599  0.92274     C
C      0.51351  0.46683  0.22054     C
C      0.51607  0.82747  0.66605     C
H       0.5219   0.0315   0.3932     H
H       0.5281   0.3725   0.0766     H
H       0.5309   0.3027   0.3414     H
H        0.532   0.9744    0.575     H
Cl     0.53382   0.1157  0.99537    Cl
C      0.54396   0.7188  0.67021     C
H       0.5488   0.4602   0.8558     H
C      0.55297  0.90165  0.57713     C
H       0.5654   0.1256   0.2251     H
H        0.574    0.226   0.5117     H
C      0.58541  0.01947  0.35092     C
H       0.5855   0.8153   0.8999     H
C      0.59672  0.34458  0.38798     C
C        0.612  0.07558  0.25016     C
C      0.61384  0.68918   0.5858     C
H        0.617   0.6358   0.0886     H
C      0.62014  0.87174  0.49066     C
C      0.62256  0.29934  0.48946     C
H       0.6358    0.617   0.5886     H
N      0.63676  0.50174  0.25357     N
C      0.65121  0.76459   0.4983     C
C       0.6521  0.94468  0.39067     C
C      0.66825  0.45253  0.35434     C
C      0.68918  0.61384   0.0858     C
H       0.6989   0.7431   0.4424     H
N      0.70104  0.06248  0.18593     N
H       0.7023   0.1375    0.612     H
H       0.7116    0.057   0.7866     H
C       0.7187   0.3594  0.55989     C
C       0.7188  0.54396  0.17021     C
C      0.71951  0.18781  0.67817     C
C      0.72591  0.14015   0.7827     C
Cu     0.73122  0.12945  0.03017    Cu
C      0.73811  0.30895  0.66931     C
H       0.7431   0.6989   0.9424     H
C      0.74754    0.936   0.3257     C
N      0.75148  0.20684  0.87896     N
C      0.76459  0.65121   0.9983     C
C      0.76599  0.51283  0.42274     C
C      0.76709  0.37837   0.7694     C
C      0.76791  0.99481   0.2256     C
C      0.77239  0.32389  0.87125     C
H        0.783   0.4618   0.7678     H
C      0.79078  0.46584  0.52488     C
H       0.7918    0.372   0.9387     H
H       0.7982   0.8898   0.3503     H
Cl     0.80453  0.96471  0.95594    Cl
H       0.8153   0.5855   0.3999     H
C      0.82747  0.51607  0.16605     C
H       0.8326   0.9868   0.1828     H
H       0.8507   0.4719   0.2241     H
H       0.8574   0.5068    0.571     H
C      0.87174  0.62014  0.99066     C
H       0.8817   0.2665   0.2464     H
H       0.8898   0.7982   0.8503     H
C      0.90165  0.55297  0.07713     C
N      0.90203  0.23063  0.08524     N
C        0.936  0.74754   0.8257     C
C      0.93892   0.2731  0.19032     C
C      0.94468   0.6521  0.89067     C
H       0.9609   0.2137    0.932     H
Cl     0.96471  0.80453  0.45594    Cl
H       0.9744    0.532    0.075     H
C      0.98496  0.24286  0.00712     C
H       0.9868   0.8326   0.6828     H
C      0.99481  0.76791   0.7256     C
