data_I
_chemical_name_common  '/home/zhangsd/repos/MofS-CGCNN/ML/data/TSD/clean_cifs/CEZFIY_clean'
_cell_length_a 14.17440
_cell_length_b 25.91510
_cell_length_c 20.60420
_cell_angle_alpha 90.00000
_cell_angle_beta  90.00000
_cell_angle_gamma 90.00000
_space_group_name_H-M_alt      'P 1'


loop_
_space_group_symop_operation_xyz
  'x, y, z' 

loop_
_atom_site_label
_atom_site_fract_x
_atom_site_fract_y
_atom_site_fract_z
_atom_site_type_symbol
O       0.0004  0.36432  0.51519     O
O       0.0004  0.63568  0.98481     O
C      0.00222  0.34647  0.06933     C
C      0.00222  0.65353  0.43067     C
C      0.00394  0.28989  0.65768     C
C      0.00394  0.71011  0.84232     C
C      0.00754  0.48728  0.91112     C
C      0.00754  0.51272  0.58888     C
H       0.0089   0.2432   0.7386     H
H       0.0089   0.7568   0.7614     H
C      0.00909  0.02413   0.6159     C
C      0.00909  0.97587   0.8841     C
C      0.01014  0.29172  0.58999     C
C      0.01014  0.70828  0.91001     C
C      0.01159  0.24437  0.69256     C
C      0.01159  0.75563  0.80744     C
C      0.01262  0.01672  0.84053     C
C      0.01262  0.98328  0.65947     C
C      0.01554  0.34341  0.18116     C
C      0.01554  0.65659  0.31884     C
N      0.01816  0.37457  0.12592     N
N      0.01816  0.62543  0.37408     N
C      0.01926  0.46828  0.62513     C
C      0.01926  0.53172  0.87487     C
C      0.02177    0.248  0.55236     C
C      0.02177    0.752  0.94764     C
C      0.02351  0.20075  0.65484     C
C      0.02351  0.79925  0.84516     C
H       0.0256   0.2492   0.5064     H
H       0.0256   0.7508   0.9936     H
C      0.02739  0.20238  0.58699     C
C      0.02739  0.79762  0.91301     C
O      0.02841  0.35819  0.23581     O
O      0.02841  0.64181  0.26419     O
C      0.03863  0.14598  0.67521     C
C      0.03863  0.85402  0.82479     C
C      0.04171  0.14873  0.56293     C
C      0.04171  0.85127  0.93707     C
O      0.04381  0.12864  0.72952     O
O      0.04381  0.87136  0.77048     O
O      0.04698  0.13346  0.50764     O
O      0.04698  0.86654  0.99236     O
H        0.047   0.4831   0.4374     H
H        0.047   0.5169   0.0626     H
N      0.04847  0.11767  0.61819     N
N      0.04847  0.88233  0.88181     N
H       0.0553   0.0815   0.3121     H
H       0.0553   0.9185   0.1879     H
C      0.05567  0.42711  0.12548     C
C      0.05567  0.57289  0.37452     C
C      0.05774  0.05381  0.34221     C
C      0.05774  0.94619  0.15779     C
H       0.0626   0.0192     0.81     H
H       0.0626   0.9808     0.69     H
C      0.06328  0.02503  0.07124     C
C      0.06328  0.97497  0.42876     C
H       0.0665   0.4188   0.9343     H
H       0.0665   0.5812   0.5657     H
H       0.0671   0.0521   0.0402     H
H       0.0671   0.9479   0.4598     H
C      0.07533  0.44901  0.90894     C
C      0.07533  0.55099  0.59106     C
C      0.08509   0.0651  0.61695     C
C      0.08509   0.9349  0.88305     C
H        0.096   0.4315   0.0867     H
H        0.096   0.4319   0.1642     H
H        0.096   0.5681   0.3358     H
H        0.096   0.5685   0.4133     H
C      0.10046  0.46413  0.66273     C
C      0.10046  0.53587  0.83727     C
H       0.1112   0.4342   0.6882     H
H       0.1112   0.5658   0.8118     H
H       0.1253   0.0597   0.6556     H
H       0.1253   0.9403   0.8444     H
H       0.1254   0.0609   0.5781     H
H       0.1254   0.9391   0.9219     H
N       0.1287    0.052  0.38463     N
N       0.1287    0.948  0.11537     N
C      0.13012  0.01366    0.428     C
C      0.13012  0.98634    0.072     C
N      0.15301  0.45306  0.87243     N
N      0.15301  0.54694  0.62757     N
C      0.16515  0.49626  0.83727     C
C      0.16515  0.50374  0.66273     C
H        0.179    0.013   0.4595     H
H        0.179    0.987   0.0405     H
H       0.2165   0.1731   0.0326     H
H       0.2165   0.8269   0.4674     H
H       0.2166   0.1126   0.1163     H
H       0.2166   0.8874   0.3837     H
O      0.22015  0.08019  0.23403     O
O      0.22015  0.91981  0.26597     O
H       0.2204   0.4996   0.8115     H
H       0.2204   0.5004   0.6885     H
C       0.2208  0.14837  0.12604     C
C       0.2208  0.85163  0.37396     C
C      0.22105  0.18416  0.07646     C
C      0.22105  0.81584  0.42354     C
H       0.2242   0.2649   0.9966     H
H       0.2242   0.7351   0.5034     H
C      0.22489  0.12603   0.2465     C
C      0.22489  0.87397   0.2535     C
C      0.22686  0.16498  0.19198     C
C      0.22686  0.83502  0.30802     C
C      0.22785   0.2755  0.04068     C
C      0.22785   0.7245  0.45932     C
O      0.22789  0.14542  0.30385     O
O      0.22789  0.85458  0.19615     O
C      0.22802  0.23736  0.09104     C
C      0.22802  0.76264  0.40896     C
C      0.23284  0.32685  0.05521     C
C      0.23284  0.67315  0.44479     C
O      0.23398  0.41309  0.01706     O
O      0.23398  0.58691  0.48294     O
C      0.23453  0.25447  0.15596     C
C      0.23453  0.74553  0.34404     C
C      0.23456  0.21633    0.206     C
C      0.23456  0.78367    0.294     C
C      0.23477  0.36725  0.00238     C
C      0.23477  0.63275  0.49762     C
C      0.23778  0.34329  0.12148     C
C      0.23778  0.65671  0.37852     C
O      0.23793  0.34956  0.94389     O
O      0.23793  0.65044  0.55611     O
C      0.23915  0.30737  0.17062     C
C      0.23915  0.69263  0.32938     C
H       0.2401   0.2269     0.25     H
H       0.2401    0.379   0.1315     H
H       0.2401    0.621   0.3685     H
H       0.2401   0.7731     0.25     H
Zn     0.24154   0.0996  0.37692    Zn
Zn     0.24154   0.9004  0.12308    Zn
H       0.2432   0.3183   0.2145     H
H       0.2432   0.6817   0.2855     H
H       0.2568   0.1817   0.7145     H
H       0.2568   0.8183   0.7855     H
Zn     0.25846   0.4004  0.87692    Zn
Zn     0.25846   0.5996  0.62308    Zn
H       0.2599    0.121   0.6315     H
H       0.2599   0.2731     0.75     H
H       0.2599   0.7269     0.75     H
H       0.2599    0.879   0.8685     H
C      0.26085  0.19263  0.67062     C
C      0.26085  0.80737  0.82938     C
O      0.26207  0.15044  0.44389     O
O      0.26207  0.84956  0.05611     O
C      0.26222  0.15671  0.62148     C
C      0.26222  0.84329  0.87852     C
C      0.26523  0.13275  0.50238     C
C      0.26523  0.86725  0.99762     C
C      0.26544  0.28367    0.706     C
C      0.26544  0.71633    0.794     C
C      0.26547  0.24553  0.65596     C
C      0.26547  0.75447  0.84404     C
O      0.26602  0.08691  0.51706     O
O      0.26602  0.91309  0.98294     O
C      0.26716  0.17315  0.55521     C
C      0.26716  0.82685  0.94479     C
C      0.27198  0.26264  0.59104     C
C      0.27198  0.73736  0.90896     C
O      0.27211  0.35458  0.80385     O
O      0.27211  0.64542  0.69615     O
C      0.27215   0.2245  0.54068     C
C      0.27215   0.7755  0.95932     C
C      0.27314  0.33502  0.69198     C
C      0.27314  0.66498  0.80802     C
C      0.27511  0.37397   0.7465     C
C      0.27511  0.62603   0.7535     C
H       0.2758   0.2351   0.4966     H
H       0.2758   0.7649   0.0034     H
C      0.27895  0.31584  0.57646     C
C      0.27895  0.68416  0.92354     C
C       0.2792  0.35163  0.62604     C
C       0.2792  0.64837  0.87396     C
H       0.2796   0.0004   0.3115     H
H       0.2796   0.9996   0.1885     H
O      0.27985  0.41981  0.73403     O
O      0.27985  0.58019  0.76597     O
H       0.2834   0.3874   0.6163     H
H       0.2834   0.6126   0.8837     H
H       0.2835   0.3269   0.5326     H
H       0.2835   0.6731   0.9674     H
H        0.321    0.487   0.9595     H
H        0.321    0.513   0.5405     H
C      0.33485  0.00374  0.33727     C
C      0.33485  0.99626  0.16273     C
N      0.34699  0.04694  0.37243     N
N      0.34699  0.95306  0.12757     N
C      0.36988  0.48634    0.928     C
C      0.36988  0.51366    0.572     C
N       0.3713    0.448  0.88463     N
N       0.3713    0.552  0.61537     N
H       0.3746   0.4391   0.0781     H
H       0.3746   0.5609   0.4219     H
H       0.3747   0.4403   0.1556     H
H       0.3747   0.5597   0.3444     H
H       0.3888   0.0658   0.1882     H
H       0.3888   0.9342   0.3118     H
C      0.39954  0.03587  0.16273     C
C      0.39954  0.96413  0.33727     C
H        0.404   0.0681   0.6642     H
H        0.404   0.0685   0.5867     H
H        0.404   0.9315   0.9133     H
H        0.404   0.9319   0.8358     H
C      0.41491   0.4349  0.11695     C
C      0.41491   0.5651  0.38305     C
C      0.42467  0.05099  0.40894     C
C      0.42467  0.94901  0.09106     C
H       0.4329   0.4479   0.5402     H
H       0.4329   0.5521   0.9598     H
H       0.4335   0.0812   0.4343     H
H       0.4335   0.9188   0.0657     H
C      0.43672  0.47497  0.57124     C
C      0.43672  0.52503  0.92876     C
H       0.4374   0.4808     0.31     H
H       0.4374   0.5192     0.19     H
C      0.44226  0.44619  0.84221     C
C      0.44226  0.55381  0.65779     C
C      0.44433  0.07289  0.62548     C
C      0.44433  0.92711  0.87452     C
H       0.4447   0.4185   0.8121     H
H       0.4447   0.5815   0.6879     H
N      0.45153  0.38233  0.11819     N
N      0.45153  0.61767  0.38181     N
H        0.453   0.0169   0.9374     H
H        0.453   0.9831   0.5626     H
O      0.45302  0.36654  0.00764     O
O      0.45302  0.63346  0.49236     O
O      0.45619  0.37136  0.22952     O
O      0.45619  0.62864  0.27048     O
C      0.45829  0.35127  0.06293     C
C      0.45829  0.64873  0.43707     C
C      0.46137  0.35402  0.17521     C
C      0.46137  0.64598  0.32479     C
O      0.47159  0.14181  0.73581     O
O      0.47159  0.85819  0.76419     O
C      0.47261  0.29762  0.08699     C
C      0.47261  0.70238  0.41301     C
H       0.4744   0.2508   0.0064     H
H       0.4744   0.7492   0.4936     H
C      0.47649  0.29925  0.15484     C
C      0.47649  0.70075  0.34516     C
C      0.47823    0.252  0.05236     C
C      0.47823    0.748  0.44764     C
C      0.48074  0.03172  0.12513     C
C      0.48074  0.96828  0.37487     C
N      0.48184  0.12543  0.62592     N
N      0.48184  0.87457  0.87408     N
C      0.48446  0.15659  0.68116     C
C      0.48446  0.84341  0.81884     C
C      0.48738  0.48328  0.34053     C
C      0.48738  0.51672  0.15947     C
C      0.48841  0.25563  0.19256     C
C      0.48841  0.74437  0.30744     C
C      0.48986  0.20828  0.08999     C
C      0.48986  0.79172  0.41001     C
C      0.49091  0.47587   0.1159     C
C      0.49091  0.52413   0.3841     C
H       0.4911   0.2568   0.2386     H
H       0.4911   0.7432   0.2614     H
C      0.49246  0.01272  0.41112     C
C      0.49246  0.98728  0.08888     C
C      0.49606  0.21011  0.15768     C
C      0.49606  0.78989  0.34232     C
C      0.49778  0.15353  0.56933     C
C      0.49778  0.84647  0.93067     C
O       0.4996  0.13568  0.01519     O
O       0.4996  0.86432  0.48481     O
O       0.5004  0.13568  0.51519     O
O       0.5004  0.86432  0.98481     O
C      0.50222  0.15353  0.06933     C
C      0.50222  0.84647  0.43067     C
C      0.50394  0.21011  0.65768     C
C      0.50394  0.78989  0.84232     C
C      0.50754  0.01272  0.91112     C
C      0.50754  0.98728  0.58888     C
H       0.5089   0.2568   0.7386     H
H       0.5089   0.7432   0.7614     H
C      0.50909  0.47587   0.6159     C
C      0.50909  0.52413   0.8841     C
C      0.51014  0.20828  0.58999     C
C      0.51014  0.79172  0.91001     C
C      0.51159  0.25563  0.69256     C
C      0.51159  0.74437  0.80744     C
C      0.51262  0.48328  0.84053     C
C      0.51262  0.51672  0.65947     C
C      0.51554  0.15659  0.18116     C
C      0.51554  0.84341  0.31884     C
N      0.51816  0.12543  0.12592     N
N      0.51816  0.87457  0.37408     N
C      0.51926  0.03172  0.62513     C
C      0.51926  0.96828  0.87487     C
C      0.52177    0.252  0.55236     C
C      0.52177    0.748  0.94764     C
C      0.52351  0.29925  0.65484     C
C      0.52351  0.70075  0.84516     C
H       0.5256   0.2508   0.5064     H
H       0.5256   0.7492   0.9936     H
C      0.52739  0.29762  0.58699     C
C      0.52739  0.70238  0.91301     C
O      0.52841  0.14181  0.23581     O
O      0.52841  0.85819  0.26419     O
C      0.53863  0.35402  0.67521     C
C      0.53863  0.64598  0.82479     C
C      0.54171  0.35127  0.56293     C
C      0.54171  0.64873  0.93707     C
O      0.54381  0.37136  0.72952     O
O      0.54381  0.62864  0.77048     O
O      0.54698  0.36654  0.50764     O
O      0.54698  0.63346  0.99236     O
H        0.547   0.0169   0.4374     H
H        0.547   0.9831   0.0626     H
N      0.54847  0.38233  0.61819     N
N      0.54847  0.61767  0.88181     N
H       0.5553   0.4185   0.3121     H
H       0.5553   0.5815   0.1879     H
C      0.55567  0.07289  0.12548     C
C      0.55567  0.92711  0.37452     C
C      0.55774  0.44619  0.34221     C
C      0.55774  0.55381  0.15779     C
H       0.5626   0.4808     0.81     H
H       0.5626   0.5192     0.69     H
C      0.56328  0.47497  0.07124     C
C      0.56328  0.52503  0.42876     C
H       0.5665   0.0812   0.9343     H
H       0.5665   0.9188   0.5657     H
H       0.5671   0.4479   0.0402     H
H       0.5671   0.5521   0.4598     H
C      0.57533  0.05099  0.90894     C
C      0.57533  0.94901  0.59106     C
C      0.58509   0.4349  0.61695     C
C      0.58509   0.5651  0.88305     C
H        0.596   0.0681   0.1642     H
H        0.596   0.0685   0.0867     H
H        0.596   0.9315   0.4133     H
H        0.596   0.9319   0.3358     H
C      0.60046  0.03587  0.66273     C
C      0.60046  0.96413  0.83727     C
H       0.6112   0.0658   0.6882     H
H       0.6112   0.9342   0.8118     H
H       0.6253   0.4403   0.6556     H
H       0.6253   0.5597   0.8444     H
H       0.6254   0.4391   0.5781     H
H       0.6254   0.5609   0.9219     H
N       0.6287    0.448  0.38463     N
N       0.6287    0.552  0.11537     N
C      0.63012  0.48634    0.428     C
C      0.63012  0.51366    0.072     C
N      0.65301  0.04694  0.87243     N
N      0.65301  0.95306  0.62757     N
C      0.66515  0.00374  0.83727     C
C      0.66515  0.99626  0.66273     C
H        0.679    0.487   0.4595     H
H        0.679    0.513   0.0405     H
H       0.7165   0.3269   0.0326     H
H       0.7165   0.6731   0.4674     H
H       0.7166   0.3874   0.1163     H
H       0.7166   0.6126   0.3837     H
O      0.72015  0.41981  0.23403     O
O      0.72015  0.58019  0.26597     O
H       0.7204   0.0004   0.8115     H
H       0.7204   0.9996   0.6885     H
C       0.7208  0.35163  0.12604     C
C       0.7208  0.64837  0.37396     C
C      0.72105  0.31584  0.07646     C
C      0.72105  0.68416  0.42354     C
H       0.7242   0.2351   0.9966     H
H       0.7242   0.7649   0.5034     H
C      0.72489  0.37397   0.2465     C
C      0.72489  0.62603   0.2535     C
C      0.72686  0.33502  0.19198     C
C      0.72686  0.66498  0.30802     C
C      0.72785   0.2245  0.04068     C
C      0.72785   0.7755  0.45932     C
O      0.72789  0.35458  0.30385     O
O      0.72789  0.64542  0.19615     O
C      0.72802  0.26264  0.09104     C
C      0.72802  0.73736  0.40896     C
C      0.73284  0.17315  0.05521     C
C      0.73284  0.82685  0.44479     C
O      0.73398  0.08691  0.01706     O
O      0.73398  0.91309  0.48294     O
C      0.73453  0.24553  0.15596     C
C      0.73453  0.75447  0.34404     C
C      0.73456  0.28367    0.206     C
C      0.73456  0.71633    0.294     C
C      0.73477  0.13275  0.00238     C
C      0.73477  0.86725  0.49762     C
C      0.73778  0.15671  0.12148     C
C      0.73778  0.84329  0.37852     C
O      0.73793  0.15044  0.94389     O
O      0.73793  0.84956  0.55611     O
C      0.73915  0.19263  0.17062     C
C      0.73915  0.80737  0.32938     C
H       0.7401    0.121   0.1315     H
H       0.7401   0.2731     0.25     H
H       0.7401   0.7269     0.25     H
H       0.7401    0.879   0.3685     H
Zn     0.74154   0.4004  0.37692    Zn
Zn     0.74154   0.5996  0.12308    Zn
H       0.7432   0.1817   0.2145     H
H       0.7432   0.8183   0.2855     H
H       0.7568   0.3183   0.7145     H
H       0.7568   0.6817   0.7855     H
Zn     0.75846   0.0996  0.87692    Zn
Zn     0.75846   0.9004  0.62308    Zn
H       0.7599   0.2269     0.75     H
H       0.7599    0.379   0.6315     H
H       0.7599    0.621   0.8685     H
H       0.7599   0.7731     0.75     H
C      0.76085  0.30737  0.67062     C
C      0.76085  0.69263  0.82938     C
O      0.76207  0.34956  0.44389     O
O      0.76207  0.65044  0.05611     O
C      0.76222  0.34329  0.62148     C
C      0.76222  0.65671  0.87852     C
C      0.76523  0.36725  0.50238     C
C      0.76523  0.63275  0.99762     C
C      0.76544  0.21633    0.706     C
C      0.76544  0.78367    0.794     C
C      0.76547  0.25447  0.65596     C
C      0.76547  0.74553  0.84404     C
O      0.76602  0.41309  0.51706     O
O      0.76602  0.58691  0.98294     O
C      0.76716  0.32685  0.55521     C
C      0.76716  0.67315  0.94479     C
C      0.77198  0.23736  0.59104     C
C      0.77198  0.76264  0.90896     C
O      0.77211  0.14542  0.80385     O
O      0.77211  0.85458  0.69615     O
C      0.77215   0.2755  0.54068     C
C      0.77215   0.7245  0.95932     C
C      0.77314  0.16498  0.69198     C
C      0.77314  0.83502  0.80802     C
C      0.77511  0.12603   0.7465     C
C      0.77511  0.87397   0.7535     C
H       0.7758   0.2649   0.4966     H
H       0.7758   0.7351   0.0034     H
C      0.77895  0.18416  0.57646     C
C      0.77895  0.81584  0.92354     C
C       0.7792  0.14837  0.62604     C
C       0.7792  0.85163  0.87396     C
H       0.7796   0.4996   0.3115     H
H       0.7796   0.5004   0.1885     H
O      0.77985  0.08019  0.73403     O
O      0.77985  0.91981  0.76597     O
H       0.7834   0.1126   0.6163     H
H       0.7834   0.8874   0.8837     H
H       0.7835   0.1731   0.5326     H
H       0.7835   0.8269   0.9674     H
H        0.821    0.013   0.9595     H
H        0.821    0.987   0.5405     H
C      0.83485  0.49626  0.33727     C
C      0.83485  0.50374  0.16273     C
N      0.84699  0.45306  0.37243     N
N      0.84699  0.54694  0.12757     N
C      0.86988  0.01366    0.928     C
C      0.86988  0.98634    0.572     C
N       0.8713    0.052  0.88463     N
N       0.8713    0.948  0.61537     N
H       0.8746   0.0609   0.0781     H
H       0.8746   0.9391   0.4219     H
H       0.8747   0.0597   0.1556     H
H       0.8747   0.9403   0.3444     H
H       0.8888   0.4342   0.1882     H
H       0.8888   0.5658   0.3118     H
C      0.89954  0.46413  0.16273     C
C      0.89954  0.53587  0.33727     C
H        0.904   0.4315   0.5867     H
H        0.904   0.4319   0.6642     H
H        0.904   0.5681   0.8358     H
H        0.904   0.5685   0.9133     H
C      0.91491   0.0651  0.11695     C
C      0.91491   0.9349  0.38305     C
C      0.92467  0.44901  0.40894     C
C      0.92467  0.55099  0.09106     C
H       0.9329   0.0521   0.5402     H
H       0.9329   0.9479   0.9598     H
H       0.9335   0.4188   0.4343     H
H       0.9335   0.5812   0.0657     H
C      0.93672  0.02503  0.57124     C
C      0.93672  0.97497  0.92876     C
H       0.9374   0.0192     0.31     H
H       0.9374   0.9808     0.19     H
C      0.94226  0.05381  0.84221     C
C      0.94226  0.94619  0.65779     C
C      0.94433  0.42711  0.62548     C
C      0.94433  0.57289  0.87452     C
H       0.9447   0.0815   0.8121     H
H       0.9447   0.9185   0.6879     H
N      0.95153  0.11767  0.11819     N
N      0.95153  0.88233  0.38181     N
H        0.953   0.4831   0.9374     H
H        0.953   0.5169   0.5626     H
O      0.95302  0.13346  0.00764     O
O      0.95302  0.86654  0.49236     O
O      0.95619  0.12864  0.22952     O
O      0.95619  0.87136  0.27048     O
C      0.95829  0.14873  0.06293     C
C      0.95829  0.85127  0.43707     C
C      0.96137  0.14598  0.17521     C
C      0.96137  0.85402  0.32479     C
O      0.97159  0.35819  0.73581     O
O      0.97159  0.64181  0.76419     O
C      0.97261  0.20238  0.08699     C
C      0.97261  0.79762  0.41301     C
H       0.9744   0.2492   0.0064     H
H       0.9744   0.7508   0.4936     H
C      0.97649  0.20075  0.15484     C
C      0.97649  0.79925  0.34516     C
C      0.97823    0.248  0.05236     C
C      0.97823    0.752  0.44764     C
C      0.98074  0.46828  0.12513     C
C      0.98074  0.53172  0.37487     C
N      0.98184  0.37457  0.62592     N
N      0.98184  0.62543  0.87408     N
C      0.98446  0.34341  0.68116     C
C      0.98446  0.65659  0.81884     C
C      0.98738  0.01672  0.34053     C
C      0.98738  0.98328  0.15947     C
C      0.98841  0.24437  0.19256     C
C      0.98841  0.75563  0.30744     C
C      0.98986  0.29172  0.08999     C
C      0.98986  0.70828  0.41001     C
C      0.99091  0.02413   0.1159     C
C      0.99091  0.97587   0.3841     C
H       0.9911   0.2432   0.2386     H
H       0.9911   0.7568   0.2614     H
C      0.99246  0.48728  0.41112     C
C      0.99246  0.51272  0.08888     C
C      0.99606  0.28989  0.15768     C
C      0.99606  0.71011  0.34232     C
C      0.99778  0.34647  0.56933     C
C      0.99778  0.65353  0.93067     C
O       0.9996  0.36432  0.01519     O
O       0.9996  0.63568  0.48481     O
