data_I
_chemical_name_common  '/home/zhangsd/repos/MofS-CGCNN/ML/data/TSD/clean_cifs/CIDKUX_clean'
_cell_length_a 13.87210
_cell_length_b 15.89910
_cell_length_c 17.67430
_cell_angle_alpha 63.27040
_cell_angle_beta  78.89420
_cell_angle_gamma 64.64310
_space_group_name_H-M_alt      'P 1'


loop_
_space_group_symop_operation_xyz
  'x, y, z' 

loop_
_atom_site_label
_atom_site_fract_x
_atom_site_fract_y
_atom_site_fract_z
_atom_site_type_symbol
Cu         0.0      0.5      0.0    Cu
F       0.0175  0.24583  0.31754     F
F       0.0175  0.56337  0.68246     F
F       0.0485  0.11436  0.47808     F
F       0.0485  0.59244  0.52192     F
N       0.0954  0.32635   0.1615     N
N       0.0954  0.48785   0.8385     N
N       0.1101   0.3974   0.0908     N
N       0.1101   0.4882   0.9092     N
C       0.1153  0.19918  0.34824     C
C       0.1153  0.54742  0.65176     C
C       0.1313   0.1287   0.4312     C
C       0.1313   0.5599   0.5688     C
F       0.1615  0.43171  0.47858     F
F       0.1615  0.91029  0.52142     F
C       0.1809  0.29201  0.20718     C
C       0.1809  0.49919  0.79282     C
C       0.1978  0.21855   0.2949     C
C       0.1978  0.51345   0.7051     C
F       0.1988  0.43408  0.32524     F
F       0.1988  0.75932  0.67476     F
N        0.199  0.40743  0.09134     N
N        0.199  0.49877  0.90866     N
C       0.2131   0.4953   0.4208     C
C       0.2131   0.9161   0.5792     C
C       0.2303  0.07074  0.46772     C
C       0.2303  0.53846  0.53228     C
C       0.2355   0.4878   0.3442     C
C       0.2355    0.832   0.6558     C
N       0.2426  0.54102  0.15616     N
N       0.2426  0.69718  0.84384     N
Cu      0.2433  0.51577      0.0    Cu
N        0.247  0.33999  0.16482     N
N        0.247  0.50481  0.83518     N
C       0.2475  0.54291  0.44458     C
C       0.2475  0.98749  0.55542     C
C        0.292  0.54119  0.28402     C
C        0.292  0.82521  0.71598     C
N       0.2945   0.5319   0.0888     N
N       0.2945   0.6207   0.9112     N
C       0.2983  0.15933  0.33294     C
C       0.2983  0.49227  0.66706     C
C       0.3049  0.59779  0.38582     C
C       0.3049  0.98361  0.61418     C
C       0.3137  0.09179  0.41502     C
C       0.3137  0.50681  0.58498     C
C       0.3154  0.53825   0.1999     C
C       0.3154  0.73815   0.8001     C
C       0.3278  0.59462  0.30716     C
C       0.3278  0.90178  0.69284     C
F       0.3391  0.05788  0.59604     F
F       0.3391  0.65392  0.40396     F
F       0.3797  0.65065   0.2523     F
F       0.3797  0.90295   0.7477     F
F       0.3847  0.17215   0.2861     F
F       0.3847  0.45825   0.7139     F
N       0.3935  0.52221  0.09138     N
N       0.3935  0.61359  0.90862     N
N       0.4089   0.5266   0.1604     N
N       0.4089    0.687   0.8396     N
F       0.4151  0.03588  0.44424     F
F       0.4151  0.48012  0.55576     F
Cu         0.5      0.5      0.0    Cu
F       0.5849  0.51988  0.44424     F
F       0.5849  0.96412  0.55576     F
N       0.5911    0.313   0.1604     N
N       0.5911   0.4734   0.8396     N
N       0.6065  0.38641  0.09138     N
N       0.6065  0.47779  0.90862     N
F       0.6153  0.54175   0.2861     F
F       0.6153  0.82785   0.7139     F
F       0.6203  0.09705   0.2523     F
F       0.6203  0.34935   0.7477     F
F       0.6609  0.34608  0.59604     F
F       0.6609  0.94212  0.40396     F
C       0.6722  0.09822  0.30716     C
C       0.6722  0.40538  0.69284     C
C       0.6846  0.26185   0.1999     C
C       0.6846  0.46175   0.8001     C
C       0.6863  0.49319  0.41502     C
C       0.6863  0.90821  0.58498     C
C       0.6951  0.01639  0.38582     C
C       0.6951  0.40221  0.61418     C
C       0.7017  0.50773  0.33294     C
C       0.7017  0.84067  0.66706     C
N       0.7055   0.3793   0.0888     N
N       0.7055   0.4681   0.9112     N
C        0.708  0.17479  0.28402     C
C        0.708  0.45881  0.71598     C
C       0.7525  0.01251  0.44458     C
C       0.7525  0.45709  0.55542     C
N        0.753  0.49519  0.16482     N
N        0.753  0.66001  0.83518     N
Cu      0.7567  0.48423      0.0    Cu
N       0.7574  0.30282  0.15616     N
N       0.7574  0.45898  0.84384     N
C       0.7645    0.168   0.3442     C
C       0.7645   0.5122   0.6558     C
C       0.7697  0.46154  0.46772     C
C       0.7697  0.92926  0.53228     C
C       0.7869   0.0839   0.4208     C
C       0.7869   0.5047   0.5792     C
N        0.801  0.50123  0.09134     N
N        0.801  0.59257  0.90866     N
F       0.8012  0.24068  0.32524     F
F       0.8012  0.56592  0.67476     F
C       0.8022  0.48655   0.2949     C
C       0.8022  0.78145   0.7051     C
C       0.8191  0.50081  0.20718     C
C       0.8191  0.70799  0.79282     C
F       0.8385  0.08971  0.47858     F
F       0.8385  0.56829  0.52142     F
C       0.8687   0.4401   0.4312     C
C       0.8687   0.8713   0.5688     C
C       0.8847  0.45258  0.34824     C
C       0.8847  0.80082  0.65176     C
N       0.8899   0.5118   0.0908     N
N       0.8899   0.6026   0.9092     N
N       0.9046  0.51215   0.1615     N
N       0.9046  0.67365   0.8385     N
F       0.9515  0.40756  0.47808     F
F       0.9515  0.88564  0.52192     F
F       0.9825  0.43663  0.31754     F
F       0.9825  0.75417  0.68246     F
