data_I
_chemical_name_common  '/home/zhangsd/repos/MofS-CGCNN/ML/data/TSD/clean_cifs/CIRTUU_clean'
_cell_length_a 30.98800
_cell_length_b 30.98800
_cell_length_c 45.96400
_cell_angle_alpha 90.00000
_cell_angle_beta  90.00000
_cell_angle_gamma 90.00000
_space_group_name_H-M_alt      'P 1'


loop_
_space_group_symop_operation_xyz
  'x, y, z' 

loop_
_atom_site_label
_atom_site_fract_x
_atom_site_fract_y
_atom_site_fract_z
_atom_site_type_symbol
O          0.0      0.5   0.0848     O
C          0.0      0.5  0.11215     C
N          0.0      0.5  0.17218     N
H          0.0      0.5   0.1913     H
H          0.0      0.5   0.3087     H
N          0.0      0.5  0.32782     N
C          0.0      0.5  0.38785     C
O          0.0      0.5   0.4152     O
O          0.0      0.5   0.5848     O
C          0.0      0.5  0.61215     C
N          0.0      0.5  0.67218     N
H          0.0      0.5   0.6913     H
H          0.0      0.5   0.8087     H
N          0.0      0.5  0.82782     N
C          0.0      0.5  0.88785     C
O          0.0      0.5   0.9152     O
C      0.00074  0.80999  0.28645     C
C      0.00074  0.80999  0.71355     C
O      0.00133  0.74099   0.0307     O
O      0.00133  0.74099   0.9693     O
C       0.0017  0.29587  0.04087     C
C       0.0017  0.29587  0.95913     C
C        0.004  0.79986  0.31455     C
C        0.004  0.79986  0.68545     C
H       0.0068   0.3643   0.0756     H
H       0.0068   0.3643   0.9244     H
C      0.00789  0.18549  0.22143     C
C      0.00789  0.18549  0.77857     C
C       0.0106  0.17161  0.19256     C
C       0.0106  0.17161  0.80744     C
C      0.01079  0.46353  0.15828     C
C      0.01079  0.46353  0.84172     C
C      0.01213  0.46304   0.1282     C
C      0.01213  0.46304   0.8718     C
O      0.01482   0.6692  0.03066     O
O      0.01482   0.6692  0.96934     O
H       0.0193    0.425   0.1939     H
H       0.0193    0.425   0.8061     H
H         0.02   0.1947   0.3269     H
H         0.02   0.1947   0.6731     H
C      0.02047  0.42541  0.17323     C
C      0.02047  0.42541  0.82677     C
C      0.02206  0.34089  0.08415     C
C      0.02206  0.34089  0.91585     C
H       0.0229   0.7774   0.3667     H
H       0.0229   0.7774   0.6333     H
C        0.023  0.42415  0.11311     C
C        0.023  0.42415  0.88689     C
H       0.0232   0.4241   0.0924     H
H       0.0232   0.4241   0.9076     H
H       0.0243   0.1757   0.2795     H
H       0.0243   0.1757   0.7205     H
H       0.0252   0.8512   0.1588     H
H       0.0252   0.8512   0.8412     H
C      0.02596  0.30146  0.06899     C
C      0.02596  0.30146  0.93101     C
C      0.02686  0.84091  0.17818     C
C      0.02686  0.84091  0.82182     C
C      0.03196  0.81264  0.23623     C
C      0.03196  0.81264  0.76377     C
C      0.03205  0.38715  0.15783     C
C      0.03205  0.38715  0.84217     C
C      0.03329  0.38621  0.12796     C
C      0.03329  0.38621  0.87204     C
H       0.0335   0.1938   0.2313     H
H       0.0335   0.1938   0.7687     H
C      0.03485  0.79945  0.26684     C
C      0.03485  0.79945  0.73316     C
C      0.03647  0.48921  0.34172     C
C      0.03647  0.48921  0.65828     C
C      0.03696  0.48787   0.3718     C
C      0.03696  0.48787   0.6282     C
H       0.0391   0.3618   0.1684     H
H       0.0391   0.3618   0.8316     H
C      0.04055  0.34559   0.1117     C
C      0.04055  0.34559   0.8883     C
C      0.04214  0.78108   0.3271     C
C      0.04214  0.78108   0.6729     C
Cu     0.04365  0.75396      0.0    Cu
N      0.04477  0.77095  0.35528     N
N      0.04477  0.77095  0.64472     N
C      0.04866   0.2676   0.0812     C
C      0.04866   0.2676   0.9188     C
H       0.0512   0.2409   0.0711     H
H       0.0512   0.2409   0.9289     H
C      0.05261  0.17055  0.17696     C
C      0.05261  0.17055  0.82304     C
O      0.05279  0.15178  0.15233     O
O      0.05279  0.15178  0.84767     O
Cu     0.05901  0.66935      0.0    Cu
H       0.0621   0.7539   0.4098     H
H       0.0621   0.7539   0.5902     H
C      0.06445  0.31141  0.12308     C
C      0.06445  0.31141  0.87692     C
C       0.0664  0.83845  0.19189     C
C       0.0664  0.83845  0.80811     C
C      0.06769  0.27293  0.10825     C
C      0.06769  0.27293  0.89175     C
C      0.06913  0.82414  0.22049     C
C      0.06913  0.82414  0.77951     C
C      0.07022  0.77885  0.27774     C
C      0.07022  0.77885  0.72226     C
C      0.07416  0.76901  0.30696     C
C      0.07416  0.76901  0.69304     C
C      0.07459  0.47953  0.32677     C
C      0.07459  0.47953  0.67323     C
H        0.075   0.4807   0.3061     H
H        0.075   0.4807   0.6939     H
C      0.07585    0.477  0.38689     C
C      0.07585    0.477  0.61311     C
H       0.0759   0.4768   0.4076     H
H       0.0759   0.4768   0.5924     H
H       0.0787   0.3147   0.1413     H
H       0.0787   0.3147   0.8587     H
C      0.07986  0.75105  0.36711     C
C      0.07986  0.75105  0.63289     C
C      0.08435  0.74487  0.39701     C
C      0.08435  0.74487  0.60299     C
O      0.08455  0.18819   0.1891     O
O      0.08455  0.18819   0.8109     O
O      0.08745  0.19918  0.10877     O
O      0.08745  0.19918  0.89123     O
O      0.08813  0.75352  0.03016     O
O      0.08813  0.75352  0.96984     O
C      0.09054  0.23469  0.12207     C
C      0.09054  0.23469  0.87793     C
H       0.0929    0.771   0.2649     H
H       0.0929    0.771   0.7351     H
H       0.0966   0.8221   0.2296     H
H       0.0966   0.8221   0.7704     H
O      0.09999   0.8746   0.1531     O
O      0.09999   0.8746   0.8469     O
O      0.10223  0.68221  0.02948     O
O      0.10223  0.68221  0.97052     O
Cu     0.10332  0.14538  0.12778    Cu
Cu     0.10332  0.14538  0.87222    Cu
C      0.10601  0.85175  0.17516     C
C      0.10601  0.85175  0.82484     C
C      0.10653  0.72048  0.03938     C
C      0.10653  0.72048  0.96062     C
O       0.1106  0.24148  0.14523     O
O       0.1106  0.24148  0.85477     O
C      0.11285  0.46795  0.34217     C
C      0.11285  0.46795  0.65783     C
C      0.11379  0.46671  0.37204     C
C      0.11379  0.46671  0.62796     C
C      0.11407  0.74822  0.31805     C
C      0.11407  0.74822  0.68195     C
C      0.11533  0.73935  0.34873     C
C      0.11533  0.73935  0.65127     C
C      0.12165  0.72532  0.40818     C
C      0.12165  0.72532  0.59182     C
H       0.1242   0.7213   0.4286     H
H       0.1242   0.7213   0.5714     H
O       0.1254  0.09999   0.1531     O
O       0.1254  0.09999   0.8469     O
H       0.1268   0.7893   0.0711     H
H       0.1268   0.7893   0.9289     H
H       0.1357   0.4932   0.4244     H
H       0.1357   0.4932   0.5756     H
C      0.13799  0.72597  0.06395     C
C      0.13799  0.72597  0.93605     C
H       0.1382   0.4609   0.3316     H
H       0.1382   0.4609   0.6684     H
Cu     0.13894  0.19599  0.16779    Cu
Cu     0.13894  0.19599  0.83221    Cu
O      0.14222  0.84041  0.18538     O
O      0.14222  0.84041  0.81462     O
C      0.14224  0.76485  0.07797     C
C      0.14224  0.76485  0.92203     C
O      0.14331  0.73904  0.30191     O
O      0.14331  0.73904  0.69809     O
Cu     0.14538  0.89668  0.12778    Cu
Cu     0.14538  0.89668  0.87222    Cu
O       0.1473  0.84094  0.10845     O
O       0.1473  0.84094  0.89155     O
C      0.14825  0.10601  0.17516     C
C      0.14825  0.10601  0.82484     C
H       0.1488   0.0252   0.1588     H
H       0.1488   0.0252   0.8412     H
C      0.15128  0.72019  0.36071     C
C      0.15128  0.72019  0.63929     C
O      0.15178  0.94721  0.15233     O
O      0.15178  0.94721  0.84767     O
C      0.15441  0.45945   0.3883     C
C      0.15441  0.45945   0.6117     C
C      0.15443  0.71197   0.3905     C
C      0.15443  0.71197   0.6095     C
H       0.1587   0.6628   0.0643     H
H       0.1587   0.6628   0.9357     H
O      0.15906   0.1473  0.10845     O
O      0.15906   0.1473  0.89155     O
C      0.15909  0.02686  0.17818     C
C      0.15909  0.02686  0.82182     C
C      0.15911  0.47794  0.41585     C
C      0.15911  0.47794  0.58415     C
O      0.15959  0.14222  0.18538     O
O      0.15959  0.14222  0.81462     O
C       0.1614  0.68983  0.07393     C
C       0.1614  0.68983  0.92607     C
C      0.16155   0.0664  0.19189     C
C      0.16155   0.0664  0.80811     C
H       0.1628   0.6587   0.4357     H
H       0.1628   0.6587   0.5643     H
C      0.16876  0.76874  0.10195     C
C      0.16876  0.76874  0.89805     C
O       0.1692  0.51482  0.46934     O
O       0.1692  0.51482  0.53066     O
Cu     0.16935  0.55901      0.5    Cu
C      0.17055  0.94739  0.17696     C
C      0.17055  0.94739  0.82304     C
C      0.17057  0.81093  0.11836     C
C      0.17057  0.81093  0.88164     C
C      0.17161   0.9894  0.19256     C
C      0.17161   0.9894  0.80744     C
H       0.1746   0.7124   0.3484     H
H       0.1746   0.7124   0.6516     H
H       0.1757   0.9757   0.2795     H
H       0.1757   0.9757   0.7205     H
C      0.17586  0.06913  0.22049     C
C      0.17586  0.06913  0.77951     C
H       0.1779   0.0966   0.2296     H
H       0.1779   0.0966   0.7704     H
O      0.18221  0.60223  0.47052     O
O      0.18221  0.60223  0.52948     O
H       0.1853   0.4213   0.3587     H
H       0.1853   0.4213   0.6413     H
C      0.18549  0.99211  0.22143     C
C      0.18549  0.99211  0.77857     C
O      0.18719  0.19421  0.14058     O
O      0.18719  0.19421  0.85942     O
C      0.18736  0.03196  0.23623     C
C      0.18736  0.03196  0.76377     C
O      0.18819  0.91545   0.1891     O
O      0.18819  0.91545   0.8109     O
C      0.18838  0.69401  0.09783     C
C      0.18838  0.69401  0.90217     C
C      0.18859  0.43555  0.37692     C
C      0.18859  0.43555  0.62308     C
C      0.18907  0.17057  0.11836     C
C      0.18907  0.17057  0.88164     C
C      0.18983   0.6614  0.42607     C
C      0.18983   0.6614  0.57393     C
C      0.19001  0.00074  0.28645     C
C      0.19001  0.00074  0.71355     C
C      0.19185  0.73311   0.1115     C
C      0.19185  0.73311   0.8885     C
H       0.1938   0.9665   0.2313     H
H       0.1938   0.9665   0.7687     H
C      0.19401  0.68838  0.40217     C
C      0.19401  0.68838  0.59783     C
O      0.19421  0.81281  0.14058     O
O      0.19421  0.81281  0.85942     O
H       0.1947     0.98   0.3269     H
H       0.1947     0.98   0.6731     H
Cu     0.19599  0.86106  0.16779    Cu
Cu     0.19599  0.86106  0.83221    Cu
C      0.19854  0.47404  0.43101     C
C      0.19854  0.47404  0.56899     C
O      0.19918  0.91255  0.10877     O
O      0.19918  0.91255  0.89123     O
C      0.20014    0.004  0.31455     C
C      0.20014    0.004  0.68545     C
C      0.20055  0.03485  0.26684     C
C      0.20055  0.03485  0.73316     C
C      0.20413   0.4983  0.45913     C
C      0.20413   0.4983  0.54087     C
H       0.2104   0.7359   0.1278     H
H       0.2104   0.7359   0.8722     H
H       0.2107   0.1268   0.0711     H
H       0.2107   0.1268   0.9289     H
C      0.21197  0.65443   0.1095     C
C      0.21197  0.65443   0.8905     C
H       0.2124   0.6746   0.1516     H
H       0.2124   0.6746   0.8484     H
C      0.21892  0.04214   0.3271     C
C      0.21892  0.04214   0.6729     C
C      0.22019  0.65128  0.13929     C
C      0.22019  0.65128  0.86071     C
C      0.22048  0.60653  0.46062     C
C      0.22048  0.60653  0.53938     C
C      0.22115  0.07022  0.27774     C
C      0.22115  0.07022  0.72226     C
H       0.2213   0.6242   0.0714     H
H       0.2213   0.6242   0.9286     H
H       0.2226   0.0229   0.3667     H
H       0.2226   0.0229   0.6333     H
C      0.22532  0.62165  0.09182     C
C      0.22532  0.62165  0.90818     C
C      0.22597  0.63799  0.43605     C
C      0.22597  0.63799  0.56395     C
C      0.22707  0.43231  0.39175     C
C      0.22707  0.43231  0.60825     C
H        0.229   0.0929   0.2649     H
H        0.229   0.0929   0.7351     H
N      0.22905  0.04477  0.35528     N
N      0.22905  0.04477  0.64472     N
C      0.23099  0.07416  0.30696     C
C      0.23099  0.07416  0.69304     C
C      0.23126  0.16876  0.10195     C
C      0.23126  0.16876  0.89805     C
C       0.2324  0.45134   0.4188     C
C       0.2324  0.45134   0.5812     C
C      0.23311  0.69185   0.3885     C
C      0.23311  0.69185   0.6115     C
C      0.23469  0.90946  0.12207     C
C      0.23469  0.90946  0.87793     C
C      0.23515  0.14224  0.07797     C
C      0.23515  0.14224  0.92203     C
H       0.2359   0.7104   0.3722     H
H       0.2359   0.7104   0.6278     H
O      0.23904  0.64331  0.19809     O
O      0.23904  0.64331  0.80191     O
C      0.23935  0.61533  0.15127     C
C      0.23935  0.61533  0.84873     C
H       0.2409   0.9488   0.0711     H
H       0.2409   0.9488   0.9289     H
O      0.24099  0.50133   0.4693     O
O      0.24099  0.50133   0.5307     O
O      0.24148   0.8894  0.14523     O
O      0.24148   0.8894  0.85477     O
C      0.24487  0.58435  0.10299     C
C      0.24487  0.58435  0.89701     C
Cu     0.24604  0.04365      0.0    Cu
H       0.2461   0.0621   0.4098     H
H       0.2461   0.0621   0.5902     H
O      0.24648  0.08813  0.03016     O
O      0.24648  0.08813  0.96984     O
C      0.24822  0.61407  0.18195     C
C      0.24822  0.61407  0.81805     C
C      0.24895  0.07986  0.36711     C
C      0.24895  0.07986  0.63289     C
C      0.25105  0.57986  0.13289     C
C      0.25105  0.57986  0.86711     C
C      0.25178  0.11407  0.31805     C
C      0.25178  0.11407  0.68195     C
O      0.25352  0.58813  0.46984     O
O      0.25352  0.58813  0.53016     O
H       0.2539   0.5621   0.0902     H
H       0.2539   0.5621   0.9098     H
Cu     0.25396  0.54365      0.5    Cu
C      0.25513  0.08435  0.39701     C
C      0.25513  0.08435  0.60299     C
O      0.25852   0.3894  0.35477     O
O      0.25852   0.3894  0.64523     O
O      0.25901  0.00133   0.0307     O
O      0.25901  0.00133   0.9693     O
H       0.2591   0.4488   0.4289     H
H       0.2591   0.4488   0.5711     H
C      0.26065  0.11533  0.34873     C
C      0.26065  0.11533  0.65127     C
O      0.26096  0.14331  0.30191     O
O      0.26096  0.14331  0.69809     O
H       0.2641   0.2104   0.1278     H
H       0.2641   0.2104   0.8722     H
C      0.26485  0.64224  0.42203     C
C      0.26485  0.64224  0.57797     C
C      0.26531  0.40946  0.37793     C
C      0.26531  0.40946  0.62207     C
C      0.26689  0.19185   0.1115     C
C      0.26689  0.19185   0.8885     C
C       0.2676  0.95134   0.0812     C
C       0.2676  0.95134   0.9188     C
C      0.26874  0.66876  0.39805     C
C      0.26874  0.66876  0.60195     C
C      0.26901  0.57416  0.19304     C
C      0.26901  0.57416  0.80696     C
N      0.27095  0.54477  0.14472     N
N      0.27095  0.54477  0.85528     N
H        0.271   0.5929   0.2351     H
H        0.271   0.5929   0.7649     H
C      0.27293  0.93231  0.10825     C
C      0.27293  0.93231  0.89175     C
C      0.27403  0.13799  0.06395     C
C      0.27403  0.13799  0.93605     C
C      0.27468  0.12165  0.40818     C
C      0.27468  0.12165  0.59182     C
H       0.2774   0.5229   0.1333     H
H       0.2774   0.5229   0.8667     H
H       0.2787   0.1242   0.4286     H
H       0.2787   0.1242   0.5714     H
C      0.27885  0.57022  0.22226     C
C      0.27885  0.57022  0.77774     C
C      0.27952  0.10653  0.03938     C
C      0.27952  0.10653  0.96062     C
C      0.27981  0.15128  0.36071     C
C      0.27981  0.15128  0.63929     C
C      0.28108  0.54214   0.1729     C
C      0.28108  0.54214   0.8271     C
H       0.2876   0.1746   0.3484     H
H       0.2876   0.1746   0.6516     H
C      0.28803  0.15443   0.3905     C
C      0.28803  0.15443   0.6095     C
H       0.2893   0.6268   0.4289     H
H       0.2893   0.6268   0.5711     H
H       0.2896   0.2359   0.3722     H
H       0.2896   0.2359   0.6278     H
C      0.29587   0.9983  0.04087     C
C      0.29587   0.9983  0.95913     C
C      0.29945  0.53485  0.23316     C
C      0.29945  0.53485  0.76684     C
C      0.29986    0.504  0.18545     C
C      0.29986    0.504  0.81455     C
O      0.30082  0.41255  0.39123     O
O      0.30082  0.41255  0.60877     O
C      0.30146  0.97404  0.06899     C
C      0.30146  0.97404  0.93101     C
Cu     0.30401  0.36106  0.33221    Cu
Cu     0.30401  0.36106  0.66779    Cu
H       0.3053     0.48   0.1731     H
H       0.3053     0.48   0.8269     H
O      0.30579  0.31281  0.35942     O
O      0.30579  0.31281  0.64058     O
C      0.30599  0.18838  0.09783     C
C      0.30599  0.18838  0.90217     C
H       0.3062   0.4665   0.2687     H
H       0.3062   0.4665   0.7313     H
C      0.30815  0.23311   0.3885     C
C      0.30815  0.23311   0.6115     C
C      0.30999  0.50074  0.21355     C
C      0.30999  0.50074  0.78645     C
C      0.31017   0.1614  0.07393     C
C      0.31017   0.1614  0.92607     C
C      0.31093  0.67057  0.38164     C
C      0.31093  0.67057  0.61836     C
C      0.31141  0.93555  0.12308     C
C      0.31141  0.93555  0.87692     C
C      0.31162  0.19401  0.40217     C
C      0.31162  0.19401  0.59783     C
O      0.31181  0.41545   0.3109     O
O      0.31181  0.41545   0.6891     O
C      0.31264  0.53196  0.26377     C
C      0.31264  0.53196  0.73623     C
O      0.31281  0.69421  0.35942     O
O      0.31281  0.69421  0.64058     O
C      0.31451  0.49211  0.27857     C
C      0.31451  0.49211  0.72143     C
H       0.3147   0.9213   0.1413     H
H       0.3147   0.9213   0.8587     H
O      0.31779  0.10223  0.02948     O
O      0.31779  0.10223  0.97052     O
H       0.3221   0.5966   0.2704     H
H       0.3221   0.5966   0.7296     H
C      0.32414  0.56913  0.27951     C
C      0.32414  0.56913  0.72049     C
H       0.3243   0.4757   0.2205     H
H       0.3243   0.4757   0.7795     H
H       0.3254   0.2124   0.1516     H
H       0.3254   0.2124   0.8484     H
C      0.32839   0.4894  0.30744     C
C      0.32839   0.4894  0.69256     C
C      0.32943  0.31093  0.38164     C
C      0.32943  0.31093  0.61836     C
C      0.32945  0.44739  0.32304     C
C      0.32945  0.44739  0.67696     C
Cu     0.33065  0.05901      0.0    Cu
O       0.3308  0.01482  0.03066     O
O       0.3308  0.01482  0.96934     O
C      0.33124  0.26874  0.39805     C
C      0.33124  0.26874  0.60195     C
H       0.3372   0.1587   0.0643     H
H       0.3372   0.1587   0.9357     H
C      0.33845   0.5664  0.30811     C
C      0.33845   0.5664  0.69189     C
C       0.3386  0.18983  0.42607     C
C       0.3386  0.18983  0.57393     C
O      0.34041  0.64222  0.31462     O
O      0.34041  0.64222  0.68538     O
C      0.34089  0.97794  0.08415     C
C      0.34089  0.97794  0.91585     C
C      0.34091  0.52686  0.32182     C
C      0.34091  0.52686  0.67818     C
O      0.34094   0.6473  0.39155     O
O      0.34094   0.6473  0.60845     O
H       0.3413   0.1628   0.4357     H
H       0.3413   0.1628   0.5643     H
C      0.34557  0.21197   0.1095     C
C      0.34557  0.21197   0.8905     C
C      0.34559  0.95945   0.1117     C
C      0.34559  0.95945   0.8883     C
O      0.34822  0.44721  0.34767     O
O      0.34822  0.44721  0.65233     O
C      0.34872  0.22019  0.13929     C
C      0.34872  0.22019  0.86071     C
H       0.3512   0.5252   0.3412     H
H       0.3512   0.5252   0.6588     H
C      0.35175  0.60601  0.32484     C
C      0.35175  0.60601  0.67516     C
O       0.3527  0.34094  0.39155     O
O       0.3527  0.34094  0.60845     O
Cu     0.35462  0.39668  0.37222    Cu
Cu     0.35462  0.39668  0.62778    Cu
O      0.35669  0.23904  0.19809     O
O      0.35669  0.23904  0.80191     O
C      0.35776  0.26485  0.42203     C
C      0.35776  0.26485  0.57797     C
O      0.35778  0.34041  0.31462     O
O      0.35778  0.34041  0.68538     O
Cu     0.36106  0.69599  0.33221    Cu
Cu     0.36106  0.69599  0.66779    Cu
H       0.3618   0.9609   0.1684     H
H       0.3618   0.9609   0.8316     H
C      0.36201  0.22597  0.43605     C
C      0.36201  0.22597  0.56395     C
H       0.3643   0.9932   0.0756     H
H       0.3643   0.9932   0.9244     H
H       0.3732   0.2893   0.4289     H
H       0.3732   0.2893   0.5711     H
O       0.3746  0.59999   0.3469     O
O       0.3746  0.59999   0.6531     O
H       0.3758   0.2213   0.0714     H
H       0.3758   0.2213   0.9286     H
C      0.37835  0.22532  0.09182     C
C      0.37835  0.22532  0.90818     C
C      0.38467  0.23935  0.15127     C
C      0.38467  0.23935  0.84873     C
C      0.38593  0.24822  0.18195     C
C      0.38593  0.24822  0.81805     C
C      0.38621  0.96671  0.12796     C
C      0.38621  0.96671  0.87204     C
C      0.38715  0.96795  0.15783     C
C      0.38715  0.96795  0.84217     C
O       0.3894  0.74148  0.35477     O
O       0.3894  0.74148  0.64523     O
C      0.39347  0.22048  0.46062     C
C      0.39347  0.22048  0.53938     C
C      0.39399  0.35175  0.32484     C
C      0.39399  0.35175  0.67516     C
Cu     0.39668  0.64538  0.37222    Cu
Cu     0.39668  0.64538  0.62778    Cu
O      0.39777  0.18221  0.47052     O
O      0.39777  0.18221  0.52948     O
O      0.40001   0.3746   0.3469     O
O      0.40001   0.3746   0.6531     O
H       0.4034   0.3221   0.2704     H
H       0.4034   0.3221   0.7296     H
H       0.4071    0.271   0.2351     H
H       0.4071    0.271   0.7649     H
C      0.40946  0.73469  0.37793     C
C      0.40946  0.73469  0.62207     C
O      0.41187  0.25352  0.46984     O
O      0.41187  0.25352  0.53016     O
O      0.41255  0.69918  0.39123     O
O      0.41255  0.69918  0.60877     O
O      0.41545  0.68819   0.3109     O
O      0.41545  0.68819   0.6891     O
C      0.41565  0.24487  0.10299     C
C      0.41565  0.24487  0.89701     C
C      0.42014  0.25105  0.13289     C
C      0.42014  0.25105  0.86711     C
H       0.4213   0.8147   0.3587     H
H       0.4213   0.8147   0.6413     H
H       0.4241   0.9768   0.0924     H
H       0.4241   0.9768   0.9076     H
C      0.42415    0.977  0.11311     C
C      0.42415    0.977  0.88689     C
H        0.425   0.9807   0.1939     H
H        0.425   0.9807   0.8061     H
C      0.42541  0.97953  0.17323     C
C      0.42541  0.97953  0.82677     C
C      0.42584  0.26901  0.19304     C
C      0.42584  0.26901  0.80696     C
C      0.42978  0.27885  0.22226     C
C      0.42978  0.27885  0.77774     C
C      0.43087  0.32414  0.27951     C
C      0.43087  0.32414  0.72049     C
C      0.43231  0.77293  0.39175     C
C      0.43231  0.77293  0.60825     C
C       0.4336  0.33845  0.30811     C
C       0.4336  0.33845  0.69189     C
C      0.43555  0.81141  0.37692     C
C      0.43555  0.81141  0.62308     C
H       0.4379   0.2539   0.0902     H
H       0.4379   0.2539   0.9098     H
Cu     0.44099  0.16935      0.5    Cu
O      0.44721  0.65178  0.34767     O
O      0.44721  0.65178  0.65233     O
C      0.44739  0.67055  0.32304     C
C      0.44739  0.67055  0.67696     C
H       0.4488   0.7409   0.4289     H
H       0.4488   0.7409   0.5711     H
C      0.45134   0.7676   0.4188     C
C      0.45134   0.7676   0.5812     C
N      0.45523  0.27095  0.14472     N
N      0.45523  0.27095  0.85528     N
Cu     0.45635  0.25396      0.5    Cu
C      0.45786  0.28108   0.1729     C
C      0.45786  0.28108   0.8271     C
C      0.45945  0.84559   0.3883     C
C      0.45945  0.84559   0.6117     C
H       0.4609   0.8618   0.3316     H
H       0.4609   0.8618   0.6684     H
C      0.46304  0.98787   0.1282     C
C      0.46304  0.98787   0.8718     C
C      0.46353  0.98921  0.15828     C
C      0.46353  0.98921  0.84172     C
C      0.46515  0.29945  0.23316     C
C      0.46515  0.29945  0.76684     C
H       0.4665   0.6938   0.2687     H
H       0.4665   0.6938   0.7313     H
C      0.46671  0.88621  0.37204     C
C      0.46671  0.88621  0.62796     C
C      0.46795  0.88715  0.34217     C
C      0.46795  0.88715  0.65783     C
C      0.46804  0.31264  0.26377     C
C      0.46804  0.31264  0.73623     C
C      0.47314  0.34091  0.32182     C
C      0.47314  0.34091  0.67818     C
C      0.47404  0.80146  0.43101     C
C      0.47404  0.80146  0.56899     C
H       0.4748   0.3512   0.3412     H
H       0.4748   0.3512   0.6588     H
H       0.4757   0.6757   0.2205     H
H       0.4757   0.6757   0.7795     H
H       0.4768   0.9241   0.4076     H
H       0.4768   0.9241   0.5924     H
C        0.477  0.92415  0.38689     C
C        0.477  0.92415  0.61311     C
H       0.4771   0.2774   0.1333     H
H       0.4771   0.2774   0.8667     H
C      0.47794  0.84089  0.41585     C
C      0.47794  0.84089  0.58415     C
C      0.47953  0.92541  0.32677     C
C      0.47953  0.92541  0.67323     C
H         0.48   0.6947   0.1731     H
H         0.48   0.6947   0.8269     H
H       0.4807    0.925   0.3061     H
H       0.4807    0.925   0.6939     H
O      0.48518   0.1692  0.46934     O
O      0.48518   0.1692  0.53066     O
C      0.48787  0.96304   0.3718     C
C      0.48787  0.96304   0.6282     C
C      0.48921  0.96353  0.34172     C
C      0.48921  0.96353  0.65828     C
C       0.4894  0.67161  0.30744     C
C       0.4894  0.67161  0.69256     C
C      0.49211  0.68549  0.27857     C
C      0.49211  0.68549  0.72143     C
H       0.4932   0.8643   0.4244     H
H       0.4932   0.8643   0.5756     H
C        0.496  0.29986  0.18545     C
C        0.496  0.29986  0.81455     C
C       0.4983  0.79587  0.45913     C
C       0.4983  0.79587  0.54087     C
O      0.49867  0.24099   0.4693     O
O      0.49867  0.24099   0.5307     O
C      0.49926  0.30999  0.21355     C
C      0.49926  0.30999  0.78645     C
O          0.5      0.0   0.0848     O
C          0.5      0.0  0.11215     C
N          0.5      0.0  0.17218     N
H          0.5      0.0   0.1913     H
H          0.5      0.0   0.3087     H
N          0.5      0.0  0.32782     N
C          0.5      0.0  0.38785     C
O          0.5      0.0   0.4152     O
O          0.5      0.0   0.5848     O
C          0.5      0.0  0.61215     C
N          0.5      0.0  0.67218     N
H          0.5      0.0   0.6913     H
H          0.5      0.0   0.8087     H
N          0.5      0.0  0.82782     N
C          0.5      0.0  0.88785     C
O          0.5      0.0   0.9152     O
C      0.50074  0.69001  0.21355     C
C      0.50074  0.69001  0.78645     C
O      0.50133  0.75901   0.4693     O
O      0.50133  0.75901   0.5307     O
C       0.5017  0.20413  0.45913     C
C       0.5017  0.20413  0.54087     C
C        0.504  0.70014  0.18545     C
C        0.504  0.70014  0.81455     C
H       0.5068   0.1357   0.4244     H
H       0.5068   0.1357   0.5756     H
C      0.50789  0.31451  0.27857     C
C      0.50789  0.31451  0.72143     C
C       0.5106  0.32839  0.30744     C
C       0.5106  0.32839  0.69256     C
C      0.51079  0.03647  0.34172     C
C      0.51079  0.03647  0.65828     C
C      0.51213  0.03696   0.3718     C
C      0.51213  0.03696   0.6282     C
O      0.51482   0.8308  0.46934     O
O      0.51482   0.8308  0.53066     O
H       0.5193    0.075   0.3061     H
H       0.5193    0.075   0.6939     H
H         0.52   0.3053   0.1731     H
H         0.52   0.3053   0.8269     H
C      0.52047  0.07459  0.32677     C
C      0.52047  0.07459  0.67323     C
C      0.52206  0.15911  0.41585     C
C      0.52206  0.15911  0.58415     C
H       0.5229   0.7226   0.1333     H
H       0.5229   0.7226   0.8667     H
C        0.523  0.07585  0.38689     C
C        0.523  0.07585  0.61311     C
H       0.5232   0.0759   0.4076     H
H       0.5232   0.0759   0.5924     H
H       0.5243   0.3243   0.2205     H
H       0.5243   0.3243   0.7795     H
H       0.5252   0.6488   0.3412     H
H       0.5252   0.6488   0.6588     H
C      0.52596  0.19854  0.43101     C
C      0.52596  0.19854  0.56899     C
C      0.52686  0.65909  0.32182     C
C      0.52686  0.65909  0.67818     C
C      0.53196  0.68736  0.26377     C
C      0.53196  0.68736  0.73623     C
C      0.53205  0.11285  0.34217     C
C      0.53205  0.11285  0.65783     C
C      0.53329  0.11379  0.37204     C
C      0.53329  0.11379  0.62796     C
H       0.5335   0.3062   0.2687     H
H       0.5335   0.3062   0.7313     H
C      0.53485  0.70055  0.23316     C
C      0.53485  0.70055  0.76684     C
C      0.53647  0.01079  0.15828     C
C      0.53647  0.01079  0.84172     C
C      0.53696  0.01213   0.1282     C
C      0.53696  0.01213   0.8718     C
H       0.5391   0.1382   0.3316     H
H       0.5391   0.1382   0.6684     H
C      0.54055  0.15441   0.3883     C
C      0.54055  0.15441   0.6117     C
C      0.54214  0.71892   0.1729     C
C      0.54214  0.71892   0.8271     C
Cu     0.54365  0.74604      0.5    Cu
N      0.54477  0.72905  0.14472     N
N      0.54477  0.72905  0.85528     N
C      0.54866   0.2324   0.4188     C
C      0.54866   0.2324   0.5812     C
H       0.5512   0.2591   0.4289     H
H       0.5512   0.2591   0.5711     H
C      0.55261  0.32945  0.32304     C
C      0.55261  0.32945  0.67696     C
O      0.55279  0.34822  0.34767     O
O      0.55279  0.34822  0.65233     O
Cu     0.55901  0.83065      0.5    Cu
H       0.5621   0.7461   0.0902     H
H       0.5621   0.7461   0.9098     H
C      0.56445  0.18859  0.37692     C
C      0.56445  0.18859  0.62308     C
C       0.5664  0.66155  0.30811     C
C       0.5664  0.66155  0.69189     C
C      0.56769  0.22707  0.39175     C
C      0.56769  0.22707  0.60825     C
C      0.56913  0.67586  0.27951     C
C      0.56913  0.67586  0.72049     C
C      0.57022  0.72115  0.22226     C
C      0.57022  0.72115  0.77774     C
C      0.57416  0.73099  0.19304     C
C      0.57416  0.73099  0.80696     C
C      0.57459  0.02047  0.17323     C
C      0.57459  0.02047  0.82677     C
H        0.575   0.0193   0.1939     H
H        0.575   0.0193   0.8061     H
C      0.57585    0.023  0.11311     C
C      0.57585    0.023  0.88689     C
H       0.5759   0.0232   0.0924     H
H       0.5759   0.0232   0.9076     H
H       0.5787   0.1853   0.3587     H
H       0.5787   0.1853   0.6413     H
C      0.57986  0.74895  0.13289     C
C      0.57986  0.74895  0.86711     C
C      0.58435  0.75513  0.10299     C
C      0.58435  0.75513  0.89701     C
O      0.58455  0.31181   0.3109     O
O      0.58455  0.31181   0.6891     O
O      0.58745  0.30082  0.39123     O
O      0.58745  0.30082  0.60877     O
O      0.58813  0.74648  0.46984     O
O      0.58813  0.74648  0.53016     O
C      0.59054  0.26531  0.37793     C
C      0.59054  0.26531  0.62207     C
H       0.5929    0.729   0.2351     H
H       0.5929    0.729   0.7649     H
H       0.5966   0.6779   0.2704     H
H       0.5966   0.6779   0.7296     H
O      0.59999   0.6254   0.3469     O
O      0.59999   0.6254   0.6531     O
O      0.60223  0.81779  0.47052     O
O      0.60223  0.81779  0.52948     O
Cu     0.60332  0.35462  0.37222    Cu
Cu     0.60332  0.35462  0.62778    Cu
C      0.60601  0.64825  0.32484     C
C      0.60601  0.64825  0.67516     C
C      0.60653  0.77952  0.46062     C
C      0.60653  0.77952  0.53938     C
O       0.6106  0.25852  0.35477     O
O       0.6106  0.25852  0.64523     O
C      0.61285  0.03205  0.15783     C
C      0.61285  0.03205  0.84217     C
C      0.61379  0.03329  0.12796     C
C      0.61379  0.03329  0.87204     C
C      0.61407  0.75178  0.18195     C
C      0.61407  0.75178  0.81805     C
C      0.61533  0.76065  0.15127     C
C      0.61533  0.76065  0.84873     C
C      0.62165  0.77468  0.09182     C
C      0.62165  0.77468  0.90818     C
H       0.6242   0.7787   0.0714     H
H       0.6242   0.7787   0.9286     H
O       0.6254  0.40001   0.3469     O
O       0.6254  0.40001   0.6531     O
H       0.6268   0.7107   0.4289     H
H       0.6268   0.7107   0.5711     H
H       0.6357   0.0068   0.0756     H
H       0.6357   0.0068   0.9244     H
C      0.63799  0.77403  0.43605     C
C      0.63799  0.77403  0.56395     C
H       0.6382   0.0391   0.1684     H
H       0.6382   0.0391   0.8316     H
Cu     0.63894  0.30401  0.33221    Cu
Cu     0.63894  0.30401  0.66779    Cu
O      0.64222  0.65959  0.31462     O
O      0.64222  0.65959  0.68538     O
C      0.64224  0.73515  0.42203     C
C      0.64224  0.73515  0.57797     C
O      0.64331  0.76096  0.19809     O
O      0.64331  0.76096  0.80191     O
Cu     0.64538  0.60332  0.37222    Cu
Cu     0.64538  0.60332  0.62778    Cu
O       0.6473  0.65906  0.39155     O
O       0.6473  0.65906  0.60845     O
C      0.64825  0.39399  0.32484     C
C      0.64825  0.39399  0.67516     C
H       0.6488   0.4748   0.3412     H
H       0.6488   0.4748   0.6588     H
C      0.65128  0.77981  0.13929     C
C      0.65128  0.77981  0.86071     C
O      0.65178  0.55279  0.34767     O
O      0.65178  0.55279  0.65233     O
C      0.65441  0.04055   0.1117     C
C      0.65441  0.04055   0.8883     C
C      0.65443  0.78803   0.1095     C
C      0.65443  0.78803   0.8905     C
H       0.6587   0.8372   0.4357     H
H       0.6587   0.8372   0.5643     H
O      0.65906   0.3527  0.39155     O
O      0.65906   0.3527  0.60845     O
C      0.65909  0.47314  0.32182     C
C      0.65909  0.47314  0.67818     C
C      0.65911  0.02206  0.08415     C
C      0.65911  0.02206  0.91585     C
O      0.65959  0.35778  0.31462     O
O      0.65959  0.35778  0.68538     O
C       0.6614  0.81017  0.42607     C
C       0.6614  0.81017  0.57393     C
C      0.66155   0.4336  0.30811     C
C      0.66155   0.4336  0.69189     C
H       0.6628   0.8413   0.0643     H
H       0.6628   0.8413   0.9357     H
C      0.66876  0.73126  0.39805     C
C      0.66876  0.73126  0.60195     C
O       0.6692  0.98518  0.03066     O
O       0.6692  0.98518  0.96934     O
Cu     0.66935  0.94099      0.0    Cu
C      0.67055  0.55261  0.32304     C
C      0.67055  0.55261  0.67696     C
C      0.67057  0.68907  0.38164     C
C      0.67057  0.68907  0.61836     C
C      0.67161   0.5106  0.30744     C
C      0.67161   0.5106  0.69256     C
H       0.6746   0.7876   0.1516     H
H       0.6746   0.7876   0.8484     H
H       0.6757   0.5243   0.2205     H
H       0.6757   0.5243   0.7795     H
C      0.67586  0.43087  0.27951     C
C      0.67586  0.43087  0.72049     C
H       0.6779   0.4034   0.2704     H
H       0.6779   0.4034   0.7296     H
O      0.68221  0.89777  0.02948     O
O      0.68221  0.89777  0.97052     O
H       0.6853   0.0787   0.1413     H
H       0.6853   0.0787   0.8587     H
C      0.68549  0.50789  0.27857     C
C      0.68549  0.50789  0.72143     C
O      0.68719  0.30579  0.35942     O
O      0.68719  0.30579  0.64058     O
C      0.68736  0.46804  0.26377     C
C      0.68736  0.46804  0.73623     C
O      0.68819  0.58455   0.3109     O
O      0.68819  0.58455   0.6891     O
C      0.68838  0.80599  0.40217     C
C      0.68838  0.80599  0.59783     C
C      0.68859  0.06445  0.12308     C
C      0.68859  0.06445  0.87692     C
C      0.68907  0.32943  0.38164     C
C      0.68907  0.32943  0.61836     C
C      0.68983   0.8386  0.07393     C
C      0.68983   0.8386  0.92607     C
C      0.69001  0.49926  0.21355     C
C      0.69001  0.49926  0.78645     C
C      0.69185  0.76689   0.3885     C
C      0.69185  0.76689   0.6115     C
H       0.6938   0.5335   0.2687     H
H       0.6938   0.5335   0.7313     H
C      0.69401  0.81162  0.09783     C
C      0.69401  0.81162  0.90217     C
O      0.69421  0.68719  0.35942     O
O      0.69421  0.68719  0.64058     O
H       0.6947     0.52   0.1731     H
H       0.6947     0.52   0.8269     H
Cu     0.69599  0.63894  0.33221    Cu
Cu     0.69599  0.63894  0.66779    Cu
C      0.69854  0.02596  0.06899     C
C      0.69854  0.02596  0.93101     C
O      0.69918  0.58745  0.39123     O
O      0.69918  0.58745  0.60877     O
C      0.70014    0.496  0.18545     C
C      0.70014    0.496  0.81455     C
C      0.70055  0.46515  0.23316     C
C      0.70055  0.46515  0.76684     C
C      0.70413   0.0017  0.04087     C
C      0.70413   0.0017  0.95913     C
H       0.7104   0.7641   0.3722     H
H       0.7104   0.7641   0.6278     H
H       0.7107   0.3732   0.4289     H
H       0.7107   0.3732   0.5711     H
C      0.71197  0.84557   0.3905     C
C      0.71197  0.84557   0.6095     C
H       0.7124   0.8254   0.3484     H
H       0.7124   0.8254   0.6516     H
C      0.71892  0.45786   0.1729     C
C      0.71892  0.45786   0.8271     C
C      0.72019  0.84872  0.36071     C
C      0.72019  0.84872  0.63929     C
C      0.72048  0.89347  0.03938     C
C      0.72048  0.89347  0.96062     C
C      0.72115  0.42978  0.22226     C
C      0.72115  0.42978  0.77774     C
H       0.7213   0.8758   0.4286     H
H       0.7213   0.8758   0.5714     H
H       0.7226   0.4771   0.1333     H
H       0.7226   0.4771   0.8667     H
C      0.72532  0.87835  0.40818     C
C      0.72532  0.87835  0.59182     C
C      0.72597  0.86201  0.06395     C
C      0.72597  0.86201  0.93605     C
C      0.72707  0.06769  0.10825     C
C      0.72707  0.06769  0.89175     C
H        0.729   0.4071   0.2351     H
H        0.729   0.4071   0.7649     H
N      0.72905  0.45523  0.14472     N
N      0.72905  0.45523  0.85528     N
C      0.73099  0.42584  0.19304     C
C      0.73099  0.42584  0.80696     C
C      0.73126  0.33124  0.39805     C
C      0.73126  0.33124  0.60195     C
C       0.7324  0.04866   0.0812     C
C       0.7324  0.04866   0.9188     C
C      0.73311  0.80815   0.1115     C
C      0.73311  0.80815   0.8885     C
C      0.73469  0.59054  0.37793     C
C      0.73469  0.59054  0.62207     C
C      0.73515  0.35776  0.42203     C
C      0.73515  0.35776  0.57797     C
H       0.7359   0.7896   0.1278     H
H       0.7359   0.7896   0.8722     H
O      0.73904  0.85669  0.30191     O
O      0.73904  0.85669  0.69809     O
C      0.73935  0.88467  0.34873     C
C      0.73935  0.88467  0.65127     C
H       0.7409   0.5512   0.4289     H
H       0.7409   0.5512   0.5711     H
O      0.74099  0.99867   0.0307     O
O      0.74099  0.99867   0.9693     O
O      0.74148   0.6106  0.35477     O
O      0.74148   0.6106  0.64523     O
C      0.74487  0.91565  0.39701     C
C      0.74487  0.91565  0.60299     C
Cu     0.74604  0.45635      0.5    Cu
H       0.7461   0.4379   0.0902     H
H       0.7461   0.4379   0.9098     H
O      0.74648  0.41187  0.46984     O
O      0.74648  0.41187  0.53016     O
C      0.74822  0.88593  0.31805     C
C      0.74822  0.88593  0.68195     C
C      0.74895  0.42014  0.13289     C
C      0.74895  0.42014  0.86711     C
C      0.75105  0.92014  0.36711     C
C      0.75105  0.92014  0.63289     C
C      0.75178  0.38593  0.18195     C
C      0.75178  0.38593  0.81805     C
O      0.75352  0.91187  0.03016     O
O      0.75352  0.91187  0.96984     O
H       0.7539   0.9379   0.4098     H
H       0.7539   0.9379   0.5902     H
Cu     0.75396  0.95635      0.0    Cu
C      0.75513  0.41565  0.10299     C
C      0.75513  0.41565  0.89701     C
O      0.75852   0.1106  0.14523     O
O      0.75852   0.1106  0.85477     O
O      0.75901  0.49867   0.4693     O
O      0.75901  0.49867   0.5307     O
H       0.7591   0.0512   0.0711     H
H       0.7591   0.0512   0.9289     H
C      0.76065  0.38467  0.15127     C
C      0.76065  0.38467  0.84873     C
O      0.76096  0.35669  0.19809     O
O      0.76096  0.35669  0.80191     O
H       0.7641   0.2896   0.3722     H
H       0.7641   0.2896   0.6278     H
C      0.76485  0.85776  0.07797     C
C      0.76485  0.85776  0.92203     C
C      0.76531  0.09054  0.12207     C
C      0.76531  0.09054  0.87793     C
C      0.76689  0.30815   0.3885     C
C      0.76689  0.30815   0.6115     C
C       0.7676  0.54866   0.4188     C
C       0.7676  0.54866   0.5812     C
C      0.76874  0.83124  0.10195     C
C      0.76874  0.83124  0.89805     C
C      0.76901  0.92584  0.30696     C
C      0.76901  0.92584  0.69304     C
N      0.77095  0.95523  0.35528     N
N      0.77095  0.95523  0.64472     N
H        0.771   0.9071   0.2649     H
H        0.771   0.9071   0.7351     H
C      0.77293  0.56769  0.39175     C
C      0.77293  0.56769  0.60825     C
C      0.77403  0.36201  0.43605     C
C      0.77403  0.36201  0.56395     C
C      0.77468  0.37835  0.09182     C
C      0.77468  0.37835  0.90818     C
H       0.7774   0.9771   0.3667     H
H       0.7774   0.9771   0.6333     H
H       0.7787   0.3758   0.0714     H
H       0.7787   0.3758   0.9286     H
C      0.77885  0.92978  0.27774     C
C      0.77885  0.92978  0.72226     C
C      0.77952  0.39347  0.46062     C
C      0.77952  0.39347  0.53938     C
C      0.77981  0.34872  0.13929     C
C      0.77981  0.34872  0.86071     C
C      0.78108  0.95786   0.3271     C
C      0.78108  0.95786   0.6729     C
H       0.7876   0.3254   0.1516     H
H       0.7876   0.3254   0.8484     H
C      0.78803  0.34557   0.1095     C
C      0.78803  0.34557   0.8905     C
H       0.7893   0.8732   0.0711     H
H       0.7893   0.8732   0.9289     H
H       0.7896   0.2641   0.1278     H
H       0.7896   0.2641   0.8722     H
C      0.79587   0.5017  0.45913     C
C      0.79587   0.5017  0.54087     C
C      0.79945  0.96515  0.26684     C
C      0.79945  0.96515  0.73316     C
C      0.79986    0.996  0.31455     C
C      0.79986    0.996  0.68545     C
O      0.80082  0.08745  0.10877     O
O      0.80082  0.08745  0.89123     O
C      0.80146  0.52596  0.43101     C
C      0.80146  0.52596  0.56899     C
Cu     0.80401  0.13894  0.16779    Cu
Cu     0.80401  0.13894  0.83221    Cu
H       0.8053     0.02   0.3269     H
H       0.8053     0.02   0.6731     H
O      0.80579  0.18719  0.14058     O
O      0.80579  0.18719  0.85942     O
C      0.80599  0.31162  0.40217     C
C      0.80599  0.31162  0.59783     C
H       0.8062   0.0335   0.2313     H
H       0.8062   0.0335   0.7687     H
C      0.80815  0.26689   0.1115     C
C      0.80815  0.26689   0.8885     C
C      0.80999  0.99926  0.28645     C
C      0.80999  0.99926  0.71355     C
C      0.81017   0.3386  0.42607     C
C      0.81017   0.3386  0.57393     C
C      0.81093  0.82943  0.11836     C
C      0.81093  0.82943  0.88164     C
C      0.81141  0.56445  0.37692     C
C      0.81141  0.56445  0.62308     C
C      0.81162  0.30599  0.09783     C
C      0.81162  0.30599  0.90217     C
O      0.81181  0.08455   0.1891     O
O      0.81181  0.08455   0.8109     O
C      0.81264  0.96804  0.23623     C
C      0.81264  0.96804  0.76377     C
O      0.81281  0.80579  0.14058     O
O      0.81281  0.80579  0.85942     O
C      0.81451  0.00789  0.22143     C
C      0.81451  0.00789  0.77857     C
H       0.8147   0.5787   0.3587     H
H       0.8147   0.5787   0.6413     H
O      0.81779  0.39777  0.47052     O
O      0.81779  0.39777  0.52948     O
H       0.8221   0.9034   0.2296     H
H       0.8221   0.9034   0.7704     H
C      0.82414  0.93087  0.22049     C
C      0.82414  0.93087  0.77951     C
H       0.8243   0.0243   0.2795     H
H       0.8243   0.0243   0.7205     H
H       0.8254   0.2876   0.3484     H
H       0.8254   0.2876   0.6516     H
C      0.82839   0.0106  0.19256     C
C      0.82839   0.0106  0.80744     C
C      0.82943  0.18907  0.11836     C
C      0.82943  0.18907  0.88164     C
C      0.82945  0.05261  0.17696     C
C      0.82945  0.05261  0.82304     C
Cu     0.83065  0.44099      0.5    Cu
O       0.8308  0.48518  0.46934     O
O       0.8308  0.48518  0.53066     O
C      0.83124  0.23126  0.10195     C
C      0.83124  0.23126  0.89805     C
H       0.8372   0.3413   0.4357     H
H       0.8372   0.3413   0.5643     H
C      0.83845   0.9336  0.19189     C
C      0.83845   0.9336  0.80811     C
C       0.8386  0.31017  0.07393     C
C       0.8386  0.31017  0.92607     C
O      0.84041  0.85778  0.18538     O
O      0.84041  0.85778  0.81462     O
C      0.84089  0.52206  0.41585     C
C      0.84089  0.52206  0.58415     C
C      0.84091  0.97314  0.17818     C
C      0.84091  0.97314  0.82182     C
O      0.84094   0.8527  0.10845     O
O      0.84094   0.8527  0.89155     O
H       0.8413   0.3372   0.0643     H
H       0.8413   0.3372   0.9357     H
C      0.84557  0.28803   0.3905     C
C      0.84557  0.28803   0.6095     C
C      0.84559  0.54055   0.3883     C
C      0.84559  0.54055   0.6117     C
O      0.84822  0.05279  0.15233     O
O      0.84822  0.05279  0.84767     O
C      0.84872  0.27981  0.36071     C
C      0.84872  0.27981  0.63929     C
H       0.8512   0.9748   0.1588     H
H       0.8512   0.9748   0.8412     H
C      0.85175  0.89399  0.17516     C
C      0.85175  0.89399  0.82484     C
O       0.8527  0.15906  0.10845     O
O       0.8527  0.15906  0.89155     O
Cu     0.85462  0.10332  0.12778    Cu
Cu     0.85462  0.10332  0.87222    Cu
O      0.85669  0.26096  0.30191     O
O      0.85669  0.26096  0.69809     O
C      0.85776  0.23515  0.07797     C
C      0.85776  0.23515  0.92203     C
O      0.85778  0.15959  0.18538     O
O      0.85778  0.15959  0.81462     O
Cu     0.86106  0.80401  0.16779    Cu
Cu     0.86106  0.80401  0.83221    Cu
H       0.8618   0.5391   0.3316     H
H       0.8618   0.5391   0.6684     H
C      0.86201  0.27403  0.06395     C
C      0.86201  0.27403  0.93605     C
H       0.8643   0.5068   0.4244     H
H       0.8643   0.5068   0.5756     H
H       0.8732   0.2107   0.0711     H
H       0.8732   0.2107   0.9289     H
O       0.8746  0.90001   0.1531     O
O       0.8746  0.90001   0.8469     O
H       0.8758   0.2787   0.4286     H
H       0.8758   0.2787   0.5714     H
C      0.87835  0.27468  0.40818     C
C      0.87835  0.27468  0.59182     C
C      0.88467  0.26065  0.34873     C
C      0.88467  0.26065  0.65127     C
C      0.88593  0.25178  0.31805     C
C      0.88593  0.25178  0.68195     C
C      0.88621  0.53329  0.37204     C
C      0.88621  0.53329  0.62796     C
C      0.88715  0.53205  0.34217     C
C      0.88715  0.53205  0.65783     C
O       0.8894  0.75852  0.14523     O
O       0.8894  0.75852  0.85477     O
C      0.89347  0.27952  0.03938     C
C      0.89347  0.27952  0.96062     C
C      0.89399  0.14825  0.17516     C
C      0.89399  0.14825  0.82484     C
Cu     0.89668  0.85462  0.12778    Cu
Cu     0.89668  0.85462  0.87222    Cu
O      0.89777  0.31779  0.02948     O
O      0.89777  0.31779  0.97052     O
O      0.90001   0.1254   0.1531     O
O      0.90001   0.1254   0.8469     O
H       0.9034   0.1779   0.2296     H
H       0.9034   0.1779   0.7704     H
H       0.9071    0.229   0.2649     H
H       0.9071    0.229   0.7351     H
C      0.90946  0.76531  0.12207     C
C      0.90946  0.76531  0.87793     C
O      0.91187  0.24648  0.03016     O
O      0.91187  0.24648  0.96984     O
O      0.91255  0.80082  0.10877     O
O      0.91255  0.80082  0.89123     O
O      0.91545  0.81181   0.1891     O
O      0.91545  0.81181   0.8109     O
C      0.91565  0.25513  0.39701     C
C      0.91565  0.25513  0.60299     C
C      0.92014  0.24895  0.36711     C
C      0.92014  0.24895  0.63289     C
H       0.9213   0.6853   0.1413     H
H       0.9213   0.6853   0.8587     H
H       0.9241   0.5232   0.4076     H
H       0.9241   0.5232   0.5924     H
C      0.92415    0.523  0.38689     C
C      0.92415    0.523  0.61311     C
H        0.925   0.5193   0.3061     H
H        0.925   0.5193   0.6939     H
C      0.92541  0.52047  0.32677     C
C      0.92541  0.52047  0.67323     C
C      0.92584  0.23099  0.30696     C
C      0.92584  0.23099  0.69304     C
C      0.92978  0.22115  0.27774     C
C      0.92978  0.22115  0.72226     C
C      0.93087  0.17586  0.22049     C
C      0.93087  0.17586  0.77951     C
C      0.93231  0.72707  0.10825     C
C      0.93231  0.72707  0.89175     C
C       0.9336  0.16155  0.19189     C
C       0.9336  0.16155  0.80811     C
C      0.93555  0.68859  0.12308     C
C      0.93555  0.68859  0.87692     C
H       0.9379   0.2461   0.4098     H
H       0.9379   0.2461   0.5902     H
Cu     0.94099  0.33065      0.0    Cu
O      0.94721  0.84822  0.15233     O
O      0.94721  0.84822  0.84767     O
C      0.94739  0.82945  0.17696     C
C      0.94739  0.82945  0.82304     C
H       0.9488   0.7591   0.0711     H
H       0.9488   0.7591   0.9289     H
C      0.95134   0.7324   0.0812     C
C      0.95134   0.7324   0.9188     C
N      0.95523  0.22905  0.35528     N
N      0.95523  0.22905  0.64472     N
Cu     0.95635  0.24604      0.0    Cu
C      0.95786  0.21892   0.3271     C
C      0.95786  0.21892   0.6729     C
C      0.95945  0.65441   0.1117     C
C      0.95945  0.65441   0.8883     C
H       0.9609   0.6382   0.1684     H
H       0.9609   0.6382   0.8316     H
C      0.96304  0.51213   0.3718     C
C      0.96304  0.51213   0.6282     C
C      0.96353  0.51079  0.34172     C
C      0.96353  0.51079  0.65828     C
C      0.96515  0.20055  0.26684     C
C      0.96515  0.20055  0.73316     C
H       0.9665   0.8062   0.2313     H
H       0.9665   0.8062   0.7687     H
C      0.96671  0.61379  0.12796     C
C      0.96671  0.61379  0.87204     C
C      0.96795  0.61285  0.15783     C
C      0.96795  0.61285  0.84217     C
C      0.96804  0.18736  0.23623     C
C      0.96804  0.18736  0.76377     C
C      0.97314  0.15909  0.17818     C
C      0.97314  0.15909  0.82182     C
C      0.97404  0.69854  0.06899     C
C      0.97404  0.69854  0.93101     C
H       0.9748   0.1488   0.1588     H
H       0.9748   0.1488   0.8412     H
H       0.9757   0.8243   0.2795     H
H       0.9757   0.8243   0.7205     H
H       0.9768   0.5759   0.0924     H
H       0.9768   0.5759   0.9076     H
C        0.977  0.57585  0.11311     C
C        0.977  0.57585  0.88689     C
H       0.9771   0.2226   0.3667     H
H       0.9771   0.2226   0.6333     H
C      0.97794  0.65911  0.08415     C
C      0.97794  0.65911  0.91585     C
C      0.97953  0.57459  0.17323     C
C      0.97953  0.57459  0.82677     C
H         0.98   0.8053   0.3269     H
H         0.98   0.8053   0.6731     H
H       0.9807    0.575   0.1939     H
H       0.9807    0.575   0.8061     H
O      0.98518   0.3308  0.03066     O
O      0.98518   0.3308  0.96934     O
C      0.98787  0.53696   0.1282     C
C      0.98787  0.53696   0.8718     C
C      0.98921  0.53647  0.15828     C
C      0.98921  0.53647  0.84172     C
C       0.9894  0.82839  0.19256     C
C       0.9894  0.82839  0.80744     C
C      0.99211  0.81451  0.22143     C
C      0.99211  0.81451  0.77857     C
H       0.9932   0.6357   0.0756     H
H       0.9932   0.6357   0.9244     H
C        0.996  0.20014  0.31455     C
C        0.996  0.20014  0.68545     C
C       0.9983  0.70413  0.04087     C
C       0.9983  0.70413  0.95913     C
O      0.99867  0.25901   0.0307     O
O      0.99867  0.25901   0.9693     O
C      0.99926  0.19001  0.28645     C
C      0.99926  0.19001  0.71355     C
