data_I
_chemical_name_common  '/home/zhangsd/repos/MofS-CGCNN/ML/data/TSD/clean_cifs/CIVTEH_clean'
_cell_length_a 12.23420
_cell_length_b 13.95830
_cell_length_c 19.60640
_cell_angle_alpha 83.81790
_cell_angle_beta  75.77510
_cell_angle_gamma 64.00820
_space_group_name_H-M_alt      'P 1'


loop_
_space_group_symop_operation_xyz
  'x, y, z' 

loop_
_atom_site_label
_atom_site_fract_x
_atom_site_fract_y
_atom_site_fract_z
_atom_site_type_symbol
C       0.0029    0.355   0.7229     C
H       0.0223   0.6166    0.231     H
O      0.02249  0.40702  0.44915     O
N      0.03631  0.63438  0.39227     N
H        0.042   0.2358   0.4083     H
C      0.06733  0.27534   0.5915     C
C       0.0696   0.5942   0.3264     C
H        0.091   0.2466   0.5456     H
C      0.11128  0.26324   0.7043     C
C         0.13    0.202   0.3924     C
C      0.13447  0.36966   0.4218     C
H       0.1349   0.5292   0.6177     H
H       0.1386   0.0602   0.3664     H
Cu     0.14075  0.55604  0.46223    Cu
C      0.14098  0.22224   0.6384     C
H       0.1434   0.5304   0.3137     H
H       0.1804   0.2892    0.982     H
C       0.1875   0.0968   0.3682     C
C       0.1892   0.2148   0.7585     C
H       0.1934   0.4084   0.0489     H
H       0.1988   0.9398   0.8664     H
C      0.19913  0.25694   0.3934     C
N      0.19959  0.28622  0.79298     N
O      0.20333  0.41794  0.41576     O
H       0.2126    0.157   0.6251     H
C       0.2153   0.3366   0.9601     C
C       0.2159   0.4778   0.5972     C
N       0.2199   0.0366   0.1933     N
C       0.2234   0.4078   0.9994     C
C       0.2427    0.106   0.7734     C
N      0.25236  0.47648   0.5285     N
C       0.2531   0.0252    0.728     C
N       0.2565   0.9634   0.6933     N
H        0.257    0.412   0.6916     H
C       0.2589   0.3354   0.8873     C
C      0.25986  0.25228   0.8454     C
N      0.27116  0.47648   0.9715     N
H       0.2778   0.7642   0.9083     H
C       0.2783   0.9748    0.228     C
C       0.2843   0.9032   0.8682     C
C       0.2882   0.4086   0.6421     C
C       0.3032   0.4086   0.8579     C
Cu     0.30321  0.55604  0.03777    Cu
C       0.3063   0.4778   0.9028     C
C       0.3091   0.0684   0.8261     C
C      0.31663  0.04634    0.347     C
C       0.3197   0.1438    0.861     C
H       0.3262   0.5304   0.1863     H
C       0.3293   0.2062    0.371     C
N      0.32931  0.63438  0.10773     N
H        0.331    0.412   0.8084     H
C        0.332    0.798   0.8924     C
H       0.3359   0.5292   0.8823     H
C       0.3362   0.5942   0.1736     C
H       0.3376   0.7534   0.0456     H
C      0.34267  0.72466   0.0915     C
C       0.3487    0.894   0.2734     C
C       0.3579    0.645   0.2229     C
H       0.3611   0.6166    0.269     H
C      0.36297  0.95366    0.847     C
C      0.36322  0.77776   0.1384     C
C       0.3688   0.4078   0.5006     C
H       0.3696    0.843   0.1251     H
C      0.37452  0.73676   0.2043     C
C       0.3775   0.9316   0.3261     C
H        0.378   0.2434   0.3719     H
H       0.3786   0.2434   0.1281     H
O      0.37873  0.41794  0.08424     O
C        0.386   0.1022   0.3476     C
H       0.3982   0.4084   0.4511     H
C        0.404   0.7852   0.2585     C
C       0.4057   0.3354   0.6127     C
C       0.4095   0.1102   0.9049     C
O      0.42951  0.59298  0.94915     O
N       0.4377   0.0918   0.5557     N
C       0.4481   0.3366   0.5399     C
C      0.45607  0.74306   0.8934     C
H       0.4575   0.0684   0.1684     H
C       0.4635   0.8562    0.361     C
C       0.4645   0.2062    0.129     C
H       0.4696   0.7108    0.482     H
N       0.4705   0.0918   0.9443     N
H       0.4741   0.0684   0.3316     H
C       0.4803   0.1102   0.5951     C
N      0.48581  0.71378  0.29298     N
C      0.48786  0.25228   0.6546     C
C       0.4882   0.8978   0.8476     C
C      0.49587  0.36966   0.0782     C
C      0.50413  0.63034   0.9218     C
C       0.5118   0.1022   0.1524     C
C      0.51214  0.74772   0.3454     C
N      0.51419  0.28622  0.70702     N
C       0.5197   0.8898   0.4049     C
H       0.5259   0.9316   0.6684     H
N       0.5295   0.9082   0.0557     N
H       0.5304   0.2892    0.518     H
C       0.5355   0.7938    0.871     C
C       0.5365   0.1438    0.639     C
H       0.5425   0.9316   0.8316     H
C      0.54393  0.25694   0.1066     C
C       0.5519   0.6634   0.4601     C
N       0.5623   0.9082   0.4443     N
O      0.57049  0.40702  0.05085     O
C       0.5905   0.8898   0.0951     C
C       0.5943   0.6646   0.3873     C
C        0.596   0.2148   0.7415     C
H       0.6018   0.5916   0.5489     H
C        0.614   0.8978   0.6524     C
O      0.62127  0.58206  0.91576     O
H       0.6214   0.7566   0.8719     H
H        0.622   0.7566   0.6281     H
C       0.6225   0.0684   0.6739     C
C      0.62548  0.26324   0.7957     C
H       0.6304    0.157   0.8749     H
C       0.6312   0.5922   0.4994     C
C      0.63678  0.22224   0.8616     C
C      0.63703  0.04634    0.153     C
H       0.6389   0.3834    0.731     H
C       0.6421    0.355   0.7771     C
C       0.6513    0.106   0.7266     C
C      0.65733  0.27534   0.9085     C
H       0.6624   0.2466   0.9544     H
C       0.6638   0.4058   0.8264     C
H       0.6641   0.4708   0.1177     H
C        0.668    0.202   0.1076     C
H        0.669    0.588   0.1916     H
N      0.67069  0.36562  0.89227     N
C       0.6707   0.7938    0.629     C
H       0.6738   0.4696   0.8137     H
C       0.6803   0.8562    0.139     C
C      0.68337  0.95366    0.653     C
C       0.6909   0.9316   0.1739     C
C       0.6937   0.5222   0.0972     C
Cu     0.69679  0.44396  0.96223    Cu
C       0.6968   0.5914   0.1421     C
C       0.7118   0.5914   0.3579     C
C       0.7157   0.0968   0.1318     C
C       0.7217   0.0252    0.772     C
H       0.7222   0.2358   0.0917     H
N      0.72884  0.52352   0.0285     N
C      0.74014  0.74772   0.1546     C
C       0.7411   0.6646   0.1127     C
H        0.743    0.588   0.3084     H
N       0.7435   0.0366   0.3067     N
C       0.7469   0.9748    0.272     C
N      0.74764  0.52352   0.4715     N
C       0.7573    0.894   0.2266     C
C       0.7766   0.5922   0.0006     C
N       0.7801   0.9634   0.8067     N
C       0.7841   0.5222   0.4028     C
C       0.7847   0.6634   0.0399     C
H       0.7874    0.843   0.3749     H
O      0.79667  0.58206  0.58424     O
N      0.80041  0.71378  0.20702     N
C      0.80087  0.74306   0.6066     C
H       0.8012   0.0602   0.1336     H
H       0.8066   0.5916   0.9511     H
C       0.8108   0.7852   0.2415     C
C       0.8125   0.9032   0.6318     C
H       0.8196   0.7108    0.018     H
H       0.8566   0.4696   0.6863     H
C      0.85902  0.77776   0.3616     C
Cu     0.85925  0.44396  0.53777    Cu
H       0.8614   0.9398   0.6336     H
H       0.8651   0.4708   0.3823     H
C      0.86553  0.63034   0.5782     C
C         0.87    0.798   0.6076     C
C      0.88872  0.73676   0.2957     C
H        0.909   0.7534   0.4544     H
C       0.9304   0.4058   0.6736     C
C      0.93267  0.72466   0.4085     C
H        0.958   0.7642   0.5917     H
N      0.96369  0.36562  0.60773     N
O      0.97751  0.59298  0.55085     O
H       0.9777   0.3834    0.769     H
C       0.9971    0.645   0.2771     C
