data_I
_chemical_name_common  '/home/zhangsd/repos/MofS-CGCNN/ML/data/TSD/clean_cifs/CIZMIJ_clean'
_cell_length_a  7.54810
_cell_length_b 10.88780
_cell_length_c 19.04600
_cell_angle_alpha 79.94800
_cell_angle_beta  79.57000
_cell_angle_gamma 73.07700
_space_group_name_H-M_alt      'P 1'


loop_
_space_group_symop_operation_xyz
  'x, y, z' 

loop_
_atom_site_label
_atom_site_fract_x
_atom_site_fract_y
_atom_site_fract_z
_atom_site_type_symbol
N       0.0197   0.9485   0.0848     N
C        0.044   0.8267   0.1292     C
H       0.0512   0.7438   0.5593     H
H       0.0533   0.5574   0.6533     H
C       0.0732   0.1126   0.0109     C
H       0.0824   0.5669   0.3717     H
C       0.0957   0.5864   0.2129     C
H       0.1134    0.506    0.241     H
H        0.136   0.1672     0.98     H
C       0.1431   0.5626   0.6133     C
C       0.1449   0.6663   0.5615     C
C       0.1545   0.0019   0.0515     C
C       0.1588   0.7185   0.1003     C
C       0.1861   0.5981   0.1431     C
H       0.2172   0.7254    0.053     H
H       0.2293   0.3327   0.1833     H
H       0.2813   0.9696   0.0553     H
N       0.2973   0.4699   0.5945     N
N       0.3012   0.6402   0.5144     N
N       0.3013   0.4857   0.1133     N
C       0.3017   0.3591   0.1416     C
H       0.3314   0.0609   0.5128     H
C       0.3516   0.3411   0.6336     C
H       0.3582   0.2465    0.551     H
H       0.3628   0.4026   0.7273     H
C       0.3756   0.2353   0.5991     C
C       0.3799   0.3299   0.7048     C
C       0.3897   0.5211   0.5367     C
Zn     0.39281   0.7844  0.45164    Zn
C        0.398   0.9911   0.5417     C
C       0.4251   0.2834    0.098     C
C       0.4252   0.1141   0.6357     C
C       0.4258   0.4809   0.0522     C
C       0.4349   0.2052    0.741     C
N       0.4465   0.8722   0.5271     N
H       0.4521    0.553   0.0229     H
N       0.4539   0.0025   0.6025     N
H       0.4548   0.1934   0.1046     H
C       0.4575    0.097   0.7069     C
H       0.4582   0.0036   0.8552     H
N       0.4806   0.1848   0.8127     N
C       0.4912   0.0771   0.8605     C
H       0.4939   0.0141   0.7315     H
H       0.5052   0.4773   0.5142     H
N       0.5055   0.3587   0.0397     N
C       0.5475   0.7986   0.5818     C
C       0.5523   0.2624   0.8412     C
C       0.5568   0.8784   0.6283     C
C       0.5583   0.0959   0.9169     C
H        0.564   0.3433   0.8188     H
H       0.5726   0.0388   0.9592     H
H       0.6001   0.7095    0.586     H
N       0.6023   0.2103   0.9031     N
H       0.6171   0.7867   0.3014     H
H       0.6185   0.8552   0.6687     H
N       0.6526   0.7045   0.4013     N
C       0.6997   0.7356   0.3325     C
Zn     0.71636  0.28664  0.96788    Zn
H       0.7412   0.0151   0.0839     H
C       0.8173   0.6305   0.4277     C
H       0.8294   0.5973   0.4756     H
C       0.8578   0.0297   0.0668     C
H       0.8604   0.8904   0.2158     H
N       0.8827   0.1306   0.0229     N
N       0.8837   0.6838   0.3123     N
C       0.9453    0.818   0.1982     C
C       0.9589   0.6153   0.3703     C
C       0.9784    0.696   0.2404     C
