data_I
_chemical_name_common  '/home/zhangsd/repos/MofS-CGCNN/ML/data/TSD/clean_cifs/COJGEO_clean'
_cell_length_a  9.45920
_cell_length_b 41.25400
_cell_length_c 18.41380
_cell_angle_alpha 98.64500
_cell_angle_beta  90.00000
_cell_angle_gamma 90.00000
_space_group_name_H-M_alt      'P 1'


loop_
_space_group_symop_operation_xyz
  'x, y, z' 

loop_
_atom_site_label
_atom_site_fract_x
_atom_site_fract_y
_atom_site_fract_z
_atom_site_type_symbol
Zn         0.0      0.0      0.5    Zn
C          0.0  0.26592   0.3617     C
Zn         0.0      0.5     -0.0    Zn
C          0.0  0.73408   0.6383     C
C       0.0004  0.97835   0.9337     C
H        0.001     0.54   0.5982     H
C       0.0019  0.52296   0.5614     C
H       0.0022   0.7227    0.682     H
C       0.0116  0.68115    0.875     C
H        0.014   0.8254   0.6279     H
H       0.0144   0.3749   0.0759     H
C        0.016  0.76801   0.6625     C
H        0.029   0.8694   0.5715     H
Zn     0.04269  0.92025  0.46925    Zn
Zn     0.04361  0.57981   0.0295    Zn
H       0.0442   0.2992   0.1077     H
O       0.0444    0.419  0.87513     O
H       0.0499   0.3357   0.1516     H
C         0.05  0.63775   0.9563     C
O       0.0569  0.02123  0.60403     O
O       0.0583  0.07665  0.62008     O
C        0.059   0.8111   0.5887     C
O       0.0691  0.47315  0.90122     O
C       0.0751  0.85871   0.5236     C
H       0.0769   0.2215   0.3253     H
H       0.0775    0.772   0.7064     H
C       0.0783  0.44704  0.86016     C
C       0.0801  0.66786   0.9428     C
C       0.0819  0.04903  0.64091     C
N        0.086  0.78186  0.59589     N
H       0.0864   0.6866    0.842     H
O        0.092  0.07715  0.44882     O
H       0.0949   0.2696    0.384     H
N       0.1017  0.71867   0.5867     N
N        0.103  0.62412  0.01142     N
H       0.1036   0.8019   0.8621     H
O       0.1086  0.42568   0.0458     O
C       0.1091  0.82509   0.5254     C
N       0.1098  0.87456   0.4699     N
C         0.11  0.49789  0.45132     C
C       0.1112  0.97961  0.98303     C
C       0.1138  0.52176  0.51451     C
C       0.1158  0.00072  0.04909     C
O       0.1365  0.48047   0.0623     O
H        0.141   0.0005   0.7141     H
C        0.141  0.44732  0.78515     C
O       0.1424  0.02461  0.44771     O
C       0.1438   0.0491  0.71606     C
C       0.1477  0.05066  0.42098     C
H       0.1484   0.4968   0.7928     H
C       0.1527  0.45199  0.08038     C
O       0.1528  0.53917  0.99037     O
O       0.1539  0.96054   0.5051     O
H       0.1568   0.3984   0.7524     H
H       0.1637    0.099   0.7378     H
C       0.1683  0.02075  0.74228     C
C       0.1691  0.68871    0.987     C
C       0.1709  0.47703   0.7615     C
C       0.1755  0.41914    0.738     C
H       0.1769   0.6855   0.6505     H
H       0.1798   0.8233   0.8079     H
C       0.1804   0.0791   0.7564     C
C       0.1806  0.69187   0.6031     C
C        0.182   0.8586   0.4123     C
C       0.1888  0.80823   0.4669     C
Cu     0.19145  0.74992  0.53204    Cu
C       0.1919   0.6427    0.056     C
H        0.194   0.4972   0.4166     H
C       0.1951  0.80865   0.8444     C
O       0.1992   0.7175  0.97069     O
H        0.214   0.8669   0.3654     H
C       0.2208   0.8266   0.4088     C
O       0.2245  0.56949  0.57666     O
O       0.2248  0.93313  0.91545     O
C       0.2282  0.05057  0.35151     C
O       0.2298  0.77852  0.46312     O
C       0.2317  0.47875  0.69456     C
C       0.2323  0.45061  0.15078     C
C       0.2324  0.02095  0.80946     C
C       0.2324  0.67413   0.0459     C
C       0.2328  0.95666   0.9653     C
C       0.2345  0.54501  0.52935     C
H       0.2354   0.0995   0.3538     H
C       0.2368   0.4205  0.67046     C
H        0.238   0.6299    0.083     H
C       0.2422  0.07913   0.8247     C
H       0.2428   0.4009    0.138     H
H       0.2478   0.7893    0.822     H
H       0.2483   0.4994   0.6792     H
H       0.2498   0.0009   0.8273     H
H       0.2502   0.0009   0.3273     H
H       0.2517   0.4994   0.1792     H
H       0.2522   0.7893    0.322     H
H       0.2572   0.4009    0.638     H
C       0.2578  0.07913   0.3247     C
H        0.262   0.6299    0.583     H
C       0.2632   0.4205  0.17046     C
H       0.2646   0.0995   0.8538     H
C       0.2655  0.54501  0.02935     C
C       0.2672  0.95666   0.4653     C
C       0.2676  0.02095  0.30946     C
C       0.2676  0.67413   0.5459     C
C       0.2677  0.45061  0.65078     C
C       0.2683  0.47875  0.19456     C
O       0.2702  0.77852  0.96312     O
C       0.2718  0.05057  0.85151     C
O       0.2752  0.93313  0.41545     O
O       0.2755  0.56949  0.07666     O
C       0.2792   0.8266   0.9088     C
H        0.286   0.8669   0.8654     H
O       0.3008   0.7175  0.47069     O
C       0.3049  0.80865   0.3444     C
H        0.306   0.4972   0.9166     H
C       0.3081   0.6427    0.556     C
Cu     0.30855  0.74992  0.03204    Cu
C       0.3112  0.80823   0.9669     C
C        0.318   0.8586   0.9123     C
C       0.3194  0.69187   0.1031     C
C       0.3196   0.0791   0.2564     C
H       0.3202   0.8233   0.3079     H
H       0.3231   0.6855   0.1505     H
C       0.3245  0.41914    0.238     C
C       0.3291  0.47703   0.2615     C
C       0.3309  0.68871    0.487     C
C       0.3317  0.02075  0.24228     C
H       0.3363    0.099   0.2378     H
H       0.3432   0.3984   0.2524     H
O       0.3461  0.96054   0.0051     O
O       0.3472  0.53917  0.49037     O
C       0.3473  0.45199  0.58038     C
H       0.3516   0.4968   0.2928     H
C       0.3523  0.05066  0.92098     C
C       0.3562   0.0491  0.21606     C
O       0.3576  0.02461  0.94771     O
H        0.359   0.0005   0.2141     H
C        0.359  0.44732  0.28515     C
O       0.3635  0.48047   0.5623     O
C       0.3842  0.00072  0.54909     C
C       0.3862  0.52176  0.01451     C
C       0.3888  0.97961  0.48303     C
C         0.39  0.49789  0.95132     C
N       0.3902  0.87456   0.9699     N
C       0.3909  0.82509   0.0254     C
O       0.3914  0.42568   0.5458     O
H       0.3964   0.8019   0.3621     H
N        0.397  0.62412  0.51142     N
N       0.3983  0.71867   0.0867     N
H       0.4051   0.2696    0.884     H
O        0.408  0.07715  0.94882     O
H       0.4136   0.6866    0.342     H
N        0.414  0.78186  0.09589     N
C       0.4181  0.04903  0.14091     C
C       0.4199  0.66786   0.4428     C
C       0.4217  0.44704  0.36016     C
H       0.4225    0.772   0.2064     H
H       0.4231   0.2215   0.8253     H
C       0.4249  0.85871   0.0236     C
O       0.4309  0.47315  0.40122     O
C        0.441   0.8111   0.0887     C
O       0.4417  0.07665  0.12008     O
O       0.4431  0.02123  0.10403     O
C         0.45  0.63775   0.4563     C
H       0.4501   0.3357   0.6516     H
O       0.4556    0.419  0.37513     O
H       0.4558   0.2992   0.6077     H
Zn     0.45639  0.57981   0.5295    Zn
Zn     0.45731  0.92025  0.96925    Zn
H        0.471   0.8694   0.0715     H
C        0.484  0.76801   0.1625     C
H       0.4856   0.3749   0.5759     H
H        0.486   0.8254   0.1279     H
C       0.4884  0.68115    0.375     C
H       0.4978   0.7227    0.182     H
C       0.4981  0.52296   0.0614     C
H        0.499     0.54   0.0982     H
C       0.4996  0.97835   0.4337     C
Zn         0.5      0.0      0.0    Zn
C          0.5  0.26592   0.8617     C
Zn         0.5      0.5      0.5    Zn
C          0.5  0.73408   0.1383     C
C       0.5004  0.02165   0.5663     C
H        0.501     0.46   0.9018     H
C       0.5019  0.47704   0.9386     C
H       0.5022   0.2773    0.818     H
C       0.5116  0.31885    0.625     C
H        0.514   0.1746   0.8721     H
H       0.5144   0.6251   0.4241     H
C        0.516  0.23199   0.8375     C
H        0.529   0.1306   0.9285     H
Zn     0.54269  0.07975  0.03075    Zn
Zn     0.54361  0.42019   0.4705    Zn
H       0.5442   0.7008   0.3923     H
O       0.5444    0.581  0.62487     O
H       0.5499   0.6643   0.3484     H
C         0.55  0.36225   0.5437     C
O       0.5569  0.97877  0.89597     O
O       0.5583  0.92335  0.87992     O
C        0.559   0.1889   0.9113     C
O       0.5691  0.52685  0.59878     O
C       0.5751  0.14129   0.9764     C
H       0.5769   0.7785   0.1747     H
H       0.5775    0.228   0.7936     H
C       0.5783  0.55296  0.63984     C
C       0.5801  0.33214   0.5572     C
C       0.5819  0.95097  0.85909     C
N        0.586  0.21814  0.90411     N
H       0.5864   0.3134    0.658     H
O        0.592  0.92285  0.05118     O
H       0.5949   0.7304    0.116     H
N       0.6017  0.28133   0.9133     N
N        0.603  0.37588  0.48858     N
H       0.6036   0.1981   0.6379     H
O       0.6086  0.57432   0.4542     O
C       0.6091  0.17491   0.9746     C
N       0.6098  0.12544   0.0301     N
C         0.61  0.50211  0.04868     C
C       0.6112  0.02039  0.51697     C
C       0.6138  0.47824  0.98549     C
C       0.6158  0.99928  0.45091     C
O       0.6365  0.51953   0.4377     O
C        0.641  0.55268  0.71485     C
H        0.641   0.9995   0.7859     H
O       0.6424  0.97539  0.05229     O
C       0.6438   0.9509  0.78394     C
C       0.6477  0.94934  0.07902     C
H       0.6484   0.5032   0.7072     H
C       0.6527  0.54801  0.41962     C
O       0.6528  0.46083  0.50963     O
O       0.6539  0.03946   0.9949     O
H       0.6568   0.6016   0.7476     H
H       0.6637    0.901   0.7622     H
C       0.6683  0.97925  0.75772     C
C       0.6691  0.31129    0.513     C
C       0.6709  0.52297   0.7385     C
C       0.6755  0.58086    0.762     C
H       0.6769   0.3145   0.8495     H
H       0.6798   0.1767   0.6921     H
C       0.6804   0.9209   0.7436     C
C       0.6806  0.30813   0.8969     C
C        0.682   0.1414   0.0877     C
C       0.6888  0.19177   0.0331     C
Cu     0.69145  0.25008  0.96796    Cu
C       0.6919   0.3573    0.444     C
H        0.694   0.5028   0.0834     H
C       0.6951  0.19135   0.6556     C
O       0.6992   0.2825  0.52931     O
H        0.714   0.1331   0.1346     H
C       0.7208   0.1734   0.0912     C
O       0.7245  0.43051  0.92334     O
O       0.7248  0.06687  0.58455     O
C       0.7282  0.94943  0.14849     C
O       0.7298  0.22148  0.03688     O
C       0.7317  0.52125  0.80544     C
C       0.7323  0.54939  0.34922     C
C       0.7324  0.32587   0.4541     C
C       0.7324  0.97905  0.69054     C
C       0.7328  0.04334   0.5347     C
C       0.7345  0.45499  0.97065     C
H       0.7354   0.9005   0.1462     H
C       0.7368   0.5795  0.82954     C
H        0.738   0.3701    0.417     H
C       0.7422  0.92087   0.6753     C
H       0.7428   0.5991    0.362     H
H       0.7478   0.2107    0.678     H
H       0.7483   0.5006   0.8208     H
H       0.7498   0.9991   0.6727     H
H       0.7502   0.9991   0.1727     H
H       0.7517   0.5006   0.3208     H
H       0.7522   0.2107    0.178     H
H       0.7572   0.5991    0.862     H
C       0.7578  0.92087   0.1753     C
H        0.762   0.3701    0.917     H
C       0.7632   0.5795  0.32954     C
H       0.7646   0.9005   0.6462     H
C       0.7655  0.45499  0.47065     C
C       0.7672  0.04334   0.0347     C
C       0.7676  0.32587   0.9541     C
C       0.7676  0.97905  0.19054     C
C       0.7677  0.54939  0.84922     C
C       0.7683  0.52125  0.30544     C
O       0.7702  0.22148  0.53688     O
C       0.7718  0.94943  0.64849     C
O       0.7752  0.06687  0.08455     O
O       0.7755  0.43051  0.42334     O
C       0.7792   0.1734   0.5912     C
H        0.786   0.1331   0.6346     H
O       0.8008   0.2825  0.02931     O
C       0.8049  0.19135   0.1556     C
H        0.806   0.5028   0.5834     H
C       0.8081   0.3573    0.944     C
Cu     0.80855  0.25008  0.46796    Cu
C       0.8112  0.19177   0.5331     C
C        0.818   0.1414   0.5877     C
C       0.8194  0.30813   0.3969     C
C       0.8196   0.9209   0.2436     C
H       0.8202   0.1767   0.1921     H
H       0.8231   0.3145   0.3495     H
C       0.8245  0.58086    0.262     C
C       0.8291  0.52297   0.2385     C
C       0.8309  0.31129    0.013     C
C       0.8317  0.97925  0.25772     C
H       0.8363    0.901   0.2622     H
H       0.8432   0.6016   0.2476     H
O       0.8461  0.03946   0.4949     O
O       0.8472  0.46083  0.00963     O
C       0.8473  0.54801  0.91962     C
H       0.8516   0.5032   0.2072     H
C       0.8523  0.94934  0.57902     C
C       0.8562   0.9509  0.28394     C
O       0.8576  0.97539  0.55229     O
C        0.859  0.55268  0.21485     C
H        0.859   0.9995   0.2859     H
O       0.8635  0.51953   0.9377     O
C       0.8842  0.99928  0.95091     C
C       0.8862  0.47824  0.48549     C
C       0.8888  0.02039  0.01697     C
C         0.89  0.50211  0.54868     C
N       0.8902  0.12544   0.5301     N
C       0.8909  0.17491   0.4746     C
O       0.8914  0.57432   0.9542     O
H       0.8964   0.1981   0.1379     H
N        0.897  0.37588  0.98858     N
N       0.8983  0.28133   0.4133     N
H       0.9051   0.7304    0.616     H
O        0.908  0.92285  0.55118     O
H       0.9136   0.3134    0.158     H
N        0.914  0.21814  0.40411     N
C       0.9181  0.95097  0.35909     C
C       0.9199  0.33214   0.0572     C
C       0.9217  0.55296  0.13984     C
H       0.9225    0.228   0.2936     H
H       0.9231   0.7785   0.6747     H
C       0.9249  0.14129   0.4764     C
O       0.9309  0.52685  0.09878     O
C        0.941   0.1889   0.4113     C
O       0.9417  0.92335  0.37992     O
O       0.9431  0.97877  0.39597     O
C         0.95  0.36225   0.0437     C
H       0.9501   0.6643   0.8484     H
O       0.9556    0.581  0.12487     O
H       0.9558   0.7008   0.8923     H
Zn     0.95639  0.42019   0.9705    Zn
Zn     0.95731  0.07975  0.53075    Zn
H        0.971   0.1306   0.4285     H
C        0.984  0.23199   0.3375     C
H       0.9856   0.6251   0.9241     H
H        0.986   0.1746   0.3721     H
C       0.9884  0.31885    0.125     C
H       0.9978   0.2773    0.318     H
C       0.9981  0.47704   0.4386     C
H        0.999     0.46   0.4018     H
C       0.9996  0.02165   0.0663     C
