data_I
_chemical_name_common  '/home/zhangsd/repos/MofS-CGCNN/ML/data/TSD/clean_cifs/COKROL_clean'
_cell_length_a  7.63330
_cell_length_b 24.13320
_cell_length_c 30.52910
_cell_angle_alpha 90.00000
_cell_angle_beta  93.50500
_cell_angle_gamma 90.00000
_space_group_name_H-M_alt      'P 1'


loop_
_space_group_symop_operation_xyz
  'x, y, z' 

loop_
_atom_site_label
_atom_site_fract_x
_atom_site_fract_y
_atom_site_fract_z
_atom_site_type_symbol
In         0.0  0.34883     0.25    In
In         0.0      0.5      0.0    In
In         0.0      0.5      0.5    In
In         0.0  0.65117     0.75    In
H       0.0014   0.3913   0.8547     H
H       0.0014   0.6087   0.3547     H
C       0.0032   0.0831  0.67663     C
C       0.0032   0.9169  0.17663     C
H       0.0063    0.111   0.3873     H
H       0.0063    0.889   0.8873     H
C       0.0119   0.1831   0.3538     C
C       0.0119   0.8169   0.8538     C
H       0.0241   0.1501    0.472     H
H       0.0241   0.8499    0.972     H
C       0.0371   0.4259  0.58213     C
C       0.0371   0.5741  0.08213     C
O       0.0389  0.41441  0.19453     O
O       0.0389  0.58559  0.69453     O
H       0.0392   0.1108   0.9566     H
H       0.0392   0.8892   0.4566     H
C       0.0393   0.4169  0.87645     C
C       0.0393   0.5831  0.37645     C
H       0.0442   0.1024    0.702     H
H       0.0442   0.8976    0.202     H
C       0.0506   0.0992   0.5257     C
C       0.0506   0.9008   0.0257     C
H       0.0513    0.301   0.5881     H
H       0.0513    0.699   0.0881     H
N        0.055  0.46654  0.93976     N
N        0.055  0.53346  0.43976     N
C       0.0592   0.2723   0.3125     C
C       0.0592   0.7277   0.8125     C
C       0.0616   0.0389  0.60877     C
C       0.0616   0.9611  0.10877     C
C        0.076   0.1422   0.3823     C
C        0.076   0.8578   0.8823     C
C       0.0847   0.1209   0.4867     C
C       0.0847   0.8791   0.9867     C
O       0.0902   0.2708   0.2045     O
O       0.0902   0.7292   0.7045     O
H       0.1003   0.1794   0.1604     H
H       0.1003   0.8206   0.6604     H
C       0.1146   0.2301   0.3459     C
C       0.1146   0.7699   0.8459     C
C       0.1149   0.0261  0.89784     C
C       0.1149   0.9739  0.39784     C
C       0.1192   0.0665  0.64602     C
C       0.1192   0.9335  0.14602     C
H       0.1481    0.468   0.1286     H
H       0.1481    0.532   0.6286     H
H       0.1552   0.0069   0.9233     H
H       0.1552   0.9931   0.4233     H
H       0.1566   0.2341   0.6368     H
H       0.1566   0.7659   0.1368     H
C       0.1612   0.3058   0.6032     C
C       0.1612   0.6942   0.1032     C
O       0.1647   0.3085  0.30223     O
O       0.1647   0.6915  0.80223     O
C       0.1733   0.0555  0.53609     C
C       0.1733   0.9445  0.03609     C
C       0.1753    0.071  0.83049     C
C       0.1753    0.929  0.33049     C
C       0.1762   0.4525  0.87493     C
C       0.1762   0.5475  0.37493     C
C       0.1866   0.3983  0.56771     C
C       0.1866   0.6017  0.06771     C
C       0.1881   0.0247  0.57453     C
C       0.1881   0.9753  0.07453     C
C       0.1898    0.484  0.91439     C
C       0.1898    0.516  0.41439     C
C       0.1973   0.4074  0.20137     C
C       0.1973   0.5926  0.70137     C
N       0.2189  0.44956  0.49868     N
N       0.2189  0.55044  0.99868     N
C       0.2257   0.2655   0.6321     C
C       0.2257   0.7345   0.1321     C
C       0.2327   0.0908  0.47168     C
C       0.2327   0.9092  0.97168     C
C       0.2328   0.0416  0.86707     C
C       0.2328   0.9584  0.36707     C
H       0.2394   0.0743   0.6509     H
H       0.2394   0.9257   0.1509     H
C       0.2405   0.1464   0.4035     C
C       0.2405   0.8536   0.9035     C
O       0.2436  0.12114  0.76673     O
O       0.2436  0.87886  0.26673     O
H       0.2496   0.0443   0.1484     H
H       0.2496   0.9557   0.6484     H
H       0.2504   0.4557   0.8516     H
H       0.2504   0.5443   0.3516     H
O       0.2564  0.37886  0.23327     O
O       0.2564  0.62114  0.73327     O
C       0.2595   0.3536   0.5965     C
C       0.2595   0.6464   0.0965     C
H       0.2606   0.4257   0.3491     H
H       0.2606   0.5743   0.8491     H
C       0.2672   0.4584  0.13293     C
C       0.2672   0.5416  0.63293     C
C       0.2673   0.4092  0.52832     C
C       0.2673   0.5908  0.02832     C
C       0.2743   0.2345   0.3679     C
C       0.2743   0.7655   0.8679     C
N       0.2811  0.05044  0.50132     N
N       0.2811  0.94956  0.00132     N
C       0.3027   0.0926  0.79863     C
C       0.3027   0.9074  0.29863     C
C       0.3102    0.016  0.08561     C
C       0.3102    0.984  0.58561     C
C       0.3119   0.4753  0.42547     C
C       0.3119   0.5247  0.92547     C
C       0.3134   0.1017  0.43229     C
C       0.3134   0.8983  0.93229     C
C       0.3238   0.0475  0.12507     C
C       0.3238   0.9525  0.62507     C
C       0.3247    0.429  0.16951     C
C       0.3247    0.571  0.66951     C
C       0.3267   0.4445  0.46391     C
C       0.3267   0.5555  0.96391     C
O       0.3353   0.1915  0.69777     O
O       0.3353   0.8085  0.19777     O
C       0.3388   0.1942   0.3968     C
C       0.3388   0.8058   0.8968     C
H       0.3434   0.2659   0.3632     H
H       0.3434   0.7341   0.8632     H
H       0.3448   0.4931   0.0767     H
H       0.3448   0.5069   0.5767     H
H       0.3519    0.032   0.8714     H
H       0.3519    0.968   0.3714     H
C       0.3808   0.4335  0.35398     C
C       0.3808   0.5665  0.85398     C
C       0.3851   0.4739  0.10216     C
C       0.3851   0.5261  0.60216     C
C       0.3854   0.2699   0.6541     C
C       0.3854   0.7301   0.1541     C
H       0.3997   0.3206   0.8396     H
H       0.3997   0.6794   0.3396     H
O       0.4098   0.2292   0.7955     O
O       0.4098   0.7708   0.2955     O
C       0.4153   0.3791   0.5133     C
C       0.4153   0.6209   0.0133     C
C        0.424   0.3578   0.6177     C
C        0.424   0.6422   0.1177     C
C       0.4384   0.4611  0.39123     C
C       0.4384   0.5389  0.89123     C
C       0.4408   0.2277   0.6875     C
C       0.4408   0.7723   0.1875     C
N        0.445  0.03346  0.06024     N
N        0.445  0.96654  0.56024     N
H       0.4487    0.199   0.4119     H
H       0.4487    0.801   0.9119     H
C       0.4494   0.4008   0.4743     C
C       0.4494   0.5992   0.9743     C
H       0.4558   0.3976    0.298     H
H       0.4558   0.6024    0.798     H
C       0.4607   0.0831  0.12355     C
C       0.4607   0.9169  0.62355     C
H       0.4608   0.3892   0.0434     H
H       0.4608   0.6108   0.5434     H
O       0.4611  0.08559  0.80547     O
O       0.4611  0.91441  0.30547     O
C       0.4629   0.0741  0.41787     C
C       0.4629   0.9259  0.91787     C
H       0.4759   0.3499    0.528     H
H       0.4759   0.6501    0.028     H
C       0.4881   0.3169   0.6462     C
C       0.4881   0.6831   0.1462     C
H       0.4937    0.389   0.6127     H
H       0.4937    0.611   0.1127     H
C       0.4968   0.4169  0.32337     C
C       0.4968   0.5831  0.82337     C
H       0.4986   0.1087   0.1453     H
H       0.4986   0.8913   0.6453     H
In         0.5      0.0      0.0    In
In         0.5      0.0      0.5    In
In         0.5  0.15117     0.75    In
In         0.5  0.84883     0.25    In
H       0.5014   0.1087   0.3547     H
H       0.5014   0.8913   0.8547     H
C       0.5032   0.4169  0.17663     C
C       0.5032   0.5831  0.67663     C
H       0.5063    0.389   0.8873     H
H       0.5063    0.611   0.3873     H
C       0.5119   0.3169   0.8538     C
C       0.5119   0.6831   0.3538     C
H       0.5241   0.3499    0.972     H
H       0.5241   0.6501    0.472     H
C       0.5371   0.0741  0.08213     C
C       0.5371   0.9259  0.58213     C
O       0.5389  0.08559  0.69453     O
O       0.5389  0.91441  0.19453     O
H       0.5392   0.3892   0.4566     H
H       0.5392   0.6108   0.9566     H
C       0.5393   0.0831  0.37645     C
C       0.5393   0.9169  0.87645     C
H       0.5442   0.3976    0.202     H
H       0.5442   0.6024    0.702     H
C       0.5506   0.4008   0.0257     C
C       0.5506   0.5992   0.5257     C
H       0.5513    0.199   0.0881     H
H       0.5513    0.801   0.5881     H
N        0.555  0.03346  0.43976     N
N        0.555  0.96654  0.93976     N
C       0.5592   0.2277   0.8125     C
C       0.5592   0.7723   0.3125     C
C       0.5616   0.4611  0.10877     C
C       0.5616   0.5389  0.60877     C
C        0.576   0.3578   0.8823     C
C        0.576   0.6422   0.3823     C
C       0.5847   0.3791   0.9867     C
C       0.5847   0.6209   0.4867     C
O       0.5902   0.2292   0.7045     O
O       0.5902   0.7708   0.2045     O
H       0.6003   0.3206   0.6604     H
H       0.6003   0.6794   0.1604     H
C       0.6146   0.2699   0.8459     C
C       0.6146   0.7301   0.3459     C
C       0.6149   0.4739  0.39784     C
C       0.6149   0.5261  0.89784     C
C       0.6192   0.4335  0.14602     C
C       0.6192   0.5665  0.64602     C
H       0.6481    0.032   0.6286     H
H       0.6481    0.968   0.1286     H
H       0.6552   0.4931   0.4233     H
H       0.6552   0.5069   0.9233     H
H       0.6566   0.2659   0.1368     H
H       0.6566   0.7341   0.6368     H
C       0.6612   0.1942   0.1032     C
C       0.6612   0.8058   0.6032     C
O       0.6647   0.1915  0.80223     O
O       0.6647   0.8085  0.30223     O
C       0.6733   0.4445  0.03609     C
C       0.6733   0.5555  0.53609     C
C       0.6753    0.429  0.33049     C
C       0.6753    0.571  0.83049     C
C       0.6762   0.0475  0.37493     C
C       0.6762   0.9525  0.87493     C
C       0.6866   0.1017  0.06771     C
C       0.6866   0.8983  0.56771     C
C       0.6881   0.4753  0.07453     C
C       0.6881   0.5247  0.57453     C
C       0.6898    0.016  0.41439     C
C       0.6898    0.984  0.91439     C
C       0.6973   0.0926  0.70137     C
C       0.6973   0.9074  0.20137     C
N       0.7189  0.05044  0.99868     N
N       0.7189  0.94956  0.49868     N
C       0.7257   0.2345   0.1321     C
C       0.7257   0.7655   0.6321     C
C       0.7327   0.4092  0.97168     C
C       0.7327   0.5908  0.47168     C
C       0.7328   0.4584  0.36707     C
C       0.7328   0.5416  0.86707     C
H       0.7394   0.4257   0.1509     H
H       0.7394   0.5743   0.6509     H
C       0.7405   0.3536   0.9035     C
C       0.7405   0.6464   0.4035     C
O       0.7436  0.37886  0.26673     O
O       0.7436  0.62114  0.76673     O
H       0.7496   0.4557   0.6484     H
H       0.7496   0.5443   0.1484     H
H       0.7504   0.0443   0.3516     H
H       0.7504   0.9557   0.8516     H
O       0.7564  0.12114  0.73327     O
O       0.7564  0.87886  0.23327     O
C       0.7595   0.1464   0.0965     C
C       0.7595   0.8536   0.5965     C
H       0.7606   0.0743   0.8491     H
H       0.7606   0.9257   0.3491     H
C       0.7672   0.0416  0.63293     C
C       0.7672   0.9584  0.13293     C
C       0.7673   0.0908  0.02832     C
C       0.7673   0.9092  0.52832     C
C       0.7743   0.2655   0.8679     C
C       0.7743   0.7345   0.3679     C
N       0.7811  0.44956  0.00132     N
N       0.7811  0.55044  0.50132     N
C       0.8027   0.4074  0.29863     C
C       0.8027   0.5926  0.79863     C
C       0.8102    0.484  0.58561     C
C       0.8102    0.516  0.08561     C
C       0.8119   0.0247  0.92547     C
C       0.8119   0.9753  0.42547     C
C       0.8134   0.3983  0.93229     C
C       0.8134   0.6017  0.43229     C
C       0.8238   0.4525  0.62507     C
C       0.8238   0.5475  0.12507     C
C       0.8247    0.071  0.66951     C
C       0.8247    0.929  0.16951     C
C       0.8267   0.0555  0.96391     C
C       0.8267   0.9445  0.46391     C
O       0.8353   0.3085  0.19777     O
O       0.8353   0.6915  0.69777     O
C       0.8388   0.3058   0.8968     C
C       0.8388   0.6942   0.3968     C
H       0.8434   0.2341   0.8632     H
H       0.8434   0.7659   0.3632     H
H       0.8448   0.0069   0.5767     H
H       0.8448   0.9931   0.0767     H
H       0.8519    0.468   0.3714     H
H       0.8519    0.532   0.8714     H
C       0.8808   0.0665  0.85398     C
C       0.8808   0.9335  0.35398     C
C       0.8851   0.0261  0.60216     C
C       0.8851   0.9739  0.10216     C
C       0.8854   0.2301   0.1541     C
C       0.8854   0.7699   0.6541     C
H       0.8997   0.1794   0.3396     H
H       0.8997   0.8206   0.8396     H
O       0.9098   0.2708   0.2955     O
O       0.9098   0.7292   0.7955     O
C       0.9153   0.1209   0.0133     C
C       0.9153   0.8791   0.5133     C
C        0.924   0.1422   0.1177     C
C        0.924   0.8578   0.6177     C
C       0.9384   0.0389  0.89123     C
C       0.9384   0.9611  0.39123     C
C       0.9408   0.2723   0.1875     C
C       0.9408   0.7277   0.6875     C
N        0.945  0.46654  0.56024     N
N        0.945  0.53346  0.06024     N
H       0.9487    0.301   0.9119     H
H       0.9487    0.699   0.4119     H
C       0.9494   0.0992   0.9743     C
C       0.9494   0.9008   0.4743     C
H       0.9558   0.1024    0.798     H
H       0.9558   0.8976    0.298     H
C       0.9607   0.4169  0.62355     C
C       0.9607   0.5831  0.12355     C
H       0.9608   0.1108   0.5434     H
H       0.9608   0.8892   0.0434     H
O       0.9611  0.41441  0.30547     O
O       0.9611  0.58559  0.80547     O
C       0.9629   0.4259  0.91787     C
C       0.9629   0.5741  0.41787     C
H       0.9759   0.1501    0.028     H
H       0.9759   0.8499    0.528     H
C       0.9881   0.1831   0.1462     C
C       0.9881   0.8169   0.6462     C
H       0.9937    0.111   0.1127     H
H       0.9937    0.889   0.6127     H
C       0.9968   0.0831  0.82337     C
C       0.9968   0.9169  0.32337     C
H       0.9986   0.3913   0.6453     H
H       0.9986   0.6087   0.1453     H
