data_I
_chemical_name_common  '/home/zhangsd/repos/MofS-CGCNN/ML/data/TSD/clean_cifs/COSMII_clean'
_cell_length_a 14.12270
_cell_length_b 18.73910
_cell_length_c 18.73910
_cell_angle_alpha 66.08780
_cell_angle_beta  75.45060
_cell_angle_gamma 104.54900
_space_group_name_H-M_alt      'P 1'


loop_
_space_group_symop_operation_xyz
  'x, y, z' 

loop_
_atom_site_label
_atom_site_fract_x
_atom_site_fract_y
_atom_site_fract_z
_atom_site_type_symbol
H       0.0023   0.7008   0.2081     H
O      0.00845  0.39835   0.5021     O
O      0.01055  0.90045   0.4979     O
C      0.01281   0.5783  0.37987     C
C       0.0263   0.6659    0.244     C
N      0.03241  0.43317  0.91594     N
O       0.0395   0.3639   0.4033     O
N      0.04728  0.81575  0.70211     N
C       0.0474  0.39975  0.86605     C
C        0.069    0.703   0.8056     C
C       0.0953    0.762    0.723     C
N      0.09924  0.56683  0.34911     N
In     0.10115  0.92167  0.56611    In
O       0.1101  0.60165  0.90045     O
C       0.1173   0.6545   0.2101     C
C        0.124    0.644   0.8231     C
H       0.1354   0.3581    0.753     H
C      0.14765  0.60025   0.2658     C
H       0.1485   0.7647   0.6798     H
H       0.1562   0.6827   0.1516     H
C       0.1588    0.426    0.811     C
O       0.1592   0.9972   0.6777     O
O        0.162   0.3251   0.9972     O
In     0.16726  0.48778  0.43389    In
O       0.1756   0.6361   0.7672     O
In     0.17948  0.51222  0.92167    In
C       0.1873   0.3989   0.7545     C
H       0.2104   0.2081   0.0911     H
N      0.23153  0.48214  0.81575     N
C       0.2328    0.574    0.237     C
C       0.2381      0.0    0.631     C
C       0.2381    0.369      0.0     C
O      0.24034  0.97019  0.58187     O
N      0.24939  0.51786  0.29789     N
O      0.27015  0.44794  0.97019     O
C       0.2703    0.244   0.0901     C
H       0.2773   0.6419   0.1111     H
C       0.2884   0.6011   0.1534     C
C       0.2912    0.431   0.7005     C
H       0.3015   0.0911   0.7008     H
C       0.3024   0.3299   0.0443     C
H       0.3078   0.1516   0.1657     H
H        0.311   0.4122   0.6625     H
C       0.3183    0.485    0.277     C
O      0.32221  0.55206  0.41813     O
C       0.3274   0.2101   0.1354     C
H       0.3283   0.4445   0.3202     H
C       0.3333    0.515    0.762     C
O       0.3369   0.6749   0.3223     O
C       0.3467   0.0443   0.6258     C
C       0.3602    0.569   0.1315     C
C       0.3604   0.0901   0.6659     C
C        0.366   0.4914    0.703     C
C       0.3691    0.631    0.369     C
C       0.3746   0.5086   0.1944     C
H       0.3838   0.5555   0.7647     H
H       0.3884   0.1111    0.247     H
C      0.39268  0.37987  0.04183     C
H       0.3988   0.5878   0.0747     H
C      0.41345   0.2658  0.13395     C
H       0.4166   0.4387   0.0088     H
H       0.4254   0.0088   0.5525     H
C      0.43451  0.04183   0.5783     C
C       0.4418   0.1534   0.2455     C
O       0.4428   0.4033   0.2328     O
C       0.4471   0.4671   0.1769     C
N      0.44835  0.34911  0.08406     N
C       0.4628   0.1354   0.6545     C
C       0.4698    0.237    0.189     C
C       0.4725   0.6701   0.3742     C
H       0.4735   0.0747   0.3375     H
H       0.4735   0.1657   0.6827     H
H       0.4779   0.5613   0.4475     H
C         0.48   0.5329    0.644     C
C       0.4917   0.1315   0.2995     C
H       0.5023   0.7919   0.2992     H
O      0.50845   0.4979  0.60165     O
O      0.51055   0.5021  0.09955     O
C      0.51281  0.62013   0.4217     C
C       0.5263    0.756   0.3341     C
N      0.53241  0.08406  0.56683     N
O       0.5395   0.5967   0.6361     O
N      0.54728  0.29789  0.18425     N
C       0.5474  0.13395  0.60025     C
C        0.569   0.1944    0.297     C
C       0.5953    0.277    0.238     C
N      0.59924  0.65089  0.43317     N
In     0.60115  0.43389  0.07833    In
O       0.6101  0.09955  0.39835     O
C       0.6173   0.7899   0.3455     C
C        0.624   0.1769    0.356     C
H       0.6354    0.247   0.6419     H
C      0.64765   0.7342  0.39975     C
H       0.6485   0.3202   0.2353     H
H       0.6562   0.8484   0.3173     H
C       0.6588    0.189    0.574     C
O       0.6592   0.3223   0.0028     O
O        0.662   0.0028   0.6749     O
In     0.66726  0.56611  0.51222    In
O       0.6756   0.2328   0.3639     O
In     0.67948  0.07833  0.48778    In
C       0.6873   0.2455   0.6011     C
H       0.7104   0.9089   0.7919     H
N      0.73153  0.18425  0.51786     N
C       0.7328    0.763    0.426     C
C       0.7381     -0.0    0.631     C
C       0.7381    0.369      0.0     C
O      0.74034  0.41813  0.02981     O
N      0.74939  0.70211  0.48214     N
O      0.77015  0.02981  0.55206     O
C       0.7703   0.9099    0.756     C
H       0.7773   0.8889   0.3581     H
C       0.7884   0.8466   0.3989     C
C       0.7912   0.2995    0.569     C
H       0.8015   0.2992   0.9089     H
C       0.8024   0.9557   0.6701     C
H       0.8078   0.8343   0.8484     H
H        0.811   0.3375   0.5878     H
C       0.8183    0.723    0.515     C
O      0.82221  0.58187  0.44794     O
C       0.8274   0.8646   0.7899     C
H       0.8283   0.6798   0.5555     H
C       0.8333    0.238    0.485     C
O       0.8369   0.6777   0.3251     O
C       0.8467   0.3742   0.9557     C
C       0.8602   0.8685    0.431     C
C       0.8604   0.3341   0.9099     C
C        0.866    0.297   0.5086     C
C       0.8691    0.631    0.369     C
C       0.8746   0.8056   0.4914     C
H       0.8838   0.2353   0.4445     H
H       0.8884    0.753   0.8889     H
C      0.89268  0.95817  0.62013     C
H       0.8988   0.9253   0.4122     H
C      0.91345  0.86605   0.7342     C
H       0.9166   0.9912   0.5613     H
H       0.9254   0.4475   0.9912     H
C      0.93451   0.4217  0.95817     C
C       0.9418   0.7545   0.8466     C
O       0.9428   0.7672   0.5967     O
C       0.9471   0.8231   0.5329     C
N      0.94835  0.91594  0.65089     N
C       0.9628   0.3455   0.8646     C
C       0.9698    0.811    0.763     C
C       0.9725   0.6258   0.3299     C
H       0.9735   0.3173   0.8343     H
H       0.9735   0.6625   0.9253     H
H       0.9779   0.5525   0.4387     H
C         0.98    0.356   0.4671     C
C       0.9917   0.7005   0.8685     C
