data_I
_chemical_name_common  '/home/zhangsd/repos/MofS-CGCNN/ML/data/TSD/clean_cifs/COTYIV_clean'
_cell_length_a 16.18000
_cell_length_b 43.07700
_cell_length_c 45.48500
_cell_angle_alpha 90.00000
_cell_angle_beta  90.00000
_cell_angle_gamma 90.00000
_space_group_name_H-M_alt      'P 1'


loop_
_space_group_symop_operation_xyz
  'x, y, z' 

loop_
_atom_site_label
_atom_site_fract_x
_atom_site_fract_y
_atom_site_fract_z
_atom_site_type_symbol
C       0.0006  0.01745  0.86361     C
C       0.0006  0.23255  0.38639     C
C       0.0006  0.51745  0.36361     C
C       0.0006  0.73255  0.88639     C
Cu     0.00118  0.32121  0.18755    Cu
Cu     0.00118  0.42879  0.56245    Cu
Cu     0.00118  0.82121  0.68755    Cu
Cu     0.00118  0.92879  0.06245    Cu
H        0.004    0.115   0.8891     H
H        0.004    0.135   0.3609     H
H        0.004    0.615   0.3891     H
H        0.004    0.635   0.8609     H
N       0.0075  0.30776  0.25162     N
N       0.0075  0.44224  0.49838     N
N       0.0075  0.80776  0.75162     N
N       0.0075  0.94224  0.99838     N
C       0.0118  0.02553   0.1705     C
C       0.0118  0.22447   0.0795     C
C       0.0118  0.52553   0.6705     C
C       0.0118  0.72447   0.5795     C
N      0.01926    0.044  0.90329     N
N      0.01926    0.206  0.34671     N
N      0.01926    0.544  0.40329     N
N      0.01926    0.706  0.84671     N
C       0.0208  0.07175  0.20259     C
C       0.0208  0.17825  0.04741     C
C       0.0208  0.57175  0.70259     C
C       0.0208  0.67825  0.54741     C
C      0.02287   0.3639   0.0812     C
C      0.02287   0.3861   0.6688     C
C      0.02287   0.8639   0.5812     C
C      0.02287   0.8861   0.1688     C
H        0.023   0.2867   0.4081     H
H        0.023   0.4633   0.3419     H
H        0.023   0.7867   0.9081     H
H        0.023   0.9633   0.8419     H
N       0.0251  0.11853  0.21847     N
N       0.0251  0.13147  0.03153     N
N       0.0251  0.61853  0.71847     N
N       0.0251  0.63147  0.53153     N
N       0.0279  0.29128  0.12938     N
N       0.0279  0.45872  0.62062     N
N       0.0279  0.79128  0.62938     N
N       0.0279  0.95872  0.12062     N
N       0.0317   0.3723  0.05321     N
N       0.0317   0.3777  0.69679     N
N       0.0317   0.8723  0.55321     N
N       0.0317   0.8777  0.19679     N
C       0.0333  0.25459  0.08652     C
C       0.0333  0.49541  0.66348     C
C       0.0333  0.75459  0.58652     C
C       0.0333  0.99541  0.16348     C
N      0.03537  0.29837  0.22553     N
N      0.03537  0.45163  0.52447     N
N      0.03537  0.79837  0.72553     N
N      0.03537  0.95163  0.02447     N
C       0.0421  0.03926  0.19614     C
C       0.0421  0.21074  0.05386     C
C       0.0421  0.53926  0.69614     C
C       0.0421  0.71074  0.55386     C
N       0.0431  0.36507  0.45313     N
N       0.0431  0.38493  0.29687     N
N       0.0431  0.86507  0.95313     N
N       0.0431  0.88493  0.79687     N
N       0.0443   0.2907  0.27226     N
N       0.0443   0.4593  0.47774     N
N       0.0443   0.7907  0.77226     N
N       0.0443   0.9593  0.97774     N
N       0.0471  0.33603  0.44246     N
N       0.0471  0.41397  0.30754     N
N       0.0471  0.83603  0.94246     N
N       0.0471  0.91397  0.80754     N
C       0.0523  0.11891  0.84822     C
C       0.0523  0.13109  0.40178     C
C       0.0523  0.61891  0.34822     C
C       0.0523  0.63109  0.90178     C
C       0.0526  0.11899  0.87888     C
C       0.0526  0.13101  0.37112     C
C       0.0526  0.61899  0.37888     C
C       0.0526  0.63101  0.87112     C
N       0.0653  0.00547  0.87778     N
N       0.0653  0.24453  0.37222     N
N       0.0653  0.50547  0.37778     N
N       0.0653  0.74453  0.87222     N
N       0.0676  0.09127  0.21874     N
N       0.0676  0.15873  0.03126     N
N       0.0676  0.59127  0.71874     N
N       0.0676  0.65873  0.53126     N
Cu     0.06845  0.09204  0.01052    Cu
Cu     0.06845  0.15796  0.23948    Cu
Cu     0.06845  0.59204  0.51052    Cu
Cu     0.06845  0.65796  0.73948    Cu
N       0.0769  0.02188  0.90231     N
N       0.0769  0.22812  0.34769     N
N       0.0769  0.52188  0.40231     N
N       0.0769  0.72812  0.84769     N
C       0.0823  0.27137  0.06749     C
C       0.0823  0.47863  0.68251     C
C       0.0823  0.77137  0.56749     C
C       0.0823  0.97863  0.18251     C
N        0.085  0.10426  0.94324     N
N        0.085  0.14574  0.30676     N
N        0.085  0.60426  0.44324     N
N        0.085  0.64574  0.80676     N
C      0.08938  0.27552  0.23004     C
C      0.08938  0.47448  0.51996     C
C      0.08938  0.77552  0.73004     C
C      0.08938  0.97448  0.01996     C
C       0.0909  0.02226  0.21518     C
C       0.0909  0.22774  0.03482     C
C       0.0909  0.52226  0.71518     C
C       0.0909  0.72774  0.53482     C
N      0.09194  0.34961  0.08956     N
N      0.09194  0.40039  0.66044     N
N      0.09194  0.84961  0.58956     N
N      0.09194  0.90039  0.16044     N
N       0.0949  0.27077  0.25892     N
N       0.0949  0.47923  0.49108     N
N       0.0949  0.77077  0.75892     N
N       0.0949  0.97923  0.99108     N
H       0.0962   0.2917   0.0722     H
H       0.0962   0.4583   0.6778     H
H       0.0962   0.7917   0.5722     H
H       0.0962   0.9583   0.1778     H
N       0.1014   0.1126  0.97128     N
N       0.1014   0.1374  0.27872     N
N       0.1014   0.6126  0.47128     N
N       0.1014   0.6374  0.77872     N
N      0.10621  0.36321  0.04426     N
N      0.10621  0.38679  0.70574     N
N      0.10621  0.86321  0.54426     N
N      0.10621  0.88679  0.20574     N
N      0.10657  0.34919  0.18326     N
N      0.10657  0.40081  0.56674     N
N      0.10657  0.84919  0.68326     N
N      0.10657  0.90081  0.06674     N
H         0.11   0.0313   0.2325     H
H         0.11   0.2187   0.0175     H
H         0.11   0.5313   0.7325     H
H         0.11   0.7187   0.5175     H
C       0.1116  0.25843  0.04142     C
C       0.1116  0.49157  0.70858     C
C       0.1116  0.75843  0.54142     C
C       0.1116  0.99157  0.20858     C
C        0.125    0.125  0.32342     C
C        0.125    0.125  0.35576     C
C        0.125    0.125  0.41647     C
H        0.125    0.125   0.4369     H
H        0.125    0.125   0.8131     H
C        0.125    0.125  0.83353     C
C        0.125    0.125  0.89424     C
C        0.125    0.125  0.92658     C
Cu       0.125  0.32217    0.125    Cu
Cu       0.125  0.42783    0.625    Cu
H        0.125    0.625   0.3131     H
C        0.125    0.625  0.33353     C
C        0.125    0.625  0.39424     C
C        0.125    0.625  0.42658     C
C        0.125    0.625  0.82342     C
C        0.125    0.625  0.85576     C
C        0.125    0.625  0.91647     C
H        0.125    0.625   0.9369     H
Cu       0.125  0.82217    0.625    Cu
Cu       0.125  0.92783    0.125    Cu
C       0.1384  0.25843  0.20858     C
C       0.1384  0.49157  0.54142     C
C       0.1384  0.75843  0.70858     C
C       0.1384  0.99157  0.04142     C
H         0.14   0.0313   0.0175     H
H         0.14   0.2187   0.2325     H
H         0.14   0.5313   0.5175     H
H         0.14   0.7187   0.7325     H
N      0.14343  0.34919  0.06674     N
N      0.14343  0.40081  0.68326     N
N      0.14343  0.84919  0.56674     N
N      0.14343  0.90081  0.18326     N
N      0.14379  0.36321  0.20574     N
N      0.14379  0.38679  0.54426     N
N      0.14379  0.86321  0.70574     N
N      0.14379  0.88679  0.04426     N
N       0.1486   0.1126  0.27872     N
N       0.1486   0.1374  0.97128     N
N       0.1486   0.6126  0.77872     N
N       0.1486   0.6374  0.47128     N
H       0.1538   0.2917   0.1778     H
H       0.1538   0.4583   0.5722     H
H       0.1538   0.7917   0.6778     H
H       0.1538   0.9583   0.0722     H
N       0.1551  0.27077  0.99108     N
N       0.1551  0.47923  0.75892     N
N       0.1551  0.77077  0.49108     N
N       0.1551  0.97923  0.25892     N
N      0.15806  0.34961  0.16044     N
N      0.15806  0.40039  0.58956     N
N      0.15806  0.84961  0.66044     N
N      0.15806  0.90039  0.08956     N
C       0.1591  0.02226  0.03482     C
C       0.1591  0.22774  0.21518     C
C       0.1591  0.52226  0.53482     C
C       0.1591  0.72774  0.71518     C
C      0.16062  0.27552  0.01996     C
C      0.16062  0.47448  0.73004     C
C      0.16062  0.77552  0.51996     C
C      0.16062  0.97448  0.23004     C
N        0.165  0.10426  0.30676     N
N        0.165  0.14574  0.94324     N
N        0.165  0.60426  0.80676     N
N        0.165  0.64574  0.44324     N
C       0.1677  0.27137  0.18251     C
C       0.1677  0.47863  0.56749     C
C       0.1677  0.77137  0.68251     C
C       0.1677  0.97863  0.06749     C
N       0.1731  0.02188  0.34769     N
N       0.1731  0.22812  0.90231     N
N       0.1731  0.52188  0.84769     N
N       0.1731  0.72812  0.40231     N
Cu     0.18155  0.09204  0.23948    Cu
Cu     0.18155  0.15796  0.01052    Cu
Cu     0.18155  0.59204  0.73948    Cu
Cu     0.18155  0.65796  0.51052    Cu
N       0.1824  0.09127  0.03126     N
N       0.1824  0.15873  0.21874     N
N       0.1824  0.59127  0.53126     N
N       0.1824  0.65873  0.71874     N
N       0.1847  0.00547  0.37222     N
N       0.1847  0.24453  0.87778     N
N       0.1847  0.50547  0.87222     N
N       0.1847  0.74453  0.37778     N
C       0.1974  0.11899  0.37112     C
C       0.1974  0.13101  0.87888     C
C       0.1974  0.61899  0.87112     C
C       0.1974  0.63101  0.37888     C
C       0.1977  0.11891  0.40178     C
C       0.1977  0.13109  0.84822     C
C       0.1977  0.61891  0.90178     C
C       0.1977  0.63109  0.34822     C
N       0.2029  0.33603  0.80754     N
N       0.2029  0.41397  0.94246     N
N       0.2029  0.83603  0.30754     N
N       0.2029  0.91397  0.44246     N
N       0.2057   0.2907  0.97774     N
N       0.2057   0.4593  0.77226     N
N       0.2057   0.7907  0.47774     N
N       0.2057   0.9593  0.27226     N
N       0.2069  0.36507  0.79687     N
N       0.2069  0.38493  0.95313     N
N       0.2069  0.86507  0.29687     N
N       0.2069  0.88493  0.45313     N
C       0.2079  0.03926  0.05386     C
C       0.2079  0.21074  0.19614     C
C       0.2079  0.53926  0.55386     C
C       0.2079  0.71074  0.69614     C
N      0.21463  0.29837  0.02447     N
N      0.21463  0.45163  0.72553     N
N      0.21463  0.79837  0.52447     N
N      0.21463  0.95163  0.22553     N
C       0.2167  0.25459  0.16348     C
C       0.2167  0.49541  0.58652     C
C       0.2167  0.75459  0.66348     C
C       0.2167  0.99541  0.08652     C
N       0.2183   0.3723  0.19679     N
N       0.2183   0.3777  0.55321     N
N       0.2183   0.8723  0.69679     N
N       0.2183   0.8777  0.05321     N
N       0.2221  0.29128  0.12062     N
N       0.2221  0.45872  0.62938     N
N       0.2221  0.79128  0.62062     N
N       0.2221  0.95872  0.12938     N
N       0.2249  0.11853  0.03153     N
N       0.2249  0.13147  0.21847     N
N       0.2249  0.61853  0.53153     N
N       0.2249  0.63147  0.71847     N
H        0.227   0.2867   0.8419     H
H        0.227   0.4633   0.9081     H
H        0.227   0.7867   0.3419     H
H        0.227   0.9633   0.4081     H
C      0.22713   0.3639   0.1688     C
C      0.22713   0.3861   0.5812     C
C      0.22713   0.8639   0.6688     C
C      0.22713   0.8861   0.0812     C
C       0.2292  0.07175  0.04741     C
C       0.2292  0.17825  0.20259     C
C       0.2292  0.57175  0.54741     C
C       0.2292  0.67825  0.70259     C
N      0.23074    0.044  0.34671     N
N      0.23074    0.206  0.90329     N
N      0.23074    0.544  0.84671     N
N      0.23074    0.706  0.40329     N
C       0.2382  0.02553   0.0795     C
C       0.2382  0.22447   0.1705     C
C       0.2382  0.52553   0.5795     C
C       0.2382  0.72447   0.6705     C
N       0.2425  0.30776  0.99838     N
N       0.2425  0.44224  0.75162     N
N       0.2425  0.80776  0.49838     N
N       0.2425  0.94224  0.25162     N
H        0.246    0.115   0.3609     H
H        0.246    0.135   0.8891     H
H        0.246    0.615   0.8609     H
H        0.246    0.635   0.3891     H
Cu     0.24882  0.32121  0.06245    Cu
Cu     0.24882  0.42879  0.68755    Cu
Cu     0.24882  0.82121  0.56245    Cu
Cu     0.24882  0.92879  0.18755    Cu
C       0.2494  0.01745  0.38639     C
C       0.2494  0.23255  0.86361     C
C       0.2494  0.51745  0.88639     C
C       0.2494  0.73255  0.36361     C
C       0.2506  0.26745  0.13639     C
C       0.2506  0.48255  0.61361     C
C       0.2506  0.76745  0.63639     C
C       0.2506  0.98255  0.11361     C
Cu     0.25118  0.07121  0.31245    Cu
Cu     0.25118  0.17879  0.93755    Cu
Cu     0.25118  0.57121  0.81245    Cu
Cu     0.25118  0.67879  0.43755    Cu
H        0.254    0.365   0.1109     H
H        0.254    0.385   0.6391     H
H        0.254    0.865   0.6109     H
H        0.254    0.885   0.1391     H
N       0.2575  0.05776  0.24838     N
N       0.2575  0.19224  0.00162     N
N       0.2575  0.55776  0.74838     N
N       0.2575  0.69224  0.50162     N
C       0.2618  0.27553   0.8295     C
C       0.2618  0.47447   0.9205     C
C       0.2618  0.77553   0.3295     C
C       0.2618  0.97447   0.4205     C
N      0.26926    0.294  0.09671     N
N      0.26926    0.456  0.65329     N
N      0.26926    0.794  0.59671     N
N      0.26926    0.956  0.15329     N
C       0.2708  0.32175  0.79741     C
C       0.2708  0.42825  0.95259     C
C       0.2708  0.82175  0.29741     C
C       0.2708  0.92825  0.45259     C
C      0.27287   0.1139   0.4188     C
C      0.27287   0.1361   0.8312     C
C      0.27287   0.6139   0.9188     C
C      0.27287   0.6361   0.3312     C
H        0.273   0.0367   0.0919     H
H        0.273   0.2133   0.1581     H
H        0.273   0.5367   0.5919     H
H        0.273   0.7133   0.6581     H
N       0.2751  0.36853  0.78153     N
N       0.2751  0.38147  0.96847     N
N       0.2751  0.86853  0.28153     N
N       0.2751  0.88147  0.46847     N
N       0.2779  0.04128  0.37062     N
N       0.2779  0.20872  0.87938     N
N       0.2779  0.54128  0.87062     N
N       0.2779  0.70872  0.37938     N
N       0.2817   0.1223  0.44679     N
N       0.2817   0.1277  0.80321     N
N       0.2817   0.6223  0.94679     N
N       0.2817   0.6277  0.30321     N
C       0.2833  0.00459  0.41348     C
C       0.2833  0.24541  0.83652     C
C       0.2833  0.50459  0.91348     C
C       0.2833  0.74541  0.33652     C
N      0.28537  0.04837  0.27447     N
N      0.28537  0.20163  0.97553     N
N      0.28537  0.54837  0.77447     N
N      0.28537  0.70163  0.47553     N
C       0.2921  0.28926  0.80386     C
C       0.2921  0.46074  0.94614     C
C       0.2921  0.78926  0.30386     C
C       0.2921  0.96074  0.44614     C
N       0.2931  0.11507  0.04687     N
N       0.2931  0.13493  0.20313     N
N       0.2931  0.61507  0.54687     N
N       0.2931  0.63493  0.70313     N
N       0.2943   0.0407  0.22774     N
N       0.2943   0.2093  0.02226     N
N       0.2943   0.5407  0.72774     N
N       0.2943   0.7093  0.52226     N
N       0.2971  0.08603  0.05754     N
N       0.2971  0.16397  0.19246     N
N       0.2971  0.58603  0.55754     N
N       0.2971  0.66397  0.69246     N
C       0.3023  0.36891  0.15178     C
C       0.3023  0.38109  0.59822     C
C       0.3023  0.86891  0.65178     C
C       0.3023  0.88109  0.09822     C
C       0.3026  0.36899  0.12112     C
C       0.3026  0.38101  0.62888     C
C       0.3026  0.86899  0.62112     C
C       0.3026  0.88101  0.12888     C
N       0.3153  0.25547  0.12222     N
N       0.3153  0.49453  0.62778     N
N       0.3153  0.75547  0.62222     N
N       0.3153  0.99453  0.12778     N
N       0.3176  0.34127  0.78126     N
N       0.3176  0.40873  0.96874     N
N       0.3176  0.84127  0.28126     N
N       0.3176  0.90873  0.46874     N
Cu     0.31845  0.34204  0.98948    Cu
Cu     0.31845  0.40796  0.76052    Cu
Cu     0.31845  0.84204  0.48948    Cu
Cu     0.31845  0.90796  0.26052    Cu
N       0.3269  0.27188  0.09769     N
N       0.3269  0.47812  0.65231     N
N       0.3269  0.77188  0.59769     N
N       0.3269  0.97812  0.15231     N
C       0.3323  0.02137  0.43251     C
C       0.3323  0.22863  0.81749     C
C       0.3323  0.52137  0.93251     C
C       0.3323  0.72863  0.31749     C
N        0.335  0.35426  0.05676     N
N        0.335  0.39574  0.69324     N
N        0.335  0.85426  0.55676     N
N        0.335  0.89574  0.19324     N
C      0.33938  0.02552  0.26996     C
C      0.33938  0.22448  0.98004     C
C      0.33938  0.52552  0.76996     C
C      0.33938  0.72448  0.48004     C
C       0.3409  0.27226  0.78482     C
C       0.3409  0.47774  0.96518     C
C       0.3409  0.77226  0.28482     C
C       0.3409  0.97774  0.46518     C
N      0.34194  0.09961  0.41044     N
N      0.34194  0.15039  0.83956     N
N      0.34194  0.59961  0.91044     N
N      0.34194  0.65039  0.33956     N
N       0.3449  0.02077  0.24108     N
N       0.3449  0.22923  0.00892     N
N       0.3449  0.52077  0.74108     N
N       0.3449  0.72923  0.50892     N
H       0.3462   0.0417   0.4278     H
H       0.3462   0.2083   0.8222     H
H       0.3462   0.5417   0.9278     H
H       0.3462   0.7083   0.3222     H
N       0.3514   0.3626  0.02872     N
N       0.3514   0.3874  0.72128     N
N       0.3514   0.8626  0.52872     N
N       0.3514   0.8874  0.22128     N
N      0.35621  0.11321  0.45574     N
N      0.35621  0.13679  0.79426     N
N      0.35621  0.61321  0.95574     N
N      0.35621  0.63679  0.29426     N
N      0.35657  0.09919  0.31674     N
N      0.35657  0.15081  0.93326     N
N      0.35657  0.59919  0.81674     N
N      0.35657  0.65081  0.43326     N
H         0.36   0.2813   0.7675     H
H         0.36   0.4687   0.9825     H
H         0.36   0.7813   0.2675     H
H         0.36   0.9687   0.4825     H
C       0.3616  0.00843  0.45858     C
C       0.3616  0.24157  0.79142     C
C       0.3616  0.50843  0.95858     C
C       0.3616  0.74157  0.29142     C
Cu       0.375  0.07217    0.375    Cu
Cu       0.375  0.17783    0.875    Cu
C        0.375    0.375  0.07342     C
C        0.375    0.375  0.10576     C
C        0.375    0.375  0.16647     C
H        0.375    0.375   0.1869     H
H        0.375    0.375   0.5631     H
C        0.375    0.375  0.58353     C
C        0.375    0.375  0.64424     C
C        0.375    0.375  0.67658     C
Cu       0.375  0.57217    0.875    Cu
Cu       0.375  0.67783    0.375    Cu
H        0.375    0.875   0.0631     H
C        0.375    0.875  0.08353     C
C        0.375    0.875  0.14424     C
C        0.375    0.875  0.17658     C
C        0.375    0.875  0.57342     C
C        0.375    0.875  0.60576     C
C        0.375    0.875  0.66647     C
H        0.375    0.875   0.6869     H
C       0.3884  0.00843  0.29142     C
C       0.3884  0.24157  0.95858     C
C       0.3884  0.50843  0.79142     C
C       0.3884  0.74157  0.45858     C
H         0.39   0.2813   0.9825     H
H         0.39   0.4687   0.7675     H
H         0.39   0.7813   0.4825     H
H         0.39   0.9687   0.2675     H
N      0.39343  0.09919  0.43326     N
N      0.39343  0.15081  0.81674     N
N      0.39343  0.59919  0.93326     N
N      0.39343  0.65081  0.31674     N
N      0.39379  0.11321  0.29426     N
N      0.39379  0.13679  0.95574     N
N      0.39379  0.61321  0.79426     N
N      0.39379  0.63679  0.45574     N
N       0.3986   0.3626  0.72128     N
N       0.3986   0.3874  0.02872     N
N       0.3986   0.8626  0.22128     N
N       0.3986   0.8874  0.52872     N
H       0.4038   0.0417   0.3222     H
H       0.4038   0.2083   0.9278     H
H       0.4038   0.5417   0.8222     H
H       0.4038   0.7083   0.4278     H
N       0.4051  0.02077  0.50892     N
N       0.4051  0.22923  0.74108     N
N       0.4051  0.52077  0.00892     N
N       0.4051  0.72923  0.24108     N
N      0.40806  0.09961  0.33956     N
N      0.40806  0.15039  0.91044     N
N      0.40806  0.59961  0.83956     N
N      0.40806  0.65039  0.41044     N
C       0.4091  0.27226  0.96518     C
C       0.4091  0.47774  0.78482     C
C       0.4091  0.77226  0.46518     C
C       0.4091  0.97774  0.28482     C
C      0.41062  0.02552  0.48004     C
C      0.41062  0.22448  0.76996     C
C      0.41062  0.52552  0.98004     C
C      0.41062  0.72448  0.26996     C
N        0.415  0.35426  0.69324     N
N        0.415  0.39574  0.05676     N
N        0.415  0.85426  0.19324     N
N        0.415  0.89574  0.55676     N
C       0.4177  0.02137  0.31749     C
C       0.4177  0.22863  0.93251     C
C       0.4177  0.52137  0.81749     C
C       0.4177  0.72863  0.43251     C
N       0.4231  0.27188  0.65231     N
N       0.4231  0.47812  0.09769     N
N       0.4231  0.77188  0.15231     N
N       0.4231  0.97812  0.59769     N
Cu     0.43155  0.34204  0.76052    Cu
Cu     0.43155  0.40796  0.98948    Cu
Cu     0.43155  0.84204  0.26052    Cu
Cu     0.43155  0.90796  0.48948    Cu
N       0.4324  0.34127  0.96874     N
N       0.4324  0.40873  0.78126     N
N       0.4324  0.84127  0.46874     N
N       0.4324  0.90873  0.28126     N
N       0.4347  0.25547  0.62778     N
N       0.4347  0.49453  0.12222     N
N       0.4347  0.75547  0.12778     N
N       0.4347  0.99453  0.62222     N
C       0.4474  0.36899  0.62888     C
C       0.4474  0.38101  0.12112     C
C       0.4474  0.86899  0.12888     C
C       0.4474  0.88101  0.62112     C
C       0.4477  0.36891  0.59822     C
C       0.4477  0.38109  0.15178     C
C       0.4477  0.86891  0.09822     C
C       0.4477  0.88109  0.65178     C
N       0.4529  0.08603  0.69246     N
N       0.4529  0.16397  0.55754     N
N       0.4529  0.58603  0.19246     N
N       0.4529  0.66397  0.05754     N
N       0.4557   0.0407  0.52226     N
N       0.4557   0.2093  0.72774     N
N       0.4557   0.5407  0.02226     N
N       0.4557   0.7093  0.22774     N
N       0.4569  0.11507  0.70313     N
N       0.4569  0.13493  0.54687     N
N       0.4569  0.61507  0.20313     N
N       0.4569  0.63493  0.04687     N
C       0.4579  0.28926  0.94614     C
C       0.4579  0.46074  0.80386     C
C       0.4579  0.78926  0.44614     C
C       0.4579  0.96074  0.30386     C
N      0.46463  0.04837  0.47553     N
N      0.46463  0.20163  0.77447     N
N      0.46463  0.54837  0.97553     N
N      0.46463  0.70163  0.27447     N
C       0.4667  0.00459  0.33652     C
C       0.4667  0.24541  0.91348     C
C       0.4667  0.50459  0.83652     C
C       0.4667  0.74541  0.41348     C
N       0.4683   0.1223  0.30321     N
N       0.4683   0.1277  0.94679     N
N       0.4683   0.6223  0.80321     N
N       0.4683   0.6277  0.44679     N
N       0.4721  0.04128  0.37938     N
N       0.4721  0.20872  0.87062     N
N       0.4721  0.54128  0.87938     N
N       0.4721  0.70872  0.37062     N
N       0.4749  0.36853  0.96847     N
N       0.4749  0.38147  0.78153     N
N       0.4749  0.86853  0.46847     N
N       0.4749  0.88147  0.28153     N
H        0.477   0.0367   0.6581     H
H        0.477   0.2133   0.5919     H
H        0.477   0.5367   0.1581     H
H        0.477   0.7133   0.0919     H
C      0.47713   0.1139   0.3312     C
C      0.47713   0.1361   0.9188     C
C      0.47713   0.6139   0.8312     C
C      0.47713   0.6361   0.4188     C
C       0.4792  0.32175  0.95259     C
C       0.4792  0.42825  0.79741     C
C       0.4792  0.82175  0.45259     C
C       0.4792  0.92825  0.29741     C
N      0.48074    0.294  0.65329     N
N      0.48074    0.456  0.09671     N
N      0.48074    0.794  0.15329     N
N      0.48074    0.956  0.59671     N
C       0.4882  0.27553   0.9205     C
C       0.4882  0.47447   0.8295     C
C       0.4882  0.77553   0.4205     C
C       0.4882  0.97447   0.3295     C
N       0.4925  0.05776  0.50162     N
N       0.4925  0.19224  0.74838     N
N       0.4925  0.55776  0.00162     N
N       0.4925  0.69224  0.24838     N
H        0.496    0.365   0.6391     H
H        0.496    0.385   0.1109     H
H        0.496    0.865   0.1391     H
H        0.496    0.885   0.6109     H
Cu     0.49882  0.07121  0.43755    Cu
Cu     0.49882  0.17879  0.81245    Cu
Cu     0.49882  0.57121  0.93755    Cu
Cu     0.49882  0.67879  0.31245    Cu
C       0.4994  0.26745  0.61361     C
C       0.4994  0.48255  0.13639     C
C       0.4994  0.76745  0.11361     C
C       0.4994  0.98255  0.63639     C
C       0.5006  0.01745  0.36361     C
C       0.5006  0.23255  0.88639     C
C       0.5006  0.51745  0.86361     C
C       0.5006  0.73255  0.38639     C
Cu     0.50118  0.32121  0.68755    Cu
Cu     0.50118  0.42879  0.06245    Cu
Cu     0.50118  0.82121  0.18755    Cu
Cu     0.50118  0.92879  0.56245    Cu
H        0.504    0.115   0.3891     H
H        0.504    0.135   0.8609     H
H        0.504    0.615   0.8891     H
H        0.504    0.635   0.3609     H
N       0.5075  0.30776  0.75162     N
N       0.5075  0.44224  0.99838     N
N       0.5075  0.80776  0.25162     N
N       0.5075  0.94224  0.49838     N
C       0.5118  0.02553   0.6705     C
C       0.5118  0.22447   0.5795     C
C       0.5118  0.52553   0.1705     C
C       0.5118  0.72447   0.0795     C
N      0.51926    0.044  0.40329     N
N      0.51926    0.206  0.84671     N
N      0.51926    0.544  0.90329     N
N      0.51926    0.706  0.34671     N
C       0.5208  0.07175  0.70259     C
C       0.5208  0.17825  0.54741     C
C       0.5208  0.57175  0.20259     C
C       0.5208  0.67825  0.04741     C
C      0.52287   0.3639   0.5812     C
C      0.52287   0.3861   0.1688     C
C      0.52287   0.8639   0.0812     C
C      0.52287   0.8861   0.6688     C
H        0.523   0.2867   0.9081     H
H        0.523   0.4633   0.8419     H
H        0.523   0.7867   0.4081     H
H        0.523   0.9633   0.3419     H
N       0.5251  0.11853  0.71847     N
N       0.5251  0.13147  0.53153     N
N       0.5251  0.61853  0.21847     N
N       0.5251  0.63147  0.03153     N
N       0.5279  0.29128  0.62938     N
N       0.5279  0.45872  0.12062     N
N       0.5279  0.79128  0.12938     N
N       0.5279  0.95872  0.62062     N
N       0.5317   0.3723  0.55321     N
N       0.5317   0.3777  0.19679     N
N       0.5317   0.8723  0.05321     N
N       0.5317   0.8777  0.69679     N
C       0.5333  0.25459  0.58652     C
C       0.5333  0.49541  0.16348     C
C       0.5333  0.75459  0.08652     C
C       0.5333  0.99541  0.66348     C
N      0.53537  0.29837  0.72553     N
N      0.53537  0.45163  0.02447     N
N      0.53537  0.79837  0.22553     N
N      0.53537  0.95163  0.52447     N
C       0.5421  0.03926  0.69614     C
C       0.5421  0.21074  0.55386     C
C       0.5421  0.53926  0.19614     C
C       0.5421  0.71074  0.05386     C
N       0.5431  0.36507  0.95313     N
N       0.5431  0.38493  0.79687     N
N       0.5431  0.86507  0.45313     N
N       0.5431  0.88493  0.29687     N
N       0.5443   0.2907  0.77226     N
N       0.5443   0.4593  0.97774     N
N       0.5443   0.7907  0.27226     N
N       0.5443   0.9593  0.47774     N
N       0.5471  0.33603  0.94246     N
N       0.5471  0.41397  0.80754     N
N       0.5471  0.83603  0.44246     N
N       0.5471  0.91397  0.30754     N
C       0.5523  0.11891  0.34822     C
C       0.5523  0.13109  0.90178     C
C       0.5523  0.61891  0.84822     C
C       0.5523  0.63109  0.40178     C
C       0.5526  0.11899  0.37888     C
C       0.5526  0.13101  0.87112     C
C       0.5526  0.61899  0.87888     C
C       0.5526  0.63101  0.37112     C
N       0.5653  0.00547  0.37778     N
N       0.5653  0.24453  0.87222     N
N       0.5653  0.50547  0.87778     N
N       0.5653  0.74453  0.37222     N
N       0.5676  0.09127  0.71874     N
N       0.5676  0.15873  0.53126     N
N       0.5676  0.59127  0.21874     N
N       0.5676  0.65873  0.03126     N
Cu     0.56845  0.09204  0.51052    Cu
Cu     0.56845  0.15796  0.73948    Cu
Cu     0.56845  0.59204  0.01052    Cu
Cu     0.56845  0.65796  0.23948    Cu
N       0.5769  0.02188  0.40231     N
N       0.5769  0.22812  0.84769     N
N       0.5769  0.52188  0.90231     N
N       0.5769  0.72812  0.34769     N
C       0.5823  0.27137  0.56749     C
C       0.5823  0.47863  0.18251     C
C       0.5823  0.77137  0.06749     C
C       0.5823  0.97863  0.68251     C
N        0.585  0.10426  0.44324     N
N        0.585  0.14574  0.80676     N
N        0.585  0.60426  0.94324     N
N        0.585  0.64574  0.30676     N
C      0.58938  0.27552  0.73004     C
C      0.58938  0.47448  0.01996     C
C      0.58938  0.77552  0.23004     C
C      0.58938  0.97448  0.51996     C
C       0.5909  0.02226  0.71518     C
C       0.5909  0.22774  0.53482     C
C       0.5909  0.52226  0.21518     C
C       0.5909  0.72774  0.03482     C
N      0.59194  0.34961  0.58956     N
N      0.59194  0.40039  0.16044     N
N      0.59194  0.84961  0.08956     N
N      0.59194  0.90039  0.66044     N
N       0.5949  0.27077  0.75892     N
N       0.5949  0.47923  0.99108     N
N       0.5949  0.77077  0.25892     N
N       0.5949  0.97923  0.49108     N
H       0.5962   0.2917   0.5722     H
H       0.5962   0.4583   0.1778     H
H       0.5962   0.7917   0.0722     H
H       0.5962   0.9583   0.6778     H
N       0.6014   0.1126  0.47128     N
N       0.6014   0.1374  0.77872     N
N       0.6014   0.6126  0.97128     N
N       0.6014   0.6374  0.27872     N
N      0.60621  0.36321  0.54426     N
N      0.60621  0.38679  0.20574     N
N      0.60621  0.86321  0.04426     N
N      0.60621  0.88679  0.70574     N
N      0.60657  0.34919  0.68326     N
N      0.60657  0.40081  0.06674     N
N      0.60657  0.84919  0.18326     N
N      0.60657  0.90081  0.56674     N
H         0.61   0.0313   0.7325     H
H         0.61   0.2187   0.5175     H
H         0.61   0.5313   0.2325     H
H         0.61   0.7187   0.0175     H
C       0.6116  0.25843  0.54142     C
C       0.6116  0.49157  0.20858     C
C       0.6116  0.75843  0.04142     C
C       0.6116  0.99157  0.70858     C
H        0.625    0.125   0.3131     H
C        0.625    0.125  0.33353     C
C        0.625    0.125  0.39424     C
C        0.625    0.125  0.42658     C
C        0.625    0.125  0.82342     C
C        0.625    0.125  0.85576     C
C        0.625    0.125  0.91647     C
H        0.625    0.125   0.9369     H
Cu       0.625  0.32217    0.625    Cu
Cu       0.625  0.42783    0.125    Cu
C        0.625    0.625  0.32342     C
C        0.625    0.625  0.35576     C
C        0.625    0.625  0.41647     C
H        0.625    0.625   0.4369     H
H        0.625    0.625   0.8131     H
C        0.625    0.625  0.83353     C
C        0.625    0.625  0.89424     C
C        0.625    0.625  0.92658     C
Cu       0.625  0.82217    0.125    Cu
Cu       0.625  0.92783    0.625    Cu
C       0.6384  0.25843  0.70858     C
C       0.6384  0.49157  0.04142     C
C       0.6384  0.75843  0.20858     C
C       0.6384  0.99157  0.54142     C
H         0.64   0.0313   0.5175     H
H         0.64   0.2187   0.7325     H
H         0.64   0.5313   0.0175     H
H         0.64   0.7187   0.2325     H
N      0.64343  0.34919  0.56674     N
N      0.64343  0.40081  0.18326     N
N      0.64343  0.84919  0.06674     N
N      0.64343  0.90081  0.68326     N
N      0.64379  0.36321  0.70574     N
N      0.64379  0.38679  0.04426     N
N      0.64379  0.86321  0.20574     N
N      0.64379  0.88679  0.54426     N
N       0.6486   0.1126  0.77872     N
N       0.6486   0.1374  0.47128     N
N       0.6486   0.6126  0.27872     N
N       0.6486   0.6374  0.97128     N
H       0.6538   0.2917   0.6778     H
H       0.6538   0.4583   0.0722     H
H       0.6538   0.7917   0.1778     H
H       0.6538   0.9583   0.5722     H
N       0.6551  0.27077  0.49108     N
N       0.6551  0.47923  0.25892     N
N       0.6551  0.77077  0.99108     N
N       0.6551  0.97923  0.75892     N
N      0.65806  0.34961  0.66044     N
N      0.65806  0.40039  0.08956     N
N      0.65806  0.84961  0.16044     N
N      0.65806  0.90039  0.58956     N
C       0.6591  0.02226  0.53482     C
C       0.6591  0.22774  0.71518     C
C       0.6591  0.52226  0.03482     C
C       0.6591  0.72774  0.21518     C
C      0.66062  0.27552  0.51996     C
C      0.66062  0.47448  0.23004     C
C      0.66062  0.77552  0.01996     C
C      0.66062  0.97448  0.73004     C
N        0.665  0.10426  0.80676     N
N        0.665  0.14574  0.44324     N
N        0.665  0.60426  0.30676     N
N        0.665  0.64574  0.94324     N
C       0.6677  0.27137  0.68251     C
C       0.6677  0.47863  0.06749     C
C       0.6677  0.77137  0.18251     C
C       0.6677  0.97863  0.56749     C
N       0.6731  0.02188  0.84769     N
N       0.6731  0.22812  0.40231     N
N       0.6731  0.52188  0.34769     N
N       0.6731  0.72812  0.90231     N
Cu     0.68155  0.09204  0.73948    Cu
Cu     0.68155  0.15796  0.51052    Cu
Cu     0.68155  0.59204  0.23948    Cu
Cu     0.68155  0.65796  0.01052    Cu
N       0.6824  0.09127  0.53126     N
N       0.6824  0.15873  0.71874     N
N       0.6824  0.59127  0.03126     N
N       0.6824  0.65873  0.21874     N
N       0.6847  0.00547  0.87222     N
N       0.6847  0.24453  0.37778     N
N       0.6847  0.50547  0.37222     N
N       0.6847  0.74453  0.87778     N
C       0.6974  0.11899  0.87112     C
C       0.6974  0.13101  0.37888     C
C       0.6974  0.61899  0.37112     C
C       0.6974  0.63101  0.87888     C
C       0.6977  0.11891  0.90178     C
C       0.6977  0.13109  0.34822     C
C       0.6977  0.61891  0.40178     C
C       0.6977  0.63109  0.84822     C
N       0.7029  0.33603  0.30754     N
N       0.7029  0.41397  0.44246     N
N       0.7029  0.83603  0.80754     N
N       0.7029  0.91397  0.94246     N
N       0.7057   0.2907  0.47774     N
N       0.7057   0.4593  0.27226     N
N       0.7057   0.7907  0.97774     N
N       0.7057   0.9593  0.77226     N
N       0.7069  0.36507  0.29687     N
N       0.7069  0.38493  0.45313     N
N       0.7069  0.86507  0.79687     N
N       0.7069  0.88493  0.95313     N
C       0.7079  0.03926  0.55386     C
C       0.7079  0.21074  0.69614     C
C       0.7079  0.53926  0.05386     C
C       0.7079  0.71074  0.19614     C
N      0.71463  0.29837  0.52447     N
N      0.71463  0.45163  0.22553     N
N      0.71463  0.79837  0.02447     N
N      0.71463  0.95163  0.72553     N
C       0.7167  0.25459  0.66348     C
C       0.7167  0.49541  0.08652     C
C       0.7167  0.75459  0.16348     C
C       0.7167  0.99541  0.58652     C
N       0.7183   0.3723  0.69679     N
N       0.7183   0.3777  0.05321     N
N       0.7183   0.8723  0.19679     N
N       0.7183   0.8777  0.55321     N
N       0.7221  0.29128  0.62062     N
N       0.7221  0.45872  0.12938     N
N       0.7221  0.79128  0.12062     N
N       0.7221  0.95872  0.62938     N
N       0.7249  0.11853  0.53153     N
N       0.7249  0.13147  0.71847     N
N       0.7249  0.61853  0.03153     N
N       0.7249  0.63147  0.21847     N
H        0.727   0.2867   0.3419     H
H        0.727   0.4633   0.4081     H
H        0.727   0.7867   0.8419     H
H        0.727   0.9633   0.9081     H
C      0.72713   0.3639   0.6688     C
C      0.72713   0.3861   0.0812     C
C      0.72713   0.8639   0.1688     C
C      0.72713   0.8861   0.5812     C
C       0.7292  0.07175  0.54741     C
C       0.7292  0.17825  0.70259     C
C       0.7292  0.57175  0.04741     C
C       0.7292  0.67825  0.20259     C
N      0.73074    0.044  0.84671     N
N      0.73074    0.206  0.40329     N
N      0.73074    0.544  0.34671     N
N      0.73074    0.706  0.90329     N
C       0.7382  0.02553   0.5795     C
C       0.7382  0.22447   0.6705     C
C       0.7382  0.52553   0.0795     C
C       0.7382  0.72447   0.1705     C
N       0.7425  0.30776  0.49838     N
N       0.7425  0.44224  0.25162     N
N       0.7425  0.80776  0.99838     N
N       0.7425  0.94224  0.75162     N
H        0.746    0.115   0.8609     H
H        0.746    0.135   0.3891     H
H        0.746    0.615   0.3609     H
H        0.746    0.635   0.8891     H
Cu     0.74882  0.32121  0.56245    Cu
Cu     0.74882  0.42879  0.18755    Cu
Cu     0.74882  0.82121  0.06245    Cu
Cu     0.74882  0.92879  0.68755    Cu
C       0.7494  0.01745  0.88639     C
C       0.7494  0.23255  0.36361     C
C       0.7494  0.51745  0.38639     C
C       0.7494  0.73255  0.86361     C
C       0.7506  0.26745  0.63639     C
C       0.7506  0.48255  0.11361     C
C       0.7506  0.76745  0.13639     C
C       0.7506  0.98255  0.61361     C
Cu     0.75118  0.07121  0.81245    Cu
Cu     0.75118  0.17879  0.43755    Cu
Cu     0.75118  0.57121  0.31245    Cu
Cu     0.75118  0.67879  0.93755    Cu
H        0.754    0.365   0.6109     H
H        0.754    0.385   0.1391     H
H        0.754    0.865   0.1109     H
H        0.754    0.885   0.6391     H
N       0.7575  0.05776  0.74838     N
N       0.7575  0.19224  0.50162     N
N       0.7575  0.55776  0.24838     N
N       0.7575  0.69224  0.00162     N
C       0.7618  0.27553   0.3295     C
C       0.7618  0.47447   0.4205     C
C       0.7618  0.77553   0.8295     C
C       0.7618  0.97447   0.9205     C
N      0.76926    0.294  0.59671     N
N      0.76926    0.456  0.15329     N
N      0.76926    0.794  0.09671     N
N      0.76926    0.956  0.65329     N
C       0.7708  0.32175  0.29741     C
C       0.7708  0.42825  0.45259     C
C       0.7708  0.82175  0.79741     C
C       0.7708  0.92825  0.95259     C
C      0.77287   0.1139   0.9188     C
C      0.77287   0.1361   0.3312     C
C      0.77287   0.6139   0.4188     C
C      0.77287   0.6361   0.8312     C
H        0.773   0.0367   0.5919     H
H        0.773   0.2133   0.6581     H
H        0.773   0.5367   0.0919     H
H        0.773   0.7133   0.1581     H
N       0.7751  0.36853  0.28153     N
N       0.7751  0.38147  0.46847     N
N       0.7751  0.86853  0.78153     N
N       0.7751  0.88147  0.96847     N
N       0.7779  0.04128  0.87062     N
N       0.7779  0.20872  0.37938     N
N       0.7779  0.54128  0.37062     N
N       0.7779  0.70872  0.87938     N
N       0.7817   0.1223  0.94679     N
N       0.7817   0.1277  0.30321     N
N       0.7817   0.6223  0.44679     N
N       0.7817   0.6277  0.80321     N
C       0.7833  0.00459  0.91348     C
C       0.7833  0.24541  0.33652     C
C       0.7833  0.50459  0.41348     C
C       0.7833  0.74541  0.83652     C
N      0.78537  0.04837  0.77447     N
N      0.78537  0.20163  0.47553     N
N      0.78537  0.54837  0.27447     N
N      0.78537  0.70163  0.97553     N
C       0.7921  0.28926  0.30386     C
C       0.7921  0.46074  0.44614     C
C       0.7921  0.78926  0.80386     C
C       0.7921  0.96074  0.94614     C
N       0.7931  0.11507  0.54687     N
N       0.7931  0.13493  0.70313     N
N       0.7931  0.61507  0.04687     N
N       0.7931  0.63493  0.20313     N
N       0.7943   0.0407  0.72774     N
N       0.7943   0.2093  0.52226     N
N       0.7943   0.5407  0.22774     N
N       0.7943   0.7093  0.02226     N
N       0.7971  0.08603  0.55754     N
N       0.7971  0.16397  0.69246     N
N       0.7971  0.58603  0.05754     N
N       0.7971  0.66397  0.19246     N
C       0.8023  0.36891  0.65178     C
C       0.8023  0.38109  0.09822     C
C       0.8023  0.86891  0.15178     C
C       0.8023  0.88109  0.59822     C
C       0.8026  0.36899  0.62112     C
C       0.8026  0.38101  0.12888     C
C       0.8026  0.86899  0.12112     C
C       0.8026  0.88101  0.62888     C
N       0.8153  0.25547  0.62222     N
N       0.8153  0.49453  0.12778     N
N       0.8153  0.75547  0.12222     N
N       0.8153  0.99453  0.62778     N
N       0.8176  0.34127  0.28126     N
N       0.8176  0.40873  0.46874     N
N       0.8176  0.84127  0.78126     N
N       0.8176  0.90873  0.96874     N
Cu     0.81845  0.34204  0.48948    Cu
Cu     0.81845  0.40796  0.26052    Cu
Cu     0.81845  0.84204  0.98948    Cu
Cu     0.81845  0.90796  0.76052    Cu
N       0.8269  0.27188  0.59769     N
N       0.8269  0.47812  0.15231     N
N       0.8269  0.77188  0.09769     N
N       0.8269  0.97812  0.65231     N
C       0.8323  0.02137  0.93251     C
C       0.8323  0.22863  0.31749     C
C       0.8323  0.52137  0.43251     C
C       0.8323  0.72863  0.81749     C
N        0.835  0.35426  0.55676     N
N        0.835  0.39574  0.19324     N
N        0.835  0.85426  0.05676     N
N        0.835  0.89574  0.69324     N
C      0.83938  0.02552  0.76996     C
C      0.83938  0.22448  0.48004     C
C      0.83938  0.52552  0.26996     C
C      0.83938  0.72448  0.98004     C
C       0.8409  0.27226  0.28482     C
C       0.8409  0.47774  0.46518     C
C       0.8409  0.77226  0.78482     C
C       0.8409  0.97774  0.96518     C
N      0.84194  0.09961  0.91044     N
N      0.84194  0.15039  0.33956     N
N      0.84194  0.59961  0.41044     N
N      0.84194  0.65039  0.83956     N
N       0.8449  0.02077  0.74108     N
N       0.8449  0.22923  0.50892     N
N       0.8449  0.52077  0.24108     N
N       0.8449  0.72923  0.00892     N
H       0.8462   0.0417   0.9278     H
H       0.8462   0.2083   0.3222     H
H       0.8462   0.5417   0.4278     H
H       0.8462   0.7083   0.8222     H
N       0.8514   0.3626  0.52872     N
N       0.8514   0.3874  0.22128     N
N       0.8514   0.8626  0.02872     N
N       0.8514   0.8874  0.72128     N
N      0.85621  0.11321  0.95574     N
N      0.85621  0.13679  0.29426     N
N      0.85621  0.61321  0.45574     N
N      0.85621  0.63679  0.79426     N
N      0.85657  0.09919  0.81674     N
N      0.85657  0.15081  0.43326     N
N      0.85657  0.59919  0.31674     N
N      0.85657  0.65081  0.93326     N
H         0.86   0.2813   0.2675     H
H         0.86   0.4687   0.4825     H
H         0.86   0.7813   0.7675     H
H         0.86   0.9687   0.9825     H
C       0.8616  0.00843  0.95858     C
C       0.8616  0.24157  0.29142     C
C       0.8616  0.50843  0.45858     C
C       0.8616  0.74157  0.79142     C
Cu       0.875  0.07217    0.875    Cu
Cu       0.875  0.17783    0.375    Cu
H        0.875    0.375   0.0631     H
C        0.875    0.375  0.08353     C
C        0.875    0.375  0.14424     C
C        0.875    0.375  0.17658     C
C        0.875    0.375  0.57342     C
C        0.875    0.375  0.60576     C
C        0.875    0.375  0.66647     C
H        0.875    0.375   0.6869     H
Cu       0.875  0.57217    0.375    Cu
Cu       0.875  0.67783    0.875    Cu
C        0.875    0.875  0.07342     C
C        0.875    0.875  0.10576     C
C        0.875    0.875  0.16647     C
H        0.875    0.875   0.1869     H
H        0.875    0.875   0.5631     H
C        0.875    0.875  0.58353     C
C        0.875    0.875  0.64424     C
C        0.875    0.875  0.67658     C
C       0.8884  0.00843  0.79142     C
C       0.8884  0.24157  0.45858     C
C       0.8884  0.50843  0.29142     C
C       0.8884  0.74157  0.95858     C
H         0.89   0.2813   0.4825     H
H         0.89   0.4687   0.2675     H
H         0.89   0.7813   0.9825     H
H         0.89   0.9687   0.7675     H
N      0.89343  0.09919  0.93326     N
N      0.89343  0.15081  0.31674     N
N      0.89343  0.59919  0.43326     N
N      0.89343  0.65081  0.81674     N
N      0.89379  0.11321  0.79426     N
N      0.89379  0.13679  0.45574     N
N      0.89379  0.61321  0.29426     N
N      0.89379  0.63679  0.95574     N
N       0.8986   0.3626  0.22128     N
N       0.8986   0.3874  0.52872     N
N       0.8986   0.8626  0.72128     N
N       0.8986   0.8874  0.02872     N
H       0.9038   0.0417   0.8222     H
H       0.9038   0.2083   0.4278     H
H       0.9038   0.5417   0.3222     H
H       0.9038   0.7083   0.9278     H
N       0.9051  0.02077  0.00892     N
N       0.9051  0.22923  0.24108     N
N       0.9051  0.52077  0.50892     N
N       0.9051  0.72923  0.74108     N
N      0.90806  0.09961  0.83956     N
N      0.90806  0.15039  0.41044     N
N      0.90806  0.59961  0.33956     N
N      0.90806  0.65039  0.91044     N
C       0.9091  0.27226  0.46518     C
C       0.9091  0.47774  0.28482     C
C       0.9091  0.77226  0.96518     C
C       0.9091  0.97774  0.78482     C
C      0.91062  0.02552  0.98004     C
C      0.91062  0.22448  0.26996     C
C      0.91062  0.52552  0.48004     C
C      0.91062  0.72448  0.76996     C
N        0.915  0.35426  0.19324     N
N        0.915  0.39574  0.55676     N
N        0.915  0.85426  0.69324     N
N        0.915  0.89574  0.05676     N
C       0.9177  0.02137  0.81749     C
C       0.9177  0.22863  0.43251     C
C       0.9177  0.52137  0.31749     C
C       0.9177  0.72863  0.93251     C
N       0.9231  0.27188  0.15231     N
N       0.9231  0.47812  0.59769     N
N       0.9231  0.77188  0.65231     N
N       0.9231  0.97812  0.09769     N
Cu     0.93155  0.34204  0.26052    Cu
Cu     0.93155  0.40796  0.48948    Cu
Cu     0.93155  0.84204  0.76052    Cu
Cu     0.93155  0.90796  0.98948    Cu
N       0.9324  0.34127  0.46874     N
N       0.9324  0.40873  0.28126     N
N       0.9324  0.84127  0.96874     N
N       0.9324  0.90873  0.78126     N
N       0.9347  0.25547  0.12778     N
N       0.9347  0.49453  0.62222     N
N       0.9347  0.75547  0.62778     N
N       0.9347  0.99453  0.12222     N
C       0.9474  0.36899  0.12888     C
C       0.9474  0.38101  0.62112     C
C       0.9474  0.86899  0.62888     C
C       0.9474  0.88101  0.12112     C
C       0.9477  0.36891  0.09822     C
C       0.9477  0.38109  0.65178     C
C       0.9477  0.86891  0.59822     C
C       0.9477  0.88109  0.15178     C
N       0.9529  0.08603  0.19246     N
N       0.9529  0.16397  0.05754     N
N       0.9529  0.58603  0.69246     N
N       0.9529  0.66397  0.55754     N
N       0.9557   0.0407  0.02226     N
N       0.9557   0.2093  0.22774     N
N       0.9557   0.5407  0.52226     N
N       0.9557   0.7093  0.72774     N
N       0.9569  0.11507  0.20313     N
N       0.9569  0.13493  0.04687     N
N       0.9569  0.61507  0.70313     N
N       0.9569  0.63493  0.54687     N
C       0.9579  0.28926  0.44614     C
C       0.9579  0.46074  0.30386     C
C       0.9579  0.78926  0.94614     C
C       0.9579  0.96074  0.80386     C
N      0.96463  0.04837  0.97553     N
N      0.96463  0.20163  0.27447     N
N      0.96463  0.54837  0.47553     N
N      0.96463  0.70163  0.77447     N
C       0.9667  0.00459  0.83652     C
C       0.9667  0.24541  0.41348     C
C       0.9667  0.50459  0.33652     C
C       0.9667  0.74541  0.91348     C
N       0.9683   0.1223  0.80321     N
N       0.9683   0.1277  0.44679     N
N       0.9683   0.6223  0.30321     N
N       0.9683   0.6277  0.94679     N
N       0.9721  0.04128  0.87938     N
N       0.9721  0.20872  0.37062     N
N       0.9721  0.54128  0.37938     N
N       0.9721  0.70872  0.87062     N
N       0.9749  0.36853  0.46847     N
N       0.9749  0.38147  0.28153     N
N       0.9749  0.86853  0.96847     N
N       0.9749  0.88147  0.78153     N
H        0.977   0.0367   0.1581     H
H        0.977   0.2133   0.0919     H
H        0.977   0.5367   0.6581     H
H        0.977   0.7133   0.5919     H
C      0.97713   0.1139   0.8312     C
C      0.97713   0.1361   0.4188     C
C      0.97713   0.6139   0.3312     C
C      0.97713   0.6361   0.9188     C
C       0.9792  0.32175  0.45259     C
C       0.9792  0.42825  0.29741     C
C       0.9792  0.82175  0.95259     C
C       0.9792  0.92825  0.79741     C
N      0.98074    0.294  0.15329     N
N      0.98074    0.456  0.59671     N
N      0.98074    0.794  0.65329     N
N      0.98074    0.956  0.09671     N
C       0.9882  0.27553   0.4205     C
C       0.9882  0.47447   0.3295     C
C       0.9882  0.77553   0.9205     C
C       0.9882  0.97447   0.8295     C
N       0.9925  0.05776  0.00162     N
N       0.9925  0.19224  0.24838     N
N       0.9925  0.55776  0.50162     N
N       0.9925  0.69224  0.74838     N
H        0.996    0.365   0.1391     H
H        0.996    0.385   0.6109     H
H        0.996    0.865   0.6391     H
H        0.996    0.885   0.1109     H
Cu     0.99882  0.07121  0.93755    Cu
Cu     0.99882  0.17879  0.31245    Cu
Cu     0.99882  0.57121  0.43755    Cu
Cu     0.99882  0.67879  0.81245    Cu
C       0.9994  0.26745  0.11361     C
C       0.9994  0.48255  0.63639     C
C       0.9994  0.76745  0.61361     C
C       0.9994  0.98255  0.13639     C
