data_I
_chemical_name_common  '/home/zhangsd/repos/MofS-CGCNN/ML/data/TSD/clean_cifs/COWMIL_clean'
_cell_length_a  9.57360
_cell_length_b 13.83170
_cell_length_c 15.34420
_cell_angle_alpha 90.00000
_cell_angle_beta  93.43600
_cell_angle_gamma 90.00000
_space_group_name_H-M_alt      'P 1'


loop_
_space_group_symop_operation_xyz
  'x, y, z' 

loop_
_atom_site_label
_atom_site_fract_x
_atom_site_fract_y
_atom_site_fract_z
_atom_site_type_symbol
C       0.0032   0.7653   0.7248     C
H       0.0143   0.7353   0.8538     H
C       0.0188   0.6971   0.8003     C
Ho      0.0427  0.11134  0.41439    Ho
C       0.0463   0.5039   0.8775     C
H       0.0508   0.4628   0.8265     H
H        0.052   0.4628   0.9288     H
O       0.0651   0.7511   0.6572     O
O       0.0783   0.1633   0.2696     O
H       0.0909   0.4023   0.0744     H
C       0.0921   0.4425   0.1271     C
C        0.103    0.373   0.2029     C
H       0.1048   0.4091   0.2572     H
O       0.1056   0.0372   0.5485     O
C       0.1598   0.6423   0.8059     C
O         0.16   0.9698   0.3652     O
H       0.1642   0.6111    0.935     H
O       0.1655   0.9551   0.6649     O
C       0.1691   0.5729   0.8815     C
H       0.1698   0.6069   0.7521     H
H       0.1899   0.3371   0.2017     H
C       0.1932   0.0184    0.612     C
O       0.2056   0.5947   0.1011     O
C       0.2189   0.5086   0.1225     C
H       0.2359   0.6885   0.8124     H
H       0.2641   0.1885   0.6876     H
C       0.2811   0.0086   0.3775     C
O       0.2944   0.0947   0.3989     O
C       0.3068   0.5184    0.888     C
H       0.3101   0.8371   0.2983     H
H       0.3302   0.1069   0.7479     H
C       0.3309   0.0729   0.6185     C
O       0.3345   0.4551   0.8351     O
H       0.3358   0.1111    0.565     H
O         0.34   0.4698   0.1348     O
C       0.3402   0.1423   0.6941     C
O       0.3944   0.5372   0.9515     O
H       0.3952   0.9091   0.2428     H
C        0.397    0.873   0.2971     C
C       0.4079   0.9425   0.3729     C
H       0.4091   0.9023   0.4256     H
O       0.4217   0.6633   0.2304     O
O       0.4349   0.2511   0.8428     O
H        0.448   0.9628   0.5712     H
H       0.4492   0.9628   0.6735     H
C       0.4537   0.0039   0.6225     C
Ho      0.4573  0.61134  0.08561    Ho
C       0.4812   0.1971   0.6997     C
H       0.4857   0.2353   0.6462     H
C       0.4968   0.2653   0.7752     C
C       0.5032   0.7347   0.2248     C
H       0.5143   0.7647   0.3538     H
C       0.5188   0.8029   0.3003     C
Ho      0.5427  0.38866  0.91439    Ho
C       0.5463   0.9961   0.3775     C
H       0.5508   0.0372   0.3265     H
H        0.552   0.0372   0.4288     H
O       0.5651   0.7489   0.1572     O
O       0.5783   0.3367   0.7696     O
H       0.5909   0.0977   0.5744     H
C       0.5921   0.0575   0.6271     C
C        0.603    0.127   0.7029     C
H       0.6048   0.0909   0.7572     H
O       0.6056   0.4628   0.0485     O
C       0.6598   0.8577   0.3059     C
O         0.66   0.5302   0.8652     O
H       0.6642   0.8889    0.435     H
O       0.6655   0.5449   0.1649     O
C       0.6691   0.9271   0.3815     C
H       0.6698   0.8931   0.2521     H
H       0.6899   0.1629   0.7017     H
C       0.6932   0.4816    0.112     C
O       0.7056   0.9053   0.6011     O
C       0.7189   0.9914   0.6225     C
H       0.7359   0.8115   0.3124     H
H       0.7641   0.3115   0.1876     H
C       0.7811   0.4914   0.8775     C
O       0.7944   0.4053   0.8989     O
C       0.8068   0.9816    0.388     C
H       0.8101   0.6629   0.7983     H
H       0.8302   0.3931   0.2479     H
C       0.8309   0.4271   0.1185     C
O       0.8345   0.0449   0.3351     O
H       0.8358   0.3889    0.065     H
O         0.84   0.0302   0.6348     O
C       0.8402   0.3577   0.1941     C
O       0.8944   0.9628   0.4515     O
H       0.8952   0.5909   0.7428     H
C        0.897    0.627   0.7971     C
C       0.9079   0.5575   0.8729     C
H       0.9091   0.5977   0.9256     H
O       0.9217   0.8367   0.7304     O
O       0.9349   0.2489   0.3428     O
H        0.948   0.5372   0.0712     H
H       0.9492   0.5372   0.1735     H
C       0.9537   0.4961   0.1225     C
Ho      0.9573  0.88866  0.58561    Ho
C       0.9812   0.3029   0.1997     C
H       0.9857   0.2647   0.1462     H
C       0.9968   0.2347   0.2752     C
