data_I
_chemical_name_common  '/home/zhangsd/repos/MofS-CGCNN/ML/data/TSD/clean_cifs/COWMUX_clean'
_cell_length_a  9.54300
_cell_length_b 13.82150
_cell_length_c 15.29930
_cell_angle_alpha 90.00000
_cell_angle_beta  93.38800
_cell_angle_gamma 90.00000
_space_group_name_H-M_alt      'P 1'


loop_
_space_group_symop_operation_xyz
  'x, y, z' 

loop_
_atom_site_label
_atom_site_fract_x
_atom_site_fract_y
_atom_site_fract_z
_atom_site_type_symbol
C       0.0033   0.7334   0.7237     C
H       0.0151   0.7649   0.8546     H
C       0.0202   0.8028   0.8007     C
Tm     0.04323  0.38863  0.41444    Tm
C       0.0468   0.9959   0.8777     C
H       0.0521   0.0375   0.9289     H
H       0.0532   0.0365   0.8264     H
O       0.0669   0.7472   0.6563     O
O       0.0794   0.3369   0.2699     O
H       0.0931    0.097   0.0751     H
C       0.0936   0.0565   0.1277     C
O       0.1058   0.4615   0.5472     O
C       0.1062   0.1272   0.2052     C
H       0.1076   0.0916   0.2599     H
O       0.1594   0.5284   0.3653     O
C       0.1601   0.8576   0.8059     C
O       0.1623   0.5436   0.6638     O
H       0.1626   0.8881   0.9367     H
C       0.1686   0.9265   0.8832     C
H       0.1692   0.8938   0.7522     H
C       0.1924   0.4797   0.6111     C
H       0.1931   0.1635   0.2037     H
O       0.2064   0.9047   0.1014     O
C       0.2189   0.9915   0.1228     C
H        0.237   0.8118   0.8117     H
H        0.263   0.3118   0.6883     H
C       0.2811   0.4915   0.3772     C
O       0.2936   0.4047   0.3986     O
H       0.3069   0.6635   0.2963     H
C       0.3076   0.9797   0.8889     C
H       0.3308   0.3938   0.7478     H
C       0.3314   0.4265   0.6168     C
H       0.3374   0.3881   0.5633     H
O       0.3377   0.0436   0.8362     O
C       0.3399   0.3576   0.6941     C
O       0.3406   0.0284   0.1347     O
H       0.3924   0.5916   0.2401     H
C       0.3938   0.6272   0.2948     C
O       0.3942   0.9615   0.9528     O
C       0.4064   0.5565   0.3723     C
H       0.4069    0.597   0.4249     H
O       0.4206   0.8369   0.2301     O
O       0.4331   0.2472   0.8437     O
H       0.4468   0.5365   0.6736     H
H       0.4479   0.5375   0.5711     H
C       0.4532   0.4959   0.6223     C
Tm     0.45677  0.88863  0.08556    Tm
C       0.4798   0.3028   0.6993     C
H       0.4849   0.2649   0.6454     H
C       0.4967   0.2334   0.7763     C
C       0.5033   0.7666   0.2237     C
H       0.5151   0.7351   0.3546     H
C       0.5202   0.6972   0.3007     C
Tm     0.54323  0.11137  0.91444    Tm
C       0.5468   0.5041   0.3777     C
H       0.5521   0.4625   0.4289     H
H       0.5532   0.4635   0.3264     H
O       0.5669   0.7528   0.1563     O
O       0.5794   0.1631   0.7699     O
H       0.5931    0.403   0.5751     H
C       0.5936   0.4435   0.6277     C
O       0.6058   0.0385   0.0472     O
C       0.6062   0.3728   0.7052     C
H       0.6076   0.4084   0.7599     H
O       0.6594   0.9716   0.8653     O
C       0.6601   0.6424   0.3059     C
O       0.6623   0.9564   0.1638     O
H       0.6626   0.6119   0.4367     H
C       0.6686   0.5735   0.3832     C
H       0.6692   0.6062   0.2522     H
C       0.6924   0.0203   0.1111     C
H       0.6931   0.3365   0.7037     H
O       0.7064   0.5953   0.6014     O
C       0.7189   0.5085   0.6228     C
H        0.737   0.6882   0.3117     H
H        0.763   0.1882   0.1883     H
C       0.7811   0.0085   0.8772     C
O       0.7936   0.0953   0.8986     O
H       0.8069   0.8365   0.7963     H
C       0.8076   0.5203   0.3889     C
H       0.8308   0.1062   0.2478     H
C       0.8314   0.0735   0.1168     C
H       0.8374   0.1119   0.0633     H
O       0.8377   0.4564   0.3362     O
C       0.8399   0.1424   0.1941     C
O       0.8406   0.4716   0.6347     O
H       0.8924   0.9084   0.7401     H
C       0.8938   0.8728   0.7948     C
O       0.8942   0.5385   0.4528     O
C       0.9064   0.9435   0.8723     C
H       0.9069    0.903   0.9249     H
O       0.9206   0.6631   0.7301     O
O       0.9331   0.2528   0.3437     O
H       0.9468   0.9635   0.1736     H
H       0.9479   0.9625   0.0711     H
C       0.9532   0.0041   0.1223     C
Tm     0.95677  0.61137  0.58556    Tm
C       0.9798   0.1972   0.1993     C
H       0.9849   0.2351   0.1454     H
C       0.9967   0.2666   0.2763     C
