data_I
_chemical_name_common  '/home/zhangsd/repos/MofS-CGCNN/ML/data/TSD/clean_cifs/COWREN_clean'
_cell_length_a 16.70330
_cell_length_b 20.01950
_cell_length_c 17.46020
_cell_angle_alpha 90.00000
_cell_angle_beta  100.42300
_cell_angle_gamma 90.00000
_space_group_name_H-M_alt      'P 1'


loop_
_space_group_symop_operation_xyz
  'x, y, z' 

loop_
_atom_site_label
_atom_site_fract_x
_atom_site_fract_y
_atom_site_fract_z
_atom_site_type_symbol
H       0.0003   0.9312   0.4381     H
C       0.0021   0.9693   0.2571     C
C       0.0041   0.0752   0.6152     C
C       0.0045   0.3073   0.5258     C
O       0.0056   0.2397   0.1698     O
H       0.0085   0.4619   0.2542     H
C       0.0097   0.7039   0.5551     C
H       0.0108    0.005   0.2256     H
H       0.0127   0.3467   0.2381     H
C       0.0136   0.9772   0.3375     C
O       0.0137    0.586   0.2161     O
C       0.0138   0.6267   0.8023     C
O       0.0139   0.1065    0.035     O
C       0.0159   0.5577   0.7924     C
H       0.0167   0.6278   0.3903     H
H       0.0208   0.7551   0.0983     H
O       0.0215   0.2341    0.338     O
C       0.0225   0.0924   0.7761     C
C       0.0255    0.236   0.4113     C
C       0.0257   0.6353   0.4438     C
C       0.0283   0.1366   0.6483     C
H        0.031   0.0981   0.8298     H
H        0.034   0.2763   0.5592     H
C       0.0342   0.1451   0.7274     C
Co     0.03884  0.16495  0.25465    Co
H       0.0404   0.1717   0.6174     H
C        0.044   0.7311   0.8798     C
C       0.0466   0.7499   0.2164     C
C       0.0509   0.6564   0.8721     C
S      0.05103  0.22638  0.76788     S
C        0.053   0.0386    0.376     C
C       0.0545   0.6574    0.605     C
O       0.0548   0.0993   0.1642     O
O       0.0549   0.5003   0.3838     O
C       0.0555    0.519   0.8538     C
S      0.05563  0.43119  0.84144     S
O       0.0575   0.1927   0.4604     O
C       0.0617   0.7457   0.1406     C
H       0.0645    0.665   0.6584     H
C       0.0663    0.094    0.095     C
O       0.0663    0.401    0.918     O
C       0.0688     0.59   0.4943     C
O       0.0718   0.0398   0.4487     O
O       0.0721   0.0859   0.3343     O
O       0.0736   0.2692   0.7087     O
O       0.0824   0.8627    0.749     O
C       0.0838   0.6007   0.5758     C
Co     0.08689  0.85655  0.94263    Co
O       0.0894   0.7582   0.9375     O
C       0.0918   0.6162   0.9323     C
C       0.0938   0.5479   0.9235     C
H       0.0944    0.741   0.3313     H
H       0.0949   0.4443   0.6907     H
O        0.103   0.2213   0.8434     O
S      0.10372  0.51533  0.45888     S
C       0.1062   0.7379   0.2813     C
O       0.1124   0.4666    0.521     O
H       0.1132   0.5695   0.6092     H
H       0.1147   0.0485   0.9672     H
H       0.1178   0.6358   0.9785     H
H         0.12   0.4916   0.1386     H
H       0.1205   0.5213   0.9638     H
H       0.1253   0.5682   0.1575     H
C       0.1383   0.7273   0.1291     C
C       0.1421   0.4289   0.7224     C
C       0.1429   0.8835   0.7949     C
C        0.143   0.4161   0.8006     C
Co     0.14356  0.12542  0.44473    Co
C       0.1474   0.0724   0.0822     C
O       0.1488   0.8946   0.8678     O
H       0.1493   0.7228    0.079     H
C       0.1561   0.5278   0.1567     C
C       0.1588   0.0501   0.0081     C
O       0.1614   0.1914   0.2625     O
H       0.1662   0.5599    0.328     H
H       0.1728   0.8648   0.6511     H
C       0.1835   0.7212     0.27     C
H       0.1847   0.5182   0.2083     H
C       0.1989   0.7155   0.1938     C
C       0.2013   0.5354   0.4423     C
H       0.2048   0.0871   0.1931     H
C       0.2108   0.5571   0.3683     C
H        0.211   0.3827   0.9006     H
C       0.2114   0.3919   0.8484     C
H       0.2116   0.4269   0.6394     H
C       0.2118   0.4186   0.6919     C
C       0.2127   0.0743   0.1438     C
O       0.2136   0.1834   0.3913     O
C       0.2176   0.1953   0.3203     C
C       0.2183    0.896   0.7606     C
C       0.2194   0.8816   0.6826     C
C       0.2225   0.5374   0.0974     C
H       0.2249   0.7137   0.3125     H
N       0.2334   0.0492   0.4343     N
C       0.2335    0.031   0.9961     C
H       0.2409   0.0154   0.9477     H
H       0.2591   0.5154   0.5523     H
C       0.2665    0.531   0.5039     C
N       0.2666   0.5492   0.0657     N
H       0.2751   0.2137   0.1875     H
C       0.2775   0.0374   0.4026     C
C       0.2806   0.3816   0.8174     C
C       0.2817    0.396   0.7394     C
C       0.2824   0.6953   0.1797     C
O       0.2864   0.6834   0.1087     O
C       0.2873   0.5743   0.3562     C
C       0.2882   0.9186   0.8081     C
H       0.2884   0.9269   0.8606     H
C       0.2886   0.8919   0.6516     C
H        0.289   0.8827   0.5994     H
C       0.2892   0.0571   0.1317     C
H       0.2952   0.5871   0.3069     H
C       0.2987   0.0354   0.0577     C
C       0.3011   0.2155   0.3062     C
H       0.3153   0.0182   0.2917     H
C       0.3165   0.2212     0.23     C
H       0.3272   0.3648   0.8489     H
H       0.3338   0.0599    0.172     H
O       0.3386   0.6914   0.2375     O
C       0.3412   0.5501   0.4919     C
C       0.3439   0.0278   0.3433     C
H       0.3507   0.2228    0.421     H
O       0.3512   0.3946   0.6322     O
C       0.3526   0.5724   0.4178     C
Co     0.35644  0.62542  0.05527    Co
C        0.357   0.9161   0.6994     C
C       0.3571   0.3835   0.7051     C
C       0.3579   0.9289   0.7776     C
C       0.3617   0.2273   0.3709     C
H       0.3747   0.0682   0.3425     H
H       0.3795   0.0213   0.5362     H
H         0.38   0.9916   0.3614     H
H       0.3822   0.1358   0.5215     H
H       0.3853   0.5485   0.5328     H
H       0.3868   0.0695   0.8908     H
O       0.3876   0.9666    0.979     O
C       0.3938   0.2379   0.2187     C
S      0.39628  0.01533  0.04112     S
O        0.397   0.7213   0.6566     O
H       0.4051   0.9443   0.8093     H
H       0.4056    0.241   0.1687     H
C       0.4062   0.0479   0.5765     C
C       0.4082   0.1162   0.5677     C
O       0.4106   0.2582   0.5625     O
Co     0.41311  0.35655  0.55737    Co
C       0.4162   0.1007   0.9242     C
O       0.4176   0.3627    0.751     O
O       0.4264   0.7692   0.7913     O
O       0.4279   0.5859   0.1657     O
O       0.4282   0.5398   0.0513     O
C       0.4312     0.09   0.0057     C
C       0.4337    0.594    0.405     C
O       0.4337    0.901    0.582     O
H       0.4355    0.165   0.8416     H
C       0.4383   0.2457   0.3594     C
O       0.4425   0.6927   0.0396     O
S      0.44437  0.93119  0.65856     S
C       0.4445    0.019   0.6462     C
O       0.4451   0.0003   0.1162     O
O       0.4452   0.5993   0.3358     O
C       0.4455   0.1574    0.895     C
C        0.447   0.5386    0.124     C
S      0.44897  0.72638  0.73212     S
C       0.4491   0.1564   0.6279     C
C       0.4534   0.2499   0.2836     C
C        0.456   0.2311   0.6202     C
H       0.4596   0.6717   0.8826     H
Co     0.46116  0.66495  0.24535    Co
C       0.4658   0.6451   0.7726     C
H        0.466   0.7763   0.9408     H
H        0.469   0.5981   0.6702     H
C       0.4717   0.6366   0.8517     C
C       0.4743   0.1353   0.0562     C
C       0.4745    0.736   0.0887     C
C       0.4775   0.5924   0.7239     C
O       0.4785   0.7341    0.162     O
H       0.4792   0.2551   0.4017     H
H       0.4833   0.1278   0.1097     H
C       0.4841   0.0577   0.7076     C
O       0.4861   0.6065    0.465     O
C       0.4862   0.1267   0.6977     C
O       0.4863    0.086   0.2839     O
C       0.4864   0.4772   0.1625     C
H       0.4873   0.8467   0.2619     H
H       0.4892    0.505   0.2744     H
C       0.4903   0.2039   0.9449     C
H       0.4915   0.9619   0.2458     H
O       0.4944   0.7397   0.3302     O
C       0.4955   0.8073   0.9742     C
C       0.4959   0.5752   0.8848     C
C       0.4979   0.4693   0.2429     C
H       0.4997   0.4312   0.0619     H
H       0.5003   0.5688   0.9381     H
C       0.5021   0.5307   0.7571     C
C       0.5041   0.4248   0.1152     C
C       0.5045   0.1927   0.0258     C
O       0.5056   0.2603   0.6698     O
H       0.5085   0.0381   0.7542     H
C       0.5097   0.7961   0.0551     C
H       0.5108    0.495   0.7256     H
H       0.5127   0.1533   0.7381     H
C       0.5136   0.5228   0.8375     C
O       0.5137    0.914   0.7161     O
C       0.5138   0.8733   0.3023     C
O       0.5139   0.3935    0.535     O
C       0.5159   0.9423   0.2924     C
H       0.5167   0.8722   0.8903     H
H       0.5208   0.7449   0.5983     H
O       0.5215   0.2659    0.838     O
C       0.5225   0.4076   0.2761     C
C       0.5255    0.264   0.9113     C
C       0.5257   0.8647   0.9438     C
C       0.5283   0.3634   0.1483     C
H        0.531   0.4019   0.3298     H
H        0.534   0.2237   0.0592     H
C       0.5342   0.3549   0.2274     C
Co     0.53884  0.33505  0.75465    Co
H       0.5404   0.3283   0.1174     H
C        0.544   0.7689   0.3798     C
C       0.5466   0.7501   0.7164     C
C       0.5509   0.8436   0.3721     C
S      0.55103  0.27362  0.26788     S
C        0.553   0.4614    0.876     C
C       0.5545   0.8426    0.105     C
O       0.5548   0.4007   0.6642     O
O       0.5549   0.9997   0.8838     O
C       0.5555    0.981   0.3538     C
S      0.55563  0.06881  0.34144     S
O       0.5575   0.3073   0.9604     O
C       0.5617   0.7543   0.6406     C
H       0.5645    0.835   0.1584     H
O       0.5663    0.099    0.418     O
C       0.5663    0.406    0.595     C
C       0.5688     0.91   0.9943     C
O       0.5718   0.4602   0.9487     O
O       0.5721   0.4141   0.8343     O
O       0.5736   0.2308   0.2087     O
O       0.5824   0.6373    0.249     O
C       0.5838   0.8993   0.0758     C
Co     0.58689  0.64345  0.44263    Co
O       0.5894   0.7418   0.4375     O
C       0.5918   0.8838   0.4323     C
C       0.5938   0.9521   0.4235     C
H       0.5944    0.759   0.8313     H
H       0.5949   0.0557   0.1907     H
O        0.603   0.2787   0.3434     O
S      0.60372  0.98467  0.95888     S
C       0.6062   0.7621   0.7813     C
O       0.6124   0.0334    0.021     O
H       0.6132   0.9305   0.1092     H
H       0.6147   0.4515   0.4672     H
H       0.6178   0.8642   0.4785     H
H         0.62   0.0084   0.6386     H
H       0.6205   0.9787   0.4638     H
H       0.6253   0.9318   0.6575     H
C       0.6383   0.7727   0.6291     C
C       0.6421   0.0711   0.2224     C
C       0.6429   0.6165   0.2949     C
C        0.643   0.0839   0.3006     C
Co     0.64356  0.37458  0.94473    Co
C       0.6474   0.4276   0.5822     C
O       0.6488   0.6054   0.3678     O
H       0.6493   0.7772    0.579     H
C       0.6561   0.9722   0.6567     C
C       0.6588   0.4499   0.5081     C
O       0.6614   0.3086   0.7625     O
H       0.6662   0.9401    0.828     H
H       0.6728   0.6352   0.1511     H
C       0.6835   0.7788     0.77     C
H       0.6847   0.9818   0.7083     H
C       0.6989   0.7845   0.6938     C
C       0.7013   0.9646   0.9423     C
H       0.7048   0.4129   0.6931     H
C       0.7108   0.9429   0.8683     C
H        0.711   0.1173   0.4006     H
C       0.7114   0.1081   0.3484     C
H       0.7116   0.0731   0.1394     H
C       0.7118   0.0814   0.1919     C
C       0.7127   0.4257   0.6438     C
O       0.7136   0.3166   0.8913     O
C       0.7176   0.3047   0.8203     C
C       0.7183    0.604   0.2606     C
C       0.7194   0.6184   0.1826     C
C       0.7225   0.9626   0.5974     C
H       0.7249   0.7863   0.8125     H
N       0.7334   0.4508   0.9343     N
C       0.7335    0.469   0.4961     C
H       0.7409   0.4846   0.4477     H
H       0.7591   0.9846   0.0523     H
C       0.7665    0.969   0.0039     C
N       0.7666   0.9508   0.5657     N
H       0.7751   0.2863   0.6875     H
C       0.7775   0.4626   0.9026     C
C       0.7806   0.1184   0.3174     C
C       0.7817    0.104   0.2394     C
C       0.7824   0.8047   0.6797     C
O       0.7864   0.8166   0.6087     O
C       0.7873   0.9257   0.8562     C
C       0.7882   0.5814   0.3081     C
H       0.7884   0.5731   0.3606     H
C       0.7886   0.6081   0.1516     C
H        0.789   0.6173   0.0994     H
C       0.7892   0.4429   0.6317     C
H       0.7952   0.9129   0.8069     H
C       0.7987   0.4646   0.5577     C
C       0.8011   0.2845   0.8062     C
H       0.8153   0.4818   0.7917     H
C       0.8165   0.2788     0.73     C
H       0.8272   0.1352   0.3489     H
H       0.8338   0.4401    0.672     H
O       0.8386   0.8086   0.7375     O
C       0.8412   0.9499   0.9919     C
C       0.8439   0.4722   0.8433     C
H       0.8507   0.2772    0.921     H
O       0.8512   0.1054   0.1322     O
C       0.8526   0.9276   0.9178     C
Co     0.85644  0.87458  0.55527    Co
C        0.857   0.5839   0.1994     C
C       0.8571   0.1165   0.2051     C
C       0.8579   0.5711   0.2776     C
C       0.8617   0.2727   0.8709     C
H       0.8747   0.4318   0.8425     H
H       0.8795   0.4787   0.0362     H
H         0.88   0.5084   0.8614     H
H       0.8822   0.3642   0.0215     H
H       0.8853   0.9515   0.0328     H
H       0.8868   0.4305   0.3908     H
O       0.8876   0.5334    0.479     O
C       0.8938   0.2621   0.7187     C
S      0.89628  0.48467  0.54112     S
O        0.897   0.7787   0.1566     O
H       0.9051   0.5557   0.3093     H
H       0.9056    0.259   0.6687     H
C       0.9062   0.4521   0.0765     C
C       0.9082   0.3838   0.0677     C
O       0.9106   0.2418   0.0625     O
Co     0.91311  0.14345  0.05737    Co
C       0.9162   0.3993   0.4242     C
O       0.9176   0.1373    0.251     O
O       0.9264   0.7308   0.2913     O
O       0.9279   0.9141   0.6657     O
O       0.9282   0.9602   0.5513     O
C       0.9312     0.41   0.5057     C
O       0.9337    0.599    0.082     O
C       0.9337    0.906    0.905     C
H       0.9355    0.335   0.3416     H
C       0.9383   0.2543   0.8594     C
O       0.9425   0.8073   0.5396     O
S      0.94437  0.56881  0.15856     S
C       0.9445    0.481   0.1462     C
O       0.9451   0.4997   0.6162     O
O       0.9452   0.9007   0.8358     O
C       0.9455   0.3426    0.395     C
C        0.947   0.9614    0.624     C
S      0.94897  0.77362  0.23212     S
C       0.9491   0.3436   0.1279     C
C       0.9534   0.2501   0.7836     C
C        0.956   0.2689   0.1202     C
H       0.9596   0.8283   0.3826     H
Co     0.96116  0.83505  0.74535    Co
C       0.9658   0.8549   0.2726     C
H        0.966   0.7237   0.4408     H
H        0.969   0.9019   0.1702     H
C       0.9717   0.8634   0.3517     C
C       0.9743   0.3647   0.5562     C
C       0.9745    0.764   0.5887     C
C       0.9775   0.9076   0.2239     C
O       0.9785   0.7659    0.662     O
H       0.9792   0.2449   0.9017     H
H       0.9833   0.3722   0.6097     H
C       0.9841   0.4423   0.2076     C
O       0.9861   0.8935    0.965     O
C       0.9862   0.3733   0.1977     C
O       0.9863    0.414   0.7839     O
C       0.9864   0.0228   0.6625     C
H       0.9873   0.6533   0.7619     H
H       0.9892    0.995   0.7744     H
C       0.9903   0.2961   0.4449     C
H       0.9915   0.5381   0.7458     H
O       0.9944   0.7603   0.8302     O
C       0.9955   0.6927   0.4742     C
C       0.9959   0.9248   0.3848     C
C       0.9979   0.0307   0.7429     C
H       0.9997   0.0688   0.5619     H
