data_I
_chemical_name_common  '/home/zhangsd/repos/MofS-CGCNN/ML/data/TSD/clean_cifs/COXCUP_clean'
_cell_length_a 26.20920
_cell_length_b 11.62780
_cell_length_c 16.11670
_cell_angle_alpha 90.00000
_cell_angle_beta  122.49000
_cell_angle_gamma 90.00000
_space_group_name_H-M_alt      'P 1'


loop_
_space_group_symop_operation_xyz
  'x, y, z' 

loop_
_atom_site_label
_atom_site_fract_x
_atom_site_fract_y
_atom_site_fract_z
_atom_site_type_symbol
Cu         0.0  0.10876     0.75    Cu
Cu         0.0  0.32252     0.25    Cu
Cu         0.0  0.67748     0.75    Cu
Cu         0.0  0.89124     0.25    Cu
H       0.0064   0.2563   0.4264     H
H       0.0064   0.7437   0.9264     H
N      0.01433   0.1924   0.5866     N
N      0.01433   0.8076   0.0866     N
N      0.03869   0.1981   0.6868     N
N      0.03869   0.8019   0.1868     N
H       0.0441   0.1405   0.4492     H
H       0.0441   0.8595   0.9492     H
C       0.0466   0.2211   0.4707     C
C       0.0466   0.7789   0.9707     C
C       0.0582   0.2192   0.5723     C
C       0.0582   0.7808   0.0723     C
H       0.0615   0.1202   0.2109     H
H       0.0615   0.8798   0.7109     H
Cu     0.06794  0.14612  0.00811    Cu
Cu     0.06794  0.85388  0.50811    Cu
N      0.07487   0.0177   0.8537     N
N      0.07487   0.9823   0.3537     N
N       0.0759   0.3226   0.3661     N
N       0.0759   0.6774   0.8661     N
H        0.089   0.0026   0.2012     H
H        0.089   0.9974   0.7012     H
C       0.0909   0.2825   0.4554     C
C       0.0909   0.7175   0.9554     C
C        0.096   0.2275   0.7267     C
C        0.096   0.7725   0.2267     C
C       0.0989   0.0734   0.2411     C
C       0.0989   0.9266   0.7411     C
N      0.10266   0.0375    0.953     N
N      0.10266   0.9625    0.453     N
N       0.1107   0.2419   0.6582     N
N       0.1107   0.7581   0.1582     N
H       0.1108   0.4945   0.2843     H
H       0.1108   0.5055   0.7843     H
C       0.1144   0.0386   0.3416     C
C       0.1144   0.9614   0.8416     C
H       0.1167    0.258   0.8663     H
H       0.1167    0.742   0.3663     H
H       0.1181   0.3711   0.2478     H
H       0.1181   0.6289   0.7478     H
C       0.1288   0.3667   0.3822     C
C       0.1288   0.6333   0.8822     C
N      0.12977   0.1895   0.1447     N
N      0.12977   0.8105   0.6447     N
C        0.134   0.4226   0.3045     C
C        0.134   0.5774   0.8045     C
C       0.1393   0.2459   0.8345     C
C       0.1393   0.7541   0.3345     C
C       0.1447   0.1394   0.2317     C
C       0.1447   0.8606   0.7317     C
N      0.14843   0.3004    0.523     N
N      0.14843   0.6996    0.023     N
H       0.1553   0.3592   0.0592     H
H       0.1553   0.6408   0.5592     H
C       0.1577    0.009   0.4954     C
C       0.1577    0.991   0.9954     C
H       0.1643   0.3136   0.8447     H
H       0.1643   0.6864   0.3447     H
H       0.1653   0.1781    0.863     H
H       0.1653   0.8219    0.363     H
N      0.16742   0.0575   0.4287     N
N      0.16742   0.9425   0.9287     N
N       0.1731   0.3537   0.4757     N
N       0.1731   0.6463   0.9757     N
H       0.1766   0.4394   0.3301     H
H       0.1766   0.5606   0.8301     H
H       0.1826   0.0086   0.6388     H
H       0.1826   0.9914   0.1388     H
C       0.1829   0.2395   0.1668     C
C       0.1829   0.7605   0.6668     C
Cu     0.18773  0.26777   0.6723    Cu
Cu     0.18773  0.73223   0.1723    Cu
C       0.1904   0.3086   0.0968     C
C       0.1904   0.6914   0.5968     C
H       0.1935   0.2571   0.0517     H
H       0.1935   0.7429   0.5517     H
N      0.20167   0.1557   0.3014     N
N      0.20167   0.8443   0.8014     N
C       0.2032   0.0132   0.6032     C
C       0.2032   0.9868   0.1032     C
H       0.2259   0.0855   0.6196     H
H       0.2259   0.9145   0.1196     H
N      0.22665   0.2198   0.2597     N
N      0.22665   0.7802   0.7597     N
H       0.2272   0.3551   0.1333     H
H       0.2272   0.6449   0.6333     H
H       0.2312   0.0517    0.122     H
H       0.2312   0.9483    0.622     H
Cu     0.24229  0.11737  0.44998    Cu
Cu     0.24229  0.88263  0.94998    Cu
Cu     0.25771  0.38263  0.55002    Cu
Cu     0.25771  0.61737  0.05002    Cu
H       0.2688   0.4483    0.878     H
H       0.2688   0.5517    0.378     H
H       0.2728   0.1449   0.8667     H
H       0.2728   0.8551   0.3667     H
N      0.27335   0.2802   0.7403     N
N      0.27335   0.7198   0.2403     N
H       0.2741   0.4145   0.3804     H
H       0.2741   0.5855   0.8804     H
C       0.2968   0.4868   0.3968     C
C       0.2968   0.5132   0.8968     C
N      0.29833   0.3443   0.6986     N
N      0.29833   0.6557   0.1986     N
H       0.3065   0.2429   0.9483     H
H       0.3065   0.7571   0.4483     H
C       0.3096   0.1914   0.9032     C
C       0.3096   0.8086   0.4032     C
Cu     0.31227  0.23223   0.3277    Cu
Cu     0.31227  0.76777   0.8277    Cu
C       0.3171   0.2605   0.8332     C
C       0.3171   0.7395   0.3332     C
H       0.3174   0.4914   0.3612     H
H       0.3174   0.5086   0.8612     H
H       0.3234   0.0606   0.6699     H
H       0.3234   0.9394   0.1699     H
N       0.3269   0.1463   0.5243     N
N       0.3269   0.8537   0.0243     N
N      0.33258   0.4425   0.5713     N
N      0.33258   0.5575   0.0713     N
H       0.3347   0.3219    0.137     H
H       0.3347   0.6781    0.637     H
H       0.3357   0.1864   0.1553     H
H       0.3357   0.8136   0.6553     H
C       0.3423    0.491   0.5046     C
C       0.3423    0.509   0.0046     C
H       0.3447   0.1408   0.9408     H
H       0.3447   0.8592   0.4408     H
N      0.35157   0.1996    0.477     N
N      0.35157   0.8004    0.977     N
C       0.3553   0.3606   0.7683     C
C       0.3553   0.6394   0.2683     C
C       0.3607   0.2541   0.1655     C
C       0.3607   0.7459   0.6655     C
C        0.366   0.0774   0.6955     C
C        0.366   0.9226   0.1955     C
N      0.37023   0.3105   0.8553     N
N      0.37023   0.6895   0.3553     N
C       0.3712   0.1333   0.6178     C
C       0.3712   0.8667   0.1178     C
H       0.3819   0.1289   0.7522     H
H       0.3819   0.8711   0.2522     H
H       0.3833    0.242   0.1337     H
H       0.3833    0.758   0.6337     H
C       0.3856   0.4614   0.6584     C
C       0.3856   0.5386   0.1584     C
H       0.3892   0.0055   0.7157     H
H       0.3892   0.9945   0.2157     H
N       0.3893   0.2581   0.3418     N
N       0.3893   0.7419   0.8418     N
N      0.39734   0.4625    0.047     N
N      0.39734   0.5375    0.547     N
C       0.4011   0.4266   0.7589     C
C       0.4011   0.5734   0.2589     C
C        0.404   0.2725   0.2733     C
C        0.404   0.7275   0.7733     C
C       0.4091   0.2175   0.5446     C
C       0.4091   0.7825   0.0446     C
H        0.411   0.4974   0.7988     H
H        0.411   0.5026   0.2988     H
N       0.4241   0.1774   0.6339     N
N       0.4241   0.8226   0.1339     N
N      0.42513   0.4823   0.1463     N
N      0.42513   0.5177   0.6463     N
Cu     0.43206  0.35388  0.99189    Cu
Cu     0.43206  0.64612  0.49189    Cu
H       0.4385   0.3798   0.7891     H
H       0.4385   0.6202   0.2891     H
C       0.4418   0.2808   0.4277     C
C       0.4418   0.7192   0.9277     C
C       0.4534   0.2789   0.5293     C
C       0.4534   0.7211   0.0293     C
H       0.4559   0.3595   0.5508     H
H       0.4559   0.6405   0.0508     H
N      0.46131   0.3019   0.3132     N
N      0.46131   0.6981   0.8132     N
N      0.48567   0.3076   0.4134     N
N      0.48567   0.6924   0.9134     N
H       0.4936   0.2437   0.5736     H
H       0.4936   0.7563   0.0736     H
Cu         0.5  0.17748     0.75    Cu
Cu         0.5  0.39124     0.25    Cu
Cu         0.5  0.60876     0.75    Cu
Cu         0.5  0.82252     0.25    Cu
H       0.5064   0.2437   0.9264     H
H       0.5064   0.7563   0.4264     H
N      0.51433   0.3076   0.0866     N
N      0.51433   0.6924   0.5866     N
N      0.53869   0.3019   0.1868     N
N      0.53869   0.6981   0.6868     N
H       0.5441   0.3595   0.9492     H
H       0.5441   0.6405   0.4492     H
C       0.5466   0.2789   0.9707     C
C       0.5466   0.7211   0.4707     C
C       0.5582   0.2808   0.0723     C
C       0.5582   0.7192   0.5723     C
H       0.5615   0.3798   0.7109     H
H       0.5615   0.6202   0.2109     H
Cu     0.56794  0.35388  0.50811    Cu
Cu     0.56794  0.64612  0.00811    Cu
N      0.57487   0.4823   0.3537     N
N      0.57487   0.5177   0.8537     N
N       0.5759   0.1774   0.8661     N
N       0.5759   0.8226   0.3661     N
H        0.589   0.4974   0.7012     H
H        0.589   0.5026   0.2012     H
C       0.5909   0.2175   0.9554     C
C       0.5909   0.7825   0.4554     C
C        0.596   0.2725   0.2267     C
C        0.596   0.7275   0.7267     C
C       0.5989   0.4266   0.7411     C
C       0.5989   0.5734   0.2411     C
N      0.60266   0.4625    0.453     N
N      0.60266   0.5375    0.953     N
N       0.6107   0.2581   0.1582     N
N       0.6107   0.7419   0.6582     N
H       0.6108   0.0055   0.7843     H
H       0.6108   0.9945   0.2843     H
C       0.6144   0.4614   0.8416     C
C       0.6144   0.5386   0.3416     C
H       0.6167    0.242   0.3663     H
H       0.6167    0.758   0.8663     H
H       0.6181   0.1289   0.7478     H
H       0.6181   0.8711   0.2478     H
C       0.6288   0.1333   0.8822     C
C       0.6288   0.8667   0.3822     C
N      0.62977   0.3105   0.6447     N
N      0.62977   0.6895   0.1447     N
C        0.634   0.0774   0.8045     C
C        0.634   0.9226   0.3045     C
C       0.6393   0.2541   0.3345     C
C       0.6393   0.7459   0.8345     C
C       0.6447   0.3606   0.7317     C
C       0.6447   0.6394   0.2317     C
N      0.64843   0.1996    0.023     N
N      0.64843   0.8004    0.523     N
H       0.6553   0.1408   0.5592     H
H       0.6553   0.8592   0.0592     H
C       0.6577    0.491   0.9954     C
C       0.6577    0.509   0.4954     C
H       0.6643   0.1864   0.3447     H
H       0.6643   0.8136   0.8447     H
H       0.6653   0.3219    0.363     H
H       0.6653   0.6781    0.863     H
N      0.66742   0.4425   0.9287     N
N      0.66742   0.5575   0.4287     N
N       0.6731   0.1463   0.9757     N
N       0.6731   0.8537   0.4757     N
H       0.6766   0.0606   0.8301     H
H       0.6766   0.9394   0.3301     H
H       0.6826   0.4914   0.1388     H
H       0.6826   0.5086   0.6388     H
C       0.6829   0.2605   0.6668     C
C       0.6829   0.7395   0.1668     C
Cu     0.68773  0.23223   0.1723    Cu
Cu     0.68773  0.76777   0.6723    Cu
C       0.6904   0.1914   0.5968     C
C       0.6904   0.8086   0.0968     C
H       0.6935   0.2429   0.5517     H
H       0.6935   0.7571   0.0517     H
N      0.70167   0.3443   0.8014     N
N      0.70167   0.6557   0.3014     N
C       0.7032   0.4868   0.1032     C
C       0.7032   0.5132   0.6032     C
H       0.7259   0.4145   0.1196     H
H       0.7259   0.5855   0.6196     H
N      0.72665   0.2802   0.7597     N
N      0.72665   0.7198   0.2597     N
H       0.7272   0.1449   0.6333     H
H       0.7272   0.8551   0.1333     H
H       0.7312   0.4483    0.622     H
H       0.7312   0.5517    0.122     H
Cu     0.74229  0.38263  0.94998    Cu
Cu     0.74229  0.61737  0.44998    Cu
Cu     0.75771  0.11737  0.05002    Cu
Cu     0.75771  0.88263  0.55002    Cu
H       0.7688   0.0517    0.378     H
H       0.7688   0.9483    0.878     H
H       0.7728   0.3551   0.3667     H
H       0.7728   0.6449   0.8667     H
N      0.77335   0.2198   0.2403     N
N      0.77335   0.7802   0.7403     N
H       0.7741   0.0855   0.8804     H
H       0.7741   0.9145   0.3804     H
C       0.7968   0.0132   0.8968     C
C       0.7968   0.9868   0.3968     C
N      0.79833   0.1557   0.1986     N
N      0.79833   0.8443   0.6986     N
H       0.8065   0.2571   0.4483     H
H       0.8065   0.7429   0.9483     H
C       0.8096   0.3086   0.4032     C
C       0.8096   0.6914   0.9032     C
Cu     0.81227  0.26777   0.8277    Cu
Cu     0.81227  0.73223   0.3277    Cu
C       0.8171   0.2395   0.3332     C
C       0.8171   0.7605   0.8332     C
H       0.8174   0.0086   0.8612     H
H       0.8174   0.9914   0.3612     H
H       0.8234   0.4394   0.1699     H
H       0.8234   0.5606   0.6699     H
N       0.8269   0.3537   0.0243     N
N       0.8269   0.6463   0.5243     N
N      0.83258   0.0575   0.0713     N
N      0.83258   0.9425   0.5713     N
H       0.8347   0.1781    0.637     H
H       0.8347   0.8219    0.137     H
H       0.8357   0.3136   0.6553     H
H       0.8357   0.6864   0.1553     H
C       0.8423    0.009   0.0046     C
C       0.8423    0.991   0.5046     C
H       0.8447   0.3592   0.4408     H
H       0.8447   0.6408   0.9408     H
N      0.85157   0.3004    0.977     N
N      0.85157   0.6996    0.477     N
C       0.8553   0.1394   0.2683     C
C       0.8553   0.8606   0.7683     C
C       0.8607   0.2459   0.6655     C
C       0.8607   0.7541   0.1655     C
C        0.866   0.4226   0.1955     C
C        0.866   0.5774   0.6955     C
N      0.87023   0.1895   0.3553     N
N      0.87023   0.8105   0.8553     N
C       0.8712   0.3667   0.1178     C
C       0.8712   0.6333   0.6178     C
H       0.8819   0.3711   0.2522     H
H       0.8819   0.6289   0.7522     H
H       0.8833    0.258   0.6337     H
H       0.8833    0.742   0.1337     H
C       0.8856   0.0386   0.1584     C
C       0.8856   0.9614   0.6584     C
H       0.8892   0.4945   0.2157     H
H       0.8892   0.5055   0.7157     H
N       0.8893   0.2419   0.8418     N
N       0.8893   0.7581   0.3418     N
N      0.89734   0.0375    0.547     N
N      0.89734   0.9625    0.047     N
C       0.9011   0.0734   0.2589     C
C       0.9011   0.9266   0.7589     C
C        0.904   0.2275   0.7733     C
C        0.904   0.7725   0.2733     C
C       0.9091   0.2825   0.0446     C
C       0.9091   0.7175   0.5446     C
H        0.911   0.0026   0.2988     H
H        0.911   0.9974   0.7988     H
N       0.9241   0.3226   0.1339     N
N       0.9241   0.6774   0.6339     N
N      0.92513   0.0177   0.6463     N
N      0.92513   0.9823   0.1463     N
Cu     0.93206  0.14612  0.49189    Cu
Cu     0.93206  0.85388  0.99189    Cu
H       0.9385   0.1202   0.2891     H
H       0.9385   0.8798   0.7891     H
C       0.9418   0.2192   0.9277     C
C       0.9418   0.7808   0.4277     C
C       0.9534   0.2211   0.0293     C
C       0.9534   0.7789   0.5293     C
H       0.9559   0.1405   0.0508     H
H       0.9559   0.8595   0.5508     H
N      0.96131   0.1981   0.8132     N
N      0.96131   0.8019   0.3132     N
N      0.98567   0.1924   0.9134     N
N      0.98567   0.8076   0.4134     N
H       0.9936   0.2563   0.0736     H
H       0.9936   0.7437   0.5736     H
