data_I
_chemical_name_common  '/home/zhangsd/repos/MofS-CGCNN/ML/data/TSD/clean_cifs/COXHIH_clean'
_cell_length_a 15.31050
_cell_length_b 15.31050
_cell_length_c 15.31050
_cell_angle_alpha 90.00000
_cell_angle_beta  90.00000
_cell_angle_gamma 90.00000
_space_group_name_H-M_alt      'P 1'


loop_
_space_group_symop_operation_xyz
  'x, y, z' 

loop_
_atom_site_label
_atom_site_fract_x
_atom_site_fract_y
_atom_site_fract_z
_atom_site_type_symbol
O      0.01036  0.13692  0.62416     O
O      0.01036  0.86308  0.87584     O
C      0.03577  0.21423    0.625     C
C      0.03577  0.78577    0.875     C
O      0.11308  0.23964  0.62584     O
O      0.11308  0.76036  0.87416     O
O      0.12416  0.48964  0.86308     O
O      0.12416  0.51036  0.63692     O
Ni       0.125    0.375    0.625    Ni
C        0.125  0.46423  0.78577     C
C        0.125  0.53577  0.71423     C
Ni       0.125    0.625    0.875    Ni
O      0.12584  0.38692  0.76036     O
O      0.12584  0.61308  0.73964     O
O      0.13692  0.37584  0.48964     O
O      0.13692  0.62416  0.01036     O
C      0.21423    0.375  0.46423     C
C      0.21423    0.625  0.03577     C
O      0.23964  0.37416  0.38692     O
O      0.23964  0.62584  0.11308     O
O      0.26036  0.37416  0.61308     O
O      0.26036  0.62584  0.88692     O
C      0.28577    0.375  0.53577     C
C      0.28577    0.625  0.96423     C
O      0.36308  0.37584  0.51036     O
O      0.36308  0.62416  0.98964     O
O      0.37416  0.38692  0.23964     O
O      0.37416  0.61308  0.26036     O
Ni       0.375    0.375    0.375    Ni
C        0.375  0.46423  0.21423     C
C        0.375  0.53577  0.28577     C
Ni       0.375    0.625    0.125    Ni
O      0.37584  0.48964  0.13692     O
O      0.37584  0.51036  0.36308     O
O      0.38692  0.23964  0.37416     O
O      0.38692  0.76036  0.12584     O
C      0.46423  0.21423    0.375     C
C      0.46423  0.78577    0.125     C
O      0.48964  0.13692  0.37584     O
O      0.48964  0.86308  0.12416     O
O      0.51036  0.36308  0.37584     O
O      0.51036  0.63692  0.12416     O
C      0.53577  0.28577    0.375     C
C      0.53577  0.71423    0.125     C
O      0.61308  0.26036  0.37416     O
O      0.61308  0.73964  0.12584     O
O      0.62416  0.01036  0.13692     O
O      0.62416  0.98964  0.36308     O
C        0.625  0.03577  0.21423     C
Ni       0.625    0.125    0.375    Ni
Ni       0.625    0.875    0.125    Ni
C        0.625  0.96423  0.28577     C
O      0.62584  0.11308  0.23964     O
O      0.62584  0.88692  0.26036     O
O      0.63692  0.12416  0.51036     O
O      0.63692  0.87584  0.98964     O
C      0.71423    0.125  0.53577     C
C      0.71423    0.875  0.96423     C
O      0.73964  0.12584  0.61308     O
O      0.73964  0.87416  0.88692     O
O      0.76036  0.12584  0.38692     O
O      0.76036  0.87416  0.11308     O
C      0.78577    0.125  0.46423     C
C      0.78577    0.875  0.03577     C
O      0.86308  0.12416  0.48964     O
O      0.86308  0.87584  0.01036     O
O      0.87416  0.11308  0.76036     O
O      0.87416  0.88692  0.73964     O
C        0.875  0.03577  0.78577     C
Ni       0.875    0.125    0.625    Ni
Ni       0.875    0.875    0.875    Ni
C        0.875  0.96423  0.71423     C
O      0.87584  0.01036  0.86308     O
O      0.87584  0.98964  0.63692     O
O      0.88692  0.26036  0.62584     O
O      0.88692  0.73964  0.87416     O
C      0.96423  0.28577    0.625     C
C      0.96423  0.71423    0.875     C
O      0.98964  0.36308  0.62416     O
O      0.98964  0.63692  0.87584     O
