data_I
_chemical_name_common  '/home/zhangsd/repos/MofS-CGCNN/ML/data/TSD/clean_cifs/CUKXAJ_clean'
_cell_length_a 20.74500
_cell_length_b  8.32550
_cell_length_c 17.34350
_cell_angle_alpha 90.00000
_cell_angle_beta  90.00000
_cell_angle_gamma 90.00000
_space_group_name_H-M_alt      'P 1'


loop_
_space_group_symop_operation_xyz
  'x, y, z' 

loop_
_atom_site_label
_atom_site_fract_x
_atom_site_fract_y
_atom_site_fract_z
_atom_site_type_symbol
Cd         0.0      0.5     0.25    Cd
Cd         0.0      0.5     0.75    Cd
O      0.03996   0.3243  0.16177     O
O      0.03996   0.3243  0.83823     O
O      0.03996   0.6757  0.33823     O
O      0.03996   0.6757  0.66177     O
H       0.0601    0.447      0.0     H
H       0.0601    0.553      0.5     H
C       0.0891   0.3987   0.1401     C
C       0.0891   0.3987   0.8599     C
C       0.0891   0.6013   0.3599     C
C       0.0891   0.6013   0.6401     C
C       0.0968   0.3829      0.0     C
C       0.0968   0.6171      0.5     C
O      0.10717   0.4692   0.3307     O
O      0.10717   0.4692   0.6693     O
O      0.10717   0.5308   0.1693     O
O      0.10717   0.5308   0.8307     O
C      0.12351   0.3362   0.0702     C
C      0.12351   0.3362   0.9298     C
C      0.12351   0.6638   0.4298     C
C      0.12351   0.6638   0.5702     C
C      0.17754   0.2348   0.0704     C
C      0.17754   0.2348   0.9296     C
C      0.17754   0.7652   0.4296     C
C      0.17754   0.7652   0.5704     C
O      0.18637   0.2384  0.20699     O
O      0.18637   0.2384  0.79301     O
O      0.18637   0.7616  0.29301     O
O      0.18637   0.7616  0.70699     O
Cd     0.20249      0.5     0.25    Cd
Cd     0.20249      0.5     0.75    Cd
C       0.2026   0.1831      0.0     C
C       0.2026   0.8169      0.5     C
C      0.20556   0.1768   0.1454     C
C      0.20556   0.1768   0.8546     C
C      0.20556   0.8232   0.3546     C
C      0.20556   0.8232   0.6454     C
H       0.2372   0.1119      0.0     H
H       0.2372   0.8881      0.5     H
O      0.24554   0.0647  0.14214     O
O      0.24554   0.0647  0.85786     O
O      0.24554   0.9353  0.35786     O
O      0.24554   0.9353  0.64214     O
O      0.25446   0.4353  0.35786     O
O      0.25446   0.4353  0.64214     O
O      0.25446   0.5647  0.14214     O
O      0.25446   0.5647  0.85786     O
H       0.2628   0.3881      0.5     H
H       0.2628   0.6119      0.0     H
C      0.29444   0.3232   0.3546     C
C      0.29444   0.3232   0.6454     C
C      0.29444   0.6768   0.1454     C
C      0.29444   0.6768   0.8546     C
C       0.2974   0.3169      0.5     C
C       0.2974   0.6831      0.0     C
Cd     0.29751      0.0     0.25    Cd
Cd     0.29751      0.0     0.75    Cd
O      0.31363   0.2616  0.29301     O
O      0.31363   0.2616  0.70699     O
O      0.31363   0.7384  0.20699     O
O      0.31363   0.7384  0.79301     O
C      0.32246   0.2652   0.4296     C
C      0.32246   0.2652   0.5704     C
C      0.32246   0.7348   0.0704     C
C      0.32246   0.7348   0.9296     C
C      0.37649   0.1638   0.4298     C
C      0.37649   0.1638   0.5702     C
C      0.37649   0.8362   0.0702     C
C      0.37649   0.8362   0.9298     C
O      0.39283   0.0308   0.1693     O
O      0.39283   0.0308   0.8307     O
O      0.39283   0.9692   0.3307     O
O      0.39283   0.9692   0.6693     O
C       0.4032   0.1171      0.5     C
C       0.4032   0.8829      0.0     C
C       0.4109   0.1013   0.3599     C
C       0.4109   0.1013   0.6401     C
C       0.4109   0.8987   0.1401     C
C       0.4109   0.8987   0.8599     C
H       0.4399    0.053      0.5     H
H       0.4399    0.947      0.0     H
O      0.46004   0.1757  0.33823     O
O      0.46004   0.1757  0.66177     O
O      0.46004   0.8243  0.16177     O
O      0.46004   0.8243  0.83823     O
Cd         0.5      0.0     0.25    Cd
Cd         0.5      0.0     0.75    Cd
O      0.53996   0.1757  0.16177     O
O      0.53996   0.1757  0.83823     O
O      0.53996   0.8243  0.33823     O
O      0.53996   0.8243  0.66177     O
H       0.5601    0.053      0.0     H
H       0.5601    0.947      0.5     H
C       0.5891   0.1013   0.1401     C
C       0.5891   0.1013   0.8599     C
C       0.5891   0.8987   0.3599     C
C       0.5891   0.8987   0.6401     C
C       0.5968   0.1171      0.0     C
C       0.5968   0.8829      0.5     C
O      0.60717   0.0308   0.3307     O
O      0.60717   0.0308   0.6693     O
O      0.60717   0.9692   0.1693     O
O      0.60717   0.9692   0.8307     O
C      0.62351   0.1638   0.0702     C
C      0.62351   0.1638   0.9298     C
C      0.62351   0.8362   0.4298     C
C      0.62351   0.8362   0.5702     C
C      0.67754   0.2652   0.0704     C
C      0.67754   0.2652   0.9296     C
C      0.67754   0.7348   0.4296     C
C      0.67754   0.7348   0.5704     C
O      0.68637   0.2616  0.20699     O
O      0.68637   0.2616  0.79301     O
O      0.68637   0.7384  0.29301     O
O      0.68637   0.7384  0.70699     O
Cd     0.70249      0.0     0.25    Cd
Cd     0.70249      0.0     0.75    Cd
C       0.7026   0.3169      0.0     C
C       0.7026   0.6831      0.5     C
C      0.70556   0.3232   0.1454     C
C      0.70556   0.3232   0.8546     C
C      0.70556   0.6768   0.3546     C
C      0.70556   0.6768   0.6454     C
H       0.7372   0.3881      0.0     H
H       0.7372   0.6119      0.5     H
O      0.74554   0.4353  0.14214     O
O      0.74554   0.4353  0.85786     O
O      0.74554   0.5647  0.35786     O
O      0.74554   0.5647  0.64214     O
O      0.75446   0.0647  0.35786     O
O      0.75446   0.0647  0.64214     O
O      0.75446   0.9353  0.14214     O
O      0.75446   0.9353  0.85786     O
H       0.7628   0.1119      0.5     H
H       0.7628   0.8881      0.0     H
C      0.79444   0.1768   0.3546     C
C      0.79444   0.1768   0.6454     C
C      0.79444   0.8232   0.1454     C
C      0.79444   0.8232   0.8546     C
C       0.7974   0.1831      0.5     C
C       0.7974   0.8169      0.0     C
Cd     0.79751      0.5     0.25    Cd
Cd     0.79751      0.5     0.75    Cd
O      0.81363   0.2384  0.29301     O
O      0.81363   0.2384  0.70699     O
O      0.81363   0.7616  0.20699     O
O      0.81363   0.7616  0.79301     O
C      0.82246   0.2348   0.4296     C
C      0.82246   0.2348   0.5704     C
C      0.82246   0.7652   0.0704     C
C      0.82246   0.7652   0.9296     C
C      0.87649   0.3362   0.4298     C
C      0.87649   0.3362   0.5702     C
C      0.87649   0.6638   0.0702     C
C      0.87649   0.6638   0.9298     C
O      0.89283   0.4692   0.1693     O
O      0.89283   0.4692   0.8307     O
O      0.89283   0.5308   0.3307     O
O      0.89283   0.5308   0.6693     O
C       0.9032   0.3829      0.5     C
C       0.9032   0.6171      0.0     C
C       0.9109   0.3987   0.3599     C
C       0.9109   0.3987   0.6401     C
C       0.9109   0.6013   0.1401     C
C       0.9109   0.6013   0.8599     C
H       0.9399    0.447      0.5     H
H       0.9399    0.553      0.0     H
O      0.96004   0.3243  0.33823     O
O      0.96004   0.3243  0.66177     O
O      0.96004   0.6757  0.16177     O
O      0.96004   0.6757  0.83823     O
