data_I
_chemical_name_common  '/home/zhangsd/repos/MofS-CGCNN/ML/data/TSD/clean_cifs/CUKXIR_clean'
_cell_length_a 19.10350
_cell_length_b  9.54300
_cell_length_c 17.67080
_cell_angle_alpha 90.00000
_cell_angle_beta  90.00000
_cell_angle_gamma 90.00000
_space_group_name_H-M_alt      'P 1'


loop_
_space_group_symop_operation_xyz
  'x, y, z' 

loop_
_atom_site_label
_atom_site_fract_x
_atom_site_fract_y
_atom_site_fract_z
_atom_site_type_symbol
Mn         0.0  0.07177     0.25    Mn
Mn         0.0  0.92823     0.75    Mn
O      0.06357   0.2239  0.30432     O
O      0.06357   0.7761  0.80432     O
O      0.07674   0.1631  0.56595     O
O      0.07674   0.8369  0.06595     O
H       0.0969   0.2061   0.4352     H
H       0.0969   0.7939   0.9352     H
C      0.12228   0.2803  0.29724     C
C      0.12228   0.7197  0.79724     C
C      0.12523   0.2465  0.57669     C
C      0.12523   0.7535  0.07669     C
C      0.13213   0.2732  0.43715     C
C      0.13213   0.7268  0.93715     C
O      0.14716  0.28207   0.6415     O
O      0.14716  0.71793   0.1415     O
O      0.15314  0.29933  0.23516     O
O      0.15314  0.70067  0.73516     O
C      0.15648   0.3296   0.3697     C
C      0.15648   0.6704   0.8697     C
C      0.15825   0.3127  0.50768     C
C      0.15825   0.6873  0.00768     C
O      0.20892  0.06073  0.76984     O
O      0.20892  0.93927  0.26984     O
C      0.20994   0.4306   0.3725     C
C      0.20994   0.5694   0.8725     C
C      0.21099   0.4146  0.51035     C
C      0.21099   0.5854  0.01035     C
O      0.21327  0.10893  0.11678     O
O      0.21327  0.89107  0.61678     O
O      0.21625  0.38328  0.78531     O
O      0.21625  0.61672  0.28531     O
O      0.22806  0.40891  0.10158     O
O      0.22806  0.59109  0.60158     O
H       0.2299   0.0409   0.4449     H
H       0.2299   0.9591   0.9449     H
C      0.23558   0.4724   0.4429     C
C      0.23558   0.5276   0.9429     C
C      0.24085   0.4996  0.80274     C
C      0.24085   0.5004  0.30274     C
Mn     0.24279   0.2336  0.69574    Mn
Mn     0.24279   0.7664  0.19574    Mn
C      0.24369   0.4681  0.58304     C
C      0.24369   0.5319  0.08304     C
C      0.25631   0.0319  0.08304     C
C      0.25631   0.9681  0.58304     C
Mn     0.25721   0.2664  0.19574    Mn
Mn     0.25721   0.7336  0.69574    Mn
C      0.25915   0.0004  0.30274     C
C      0.25915   0.9996  0.80274     C
C      0.26442   0.0276   0.9429     C
C      0.26442   0.9724   0.4429     C
H       0.2701   0.4591   0.9449     H
H       0.2701   0.5409   0.4449     H
O      0.27194  0.09109  0.60158     O
O      0.27194  0.90891  0.10158     O
O      0.28375  0.11672  0.28531     O
O      0.28375  0.88328  0.78531     O
O      0.28673  0.39107  0.61678     O
O      0.28673  0.60893  0.11678     O
C      0.28901   0.0854  0.01035     C
C      0.28901   0.9146  0.51035     C
C      0.29006   0.0694   0.8725     C
C      0.29006   0.9306   0.3725     C
O      0.29108  0.43927  0.26984     O
O      0.29108  0.56073  0.76984     O
C      0.34175   0.1873  0.00768     C
C      0.34175   0.8127  0.50768     C
C      0.34352   0.1704   0.8697     C
C      0.34352   0.8296   0.3697     C
O      0.34686  0.20067  0.73516     O
O      0.34686  0.79933  0.23516     O
O      0.35284  0.21793   0.1415     O
O      0.35284  0.78207   0.6415     O
C      0.36787   0.2268  0.93715     C
C      0.36787   0.7732  0.43715     C
C      0.37477   0.2535  0.07669     C
C      0.37477   0.7465  0.57669     C
C      0.37772   0.2197  0.79724     C
C      0.37772   0.7803  0.29724     C
H       0.4031   0.2939   0.9352     H
H       0.4031   0.7061   0.4352     H
O      0.42326   0.3369  0.06595     O
O      0.42326   0.6631  0.56595     O
O      0.43643   0.2761  0.80432     O
O      0.43643   0.7239  0.30432     O
Mn         0.5  0.42823     0.75    Mn
Mn         0.5  0.57177     0.25    Mn
O      0.56357   0.2761  0.69568     O
O      0.56357   0.7239  0.19568     O
O      0.57674   0.3369  0.43405     O
O      0.57674   0.6631  0.93405     O
H       0.5969   0.2939   0.5648     H
H       0.5969   0.7061   0.0648     H
C      0.62228   0.2197  0.70276     C
C      0.62228   0.7803  0.20276     C
C      0.62523   0.2535  0.42331     C
C      0.62523   0.7465  0.92331     C
C      0.63213   0.2268  0.56285     C
C      0.63213   0.7732  0.06285     C
O      0.64716  0.21793   0.3585     O
O      0.64716  0.78207   0.8585     O
O      0.65314  0.20067  0.76484     O
O      0.65314  0.79933  0.26484     O
C      0.65648   0.1704   0.6303     C
C      0.65648   0.8296   0.1303     C
C      0.65825   0.1873  0.49232     C
C      0.65825   0.8127  0.99232     C
O      0.70892  0.43927  0.23016     O
O      0.70892  0.56073  0.73016     O
C      0.70994   0.0694   0.6275     C
C      0.70994   0.9306   0.1275     C
C      0.71099   0.0854  0.48965     C
C      0.71099   0.9146  0.98965     C
O      0.71327  0.39107  0.88322     O
O      0.71327  0.60893  0.38322     O
O      0.71625  0.11672  0.21469     O
O      0.71625  0.88328  0.71469     O
O      0.72806  0.09109  0.89842     O
O      0.72806  0.90891  0.39842     O
H       0.7299   0.4591   0.5551     H
H       0.7299   0.5409   0.0551     H
C      0.73558   0.0276   0.5571     C
C      0.73558   0.9724   0.0571     C
C      0.74085   0.0004  0.19726     C
C      0.74085   0.9996  0.69726     C
Mn     0.74279   0.2664  0.30426    Mn
Mn     0.74279   0.7336  0.80426    Mn
C      0.74369   0.0319  0.41696     C
C      0.74369   0.9681  0.91696     C
C      0.75631   0.4681  0.91696     C
C      0.75631   0.5319  0.41696     C
Mn     0.75721   0.2336  0.80426    Mn
Mn     0.75721   0.7664  0.30426    Mn
C      0.75915   0.4996  0.69726     C
C      0.75915   0.5004  0.19726     C
C      0.76442   0.4724   0.0571     C
C      0.76442   0.5276   0.5571     C
H       0.7701   0.0409   0.0551     H
H       0.7701   0.9591   0.5551     H
O      0.77194  0.40891  0.39842     O
O      0.77194  0.59109  0.89842     O
O      0.78375  0.38328  0.71469     O
O      0.78375  0.61672  0.21469     O
O      0.78673  0.10893  0.38322     O
O      0.78673  0.89107  0.88322     O
C      0.78901   0.4146  0.98965     C
C      0.78901   0.5854  0.48965     C
C      0.79006   0.4306   0.1275     C
C      0.79006   0.5694   0.6275     C
O      0.79108  0.06073  0.73016     O
O      0.79108  0.93927  0.23016     O
C      0.84175   0.3127  0.99232     C
C      0.84175   0.6873  0.49232     C
C      0.84352   0.3296   0.1303     C
C      0.84352   0.6704   0.6303     C
O      0.84686  0.29933  0.26484     O
O      0.84686  0.70067  0.76484     O
O      0.85284  0.28207   0.8585     O
O      0.85284  0.71793   0.3585     O
C      0.86787   0.2732  0.06285     C
C      0.86787   0.7268  0.56285     C
C      0.87477   0.2465  0.92331     C
C      0.87477   0.7535  0.42331     C
C      0.87772   0.2803  0.20276     C
C      0.87772   0.7197  0.70276     C
H       0.9031   0.2061   0.0648     H
H       0.9031   0.7939   0.5648     H
O      0.92326   0.1631  0.93405     O
O      0.92326   0.8369  0.43405     O
O      0.93643   0.2239  0.19568     O
O      0.93643   0.7761  0.69568     O
