data_I
_chemical_name_common  '/home/zhangsd/repos/MofS-CGCNN/ML/data/TSD/clean_cifs/CUXFIL_clean'
_cell_length_a 12.28300
_cell_length_b 13.38600
_cell_length_c 13.93100
_cell_angle_alpha 102.14000
_cell_angle_beta  101.47000
_cell_angle_gamma 95.13000
_space_group_name_H-M_alt      'P 1'


loop_
_space_group_symop_operation_xyz
  'x, y, z' 

loop_
_atom_site_label
_atom_site_fract_x
_atom_site_fract_y
_atom_site_fract_z
_atom_site_type_symbol
Mn         0.0      0.0      0.0    Mn
Mn         0.0      0.5      0.5    Mn
O      0.02478  0.16153   0.0075     O
H       0.0262   0.3056   0.9125     H
H       0.0306   0.4242   0.7966     H
O      0.04018  0.51304  0.65669     O
O       0.0536  0.97462    0.855     O
O      0.06831  0.35285  0.47447     O
C       0.0697  0.23593  0.08111     C
C       0.0749  0.35663  0.96502     C
C       0.0804  0.47404  0.84937     C
Mn      0.0869  0.75711   0.6078    Mn
C      0.08693  0.58856  0.72932     C
O      0.08929  0.23406  0.17271     O
O      0.09946  0.89672  0.71669     O
Mn     0.10143  0.11659  0.24925    Mn
C       0.1074  0.33713  0.05836     C
O       0.1125  0.67947   0.7238     O
C        0.113  0.45213  0.94573     C
C       0.1194   0.5657  0.83143     C
C      0.12664  0.95562  0.80338     C
O       0.1273  0.21842  0.39101     O
C      0.14757   0.3034  0.45409     C
O       0.1493   0.6083  0.50239     O
O      0.16227  0.00827  0.10538     O
C       0.1813   0.4129   0.1361     C
C       0.1883   0.5264   0.0236     C
C       0.1931   0.6402   0.9095     C
H        0.203      0.4   0.2012     H
H       0.2051   0.1249   0.9489     H
H       0.2188   0.7045   0.8972     H
C       0.2215   0.5036   0.1187     C
H       0.2251   0.4541   0.6199     H
C       0.2283   0.6212   0.0026     C
C      0.24212  0.66725  0.52766     C
H       0.2427   0.5114   0.3716     H
C      0.24395  0.00681  0.84549     C
O       0.2566  0.75452  0.58739     O
C      0.25994  0.03905  0.16182     C
H       0.2601   0.8719   0.0174     H
C      0.26482  0.34578  0.50811     C
C      0.26565  0.09679  0.92491     C
H       0.2727   0.5525   0.1713     H
O      0.27715  0.10655  0.24275     O
H       0.2797   0.6715   0.0537     H
C      0.28593  0.42883  0.59415     C
H       0.3151    0.908   0.7534     H
C      0.31675  0.54643  0.39878     C
C      0.33063  0.96648  0.80867     C
C      0.33521  0.90059  0.05033     C
C      0.33701  0.63264    0.482     C
H       0.3376   0.2486   0.4162     H
C      0.35249  0.30647  0.47196     C
C      0.35621  0.98969  0.13095     C
C      0.37292  0.14314  0.96707     C
H       0.3863   0.2041   0.0194     H
H       0.3877   0.4565   0.3006     H
C      0.39382  0.47307  0.64056     C
C      0.40279  0.51337  0.35742     C
H       0.4066   0.7952   0.9668     H
H       0.4072    0.528   0.6989     H
C        0.422  0.85571  0.01976     C
C      0.44292  0.01172  0.85272     C
C      0.44417  0.68316  0.52265     C
H        0.457   0.7416   0.5777     H
C      0.46417  0.35132  0.51695     C
C      0.46491  0.10148  0.93373     C
C      0.46492  0.03139  0.17892     C
H       0.4785   0.0899    0.234     H
C      0.48576  0.43725  0.60193     C
C      0.51424  0.56275  0.39807     C
H       0.5215   0.9101    0.766     H
C      0.53508  0.96861  0.82108     C
C      0.53509  0.89852  0.06627     C
C      0.53583  0.64868  0.48305     C
H        0.543   0.2584   0.4223     H
C      0.55583  0.31684  0.47735     C
C      0.55708  0.98828  0.14728     C
C        0.578  0.14429  0.98024     C
H       0.5928    0.472   0.3011     H
H       0.5934   0.2048   0.0332     H
C      0.59721  0.48663  0.64258     C
C      0.60618  0.52693  0.35944     C
H       0.6123   0.5435   0.6994     H
H       0.6137   0.7959   0.9806     H
C      0.62708  0.85686  0.03293     C
C      0.64379  0.01031  0.86905     C
C      0.64751  0.69353  0.52804     C
H       0.6624   0.7514   0.5838     H
C      0.66299  0.36736    0.518     C
C      0.66479  0.09941  0.94967     C
C      0.66937  0.03352  0.19133     C
C      0.68325  0.45357  0.60122     C
H       0.6849    0.092   0.2466     H
C      0.71407  0.57117  0.40585     C
H       0.7203   0.3285   0.9463     H
O      0.72285  0.89345  0.75725     O
H       0.7273   0.4475   0.8287     H
C      0.73435  0.90321  0.07509     C
C      0.73518  0.65422  0.49189     C
H       0.7399   0.1281   0.9826     H
C      0.74006  0.96095  0.83818     C
O       0.7434  0.24548  0.41261     O
C      0.75605  0.99319  0.15451     C
H       0.7573   0.4886   0.6284     H
C      0.75788  0.33275  0.47234     C
C       0.7717   0.3788   0.9974     C
H       0.7749   0.5459   0.3801     H
C       0.7785   0.4964   0.8813     C
H       0.7812   0.2955   0.1028     H
H       0.7949   0.8751   0.0511     H
H        0.797      0.6   0.7988     H
C       0.8069   0.3598   0.0905     C
C       0.8117   0.4736   0.9764     C
C       0.8187   0.5871   0.8639     C
O      0.83773  0.99173  0.89462     O
O       0.8507   0.3917  0.49761     O
C      0.85243   0.6966  0.54591     C
O       0.8727  0.78158  0.60899     O
C      0.87336  0.04438  0.19662     C
C       0.8806   0.4343  0.16857     C
C        0.887  0.54787  0.05427     C
O       0.8875  0.32053   0.2762     O
C       0.8926  0.66287  0.94164     C
Mn     0.89857  0.88341  0.75075    Mn
O      0.90054  0.10328  0.28331     O
O      0.91071  0.76594  0.82729     O
C      0.91307  0.41144  0.27068     C
Mn      0.9131  0.24289   0.3922    Mn
C       0.9196  0.52596  0.15063     C
C       0.9251  0.64337  0.03498     C
C       0.9303  0.76407  0.91889     C
O      0.93169  0.64715  0.52553     O
O       0.9464  0.02538    0.145     O
O      0.95982  0.48696  0.34331     O
H       0.9694   0.5758   0.2034     H
H       0.9738   0.6944   0.0875     H
O      0.97522  0.83847   0.9925     O
