data_I
_chemical_name_common  '/home/zhangsd/repos/MofS-CGCNN/ML/data/TSD/clean_cifs/CUYWUP_clean'
_cell_length_a 10.67530
_cell_length_b 17.84400
_cell_length_c 27.35300
_cell_angle_alpha 90.00000
_cell_angle_beta  90.00000
_cell_angle_gamma 90.00000
_space_group_name_H-M_alt      'P 1'


loop_
_space_group_symop_operation_xyz
  'x, y, z' 

loop_
_atom_site_label
_atom_site_fract_x
_atom_site_fract_y
_atom_site_fract_z
_atom_site_type_symbol
C       0.0147  0.34416  0.64323     C
C       0.0147  0.65584  0.85677     C
O      0.01603   0.4091  0.05328     O
O      0.01603   0.5909  0.44672     O
H       0.0165   0.2709   0.1966     H
H       0.0165   0.7291   0.3034     H
C        0.031  0.31246  0.68783     C
C        0.031  0.68754  0.81217     C
H       0.0356   0.3203   0.1202     H
H       0.0356   0.6797   0.3798     H
C       0.0361  0.14794  0.90634     C
C       0.0361  0.85206  0.59366     C
C       0.0398   0.0785   0.9269     C
C       0.0398   0.9215   0.5731     C
C       0.0476  0.44615  0.58293     C
C       0.0476  0.55385  0.91707     C
Cu     0.06113  0.43979  0.98678    Cu
Cu     0.06113  0.56021  0.51322    Cu
H       0.0612   0.2357   0.8362     H
H       0.0612   0.7643   0.6638     H
H       0.0643   0.0006   0.0379     H
H       0.0643   0.9994   0.4621     H
C       0.0681  0.04653   0.4477     C
C       0.0681  0.95347   0.0523     C
C       0.0706  0.41008  0.63166     C
C       0.0706  0.58992  0.86834     C
C       0.0762  0.18847   0.4064     C
C       0.0762  0.81153   0.0936     C
H       0.0795   0.2368   0.3938     H
H       0.0795   0.7632   0.1062     H
O      0.09378  0.48977  0.92428     O
O      0.09378  0.51023  0.57572     O
O      0.10423   0.4094  0.46335     O
O      0.10423   0.5906  0.03665     O
H       0.1147   0.0519   0.9272     H
H       0.1147   0.9481   0.5728     H
C       0.1164  0.34097  0.71988     C
C       0.1164  0.65903  0.78012     C
H       0.1224   0.2833   0.8781     H
H       0.1224   0.7167   0.6219     H
O      0.12748  0.30203  0.76311     O
O      0.12748  0.69797  0.73689     O
C       0.1338  0.23985  0.85729     C
C       0.1338  0.76015  0.64271     C
O      0.14407  0.17387  0.88694     O
O      0.14407  0.82613  0.61306     O
C       0.1509  0.44365  0.66609     C
C       0.1509  0.55635  0.83391     C
C       0.1758  0.40896  0.70945     C
C       0.1758  0.59104  0.79055     C
C        0.181  0.08596  0.44655     C
C        0.181  0.91404  0.05345     C
C       0.1837  0.15446  0.42591     C
C       0.1837  0.84554  0.07409     C
H       0.1872   0.4898   0.6592     H
H       0.1872   0.5102   0.8408     H
H       0.1935   0.1703   0.7766     H
H       0.1935   0.8297   0.7234     H
C       0.2017  0.44725   0.4676     C
C       0.2017  0.55275   0.0324     C
O      0.21023   0.4897  0.01326     O
O      0.21023   0.5103  0.48674     O
H       0.2123   0.3621   0.8157     H
H       0.2123   0.6379   0.6843     H
H       0.2313   0.4302   0.7317     H
H       0.2313   0.5698   0.7683     H
C       0.2315  0.31901  0.79539     C
C       0.2315  0.68099  0.70461     C
H       0.2406   0.3199   0.4245     H
H       0.2406   0.6801   0.0755     H
C         0.25     0.25  0.82653     C
C         0.25     0.75  0.67347     C
H       0.2594   0.1801   0.4245     H
H       0.2594   0.8199   0.0755     H
C       0.2685  0.18099  0.79539     C
C       0.2685  0.81901  0.70461     C
H       0.2687   0.0698   0.7317     H
H       0.2687   0.9302   0.7683     H
H       0.2877   0.1379   0.8157     H
H       0.2877   0.8621   0.6843     H
O      0.28977   0.0103  0.01326     O
O      0.28977   0.9897  0.48674     O
C       0.2983  0.05275   0.4676     C
C       0.2983  0.94725   0.0324     C
H       0.3065   0.3297   0.7766     H
H       0.3065   0.6703   0.7234     H
H       0.3128   0.0102   0.6592     H
H       0.3128   0.9898   0.8408     H
C       0.3163  0.34554  0.42591     C
C       0.3163  0.65446  0.07409     C
C        0.319  0.41404  0.44655     C
C        0.319  0.58596  0.05345     C
C       0.3242  0.09104  0.70945     C
C       0.3242  0.90896  0.79055     C
C       0.3491  0.05635  0.66609     C
C       0.3491  0.94365  0.83391     C
O      0.35593  0.32613  0.88694     O
O      0.35593  0.67387  0.61306     O
C       0.3662  0.26015  0.85729     C
C       0.3662  0.73985  0.64271     C
O      0.37252  0.19797  0.76311     O
O      0.37252  0.80203  0.73689     O
H       0.3776   0.2167   0.8781     H
H       0.3776   0.7833   0.6219     H
C       0.3836  0.15903  0.71988     C
C       0.3836  0.84097  0.78012     C
H       0.3853   0.4481   0.9272     H
H       0.3853   0.5519   0.5728     H
O      0.39577   0.0906  0.46335     O
O      0.39577   0.9094  0.03665     O
O      0.40622  0.01023  0.92428     O
O      0.40622  0.98977  0.57572     O
H       0.4205   0.2632   0.3938     H
H       0.4205   0.7368   0.1062     H
C       0.4238  0.31153   0.4064     C
C       0.4238  0.68847   0.0936     C
C       0.4294  0.08992  0.63166     C
C       0.4294  0.91008  0.86834     C
C       0.4319  0.45347   0.4477     C
C       0.4319  0.54653   0.0523     C
H       0.4357   0.4994   0.0379     H
H       0.4357   0.5006   0.4621     H
H       0.4388   0.2643   0.8362     H
H       0.4388   0.7357   0.6638     H
Cu     0.43887  0.06021  0.98678    Cu
Cu     0.43887  0.93979  0.51322    Cu
C       0.4524  0.05385  0.58293     C
C       0.4524  0.94615  0.91707     C
C       0.4602   0.4215   0.9269     C
C       0.4602   0.5785   0.5731     C
C       0.4639  0.35206  0.90634     C
C       0.4639  0.64794  0.59366     C
H       0.4644   0.1797   0.1202     H
H       0.4644   0.8203   0.3798     H
C        0.469  0.18754  0.68783     C
C        0.469  0.81246  0.81217     C
H       0.4835   0.2291   0.1966     H
H       0.4835   0.7709   0.3034     H
O      0.48397   0.0909  0.05328     O
O      0.48397   0.9091  0.44672     O
C       0.4853  0.15584  0.64323     C
C       0.4853  0.84416  0.85677     C
C       0.5147  0.15584  0.14323     C
C       0.5147  0.84416  0.35677     C
O      0.51603   0.0909  0.55328     O
O      0.51603   0.9091  0.94672     O
H       0.5165   0.2291   0.6966     H
H       0.5165   0.7709   0.8034     H
C        0.531  0.18754  0.18783     C
C        0.531  0.81246  0.31217     C
H       0.5356   0.1797   0.6202     H
H       0.5356   0.8203   0.8798     H
C       0.5361  0.35206  0.40634     C
C       0.5361  0.64794  0.09366     C
C       0.5398   0.4215   0.4269     C
C       0.5398   0.5785   0.0731     C
C       0.5476  0.05385  0.08293     C
C       0.5476  0.94615  0.41707     C
Cu     0.56113  0.06021  0.48678    Cu
Cu     0.56113  0.93979  0.01322    Cu
H       0.5612   0.2643   0.3362     H
H       0.5612   0.7357   0.1638     H
H       0.5643   0.4994   0.5379     H
H       0.5643   0.5006   0.9621     H
C       0.5681  0.45347   0.9477     C
C       0.5681  0.54653   0.5523     C
C       0.5706  0.08992  0.13166     C
C       0.5706  0.91008  0.36834     C
C       0.5762  0.31153   0.9064     C
C       0.5762  0.68847   0.5936     C
H       0.5795   0.2632   0.8938     H
H       0.5795   0.7368   0.6062     H
O      0.59378  0.01023  0.42428     O
O      0.59378  0.98977  0.07572     O
O      0.60423   0.0906  0.96335     O
O      0.60423   0.9094  0.53665     O
H       0.6147   0.4481   0.4272     H
H       0.6147   0.5519   0.0728     H
C       0.6164  0.15903  0.21988     C
C       0.6164  0.84097  0.28012     C
H       0.6224   0.2167   0.3781     H
H       0.6224   0.7833   0.1219     H
O      0.62748  0.19797  0.26311     O
O      0.62748  0.80203  0.23689     O
C       0.6338  0.26015  0.35729     C
C       0.6338  0.73985  0.14271     C
O      0.64407  0.32613  0.38694     O
O      0.64407  0.67387  0.11306     O
C       0.6509  0.05635  0.16609     C
C       0.6509  0.94365  0.33391     C
C       0.6758  0.09104  0.20945     C
C       0.6758  0.90896  0.29055     C
C        0.681  0.41404  0.94655     C
C        0.681  0.58596  0.55345     C
C       0.6837  0.34554  0.92591     C
C       0.6837  0.65446  0.57409     C
H       0.6872   0.0102   0.1592     H
H       0.6872   0.9898   0.3408     H
H       0.6935   0.3297   0.2766     H
H       0.6935   0.6703   0.2234     H
C       0.7017  0.05275   0.9676     C
C       0.7017  0.94725   0.5324     C
O      0.71023   0.0103  0.51326     O
O      0.71023   0.9897  0.98674     O
H       0.7123   0.1379   0.3157     H
H       0.7123   0.8621   0.1843     H
H       0.7313   0.0698   0.2317     H
H       0.7313   0.9302   0.2683     H
C       0.7315  0.18099  0.29539     C
C       0.7315  0.81901  0.20461     C
H       0.7406   0.1801   0.9245     H
H       0.7406   0.8199   0.5755     H
C         0.75     0.25  0.32653     C
C         0.75     0.75  0.17347     C
H       0.7594   0.3199   0.9245     H
H       0.7594   0.6801   0.5755     H
C       0.7685  0.31901  0.29539     C
C       0.7685  0.68099  0.20461     C
H       0.7687   0.4302   0.2317     H
H       0.7687   0.5698   0.2683     H
H       0.7877   0.3621   0.3157     H
H       0.7877   0.6379   0.1843     H
O      0.78977   0.4897  0.51326     O
O      0.78977   0.5103  0.98674     O
C       0.7983  0.44725   0.9676     C
C       0.7983  0.55275   0.5324     C
H       0.8065   0.1703   0.2766     H
H       0.8065   0.8297   0.2234     H
H       0.8128   0.4898   0.1592     H
H       0.8128   0.5102   0.3408     H
C       0.8163  0.15446  0.92591     C
C       0.8163  0.84554  0.57409     C
C        0.819  0.08596  0.94655     C
C        0.819  0.91404  0.55345     C
C       0.8242  0.40896  0.20945     C
C       0.8242  0.59104  0.29055     C
C       0.8491  0.44365  0.16609     C
C       0.8491  0.55635  0.33391     C
O      0.85593  0.17387  0.38694     O
O      0.85593  0.82613  0.11306     O
C       0.8662  0.23985  0.35729     C
C       0.8662  0.76015  0.14271     C
O      0.87252  0.30203  0.26311     O
O      0.87252  0.69797  0.23689     O
H       0.8776   0.2833   0.3781     H
H       0.8776   0.7167   0.1219     H
C       0.8836  0.34097  0.21988     C
C       0.8836  0.65903  0.28012     C
H       0.8853   0.0519   0.4272     H
H       0.8853   0.9481   0.0728     H
O      0.89577   0.4094  0.96335     O
O      0.89577   0.5906  0.53665     O
O      0.90622  0.48977  0.42428     O
O      0.90622  0.51023  0.07572     O
H       0.9205   0.2368   0.8938     H
H       0.9205   0.7632   0.6062     H
C       0.9238  0.18847   0.9064     C
C       0.9238  0.81153   0.5936     C
C       0.9294  0.41008  0.13166     C
C       0.9294  0.58992  0.36834     C
C       0.9319  0.04653   0.9477     C
C       0.9319  0.95347   0.5523     C
H       0.9357   0.0006   0.5379     H
H       0.9357   0.9994   0.9621     H
H       0.9388   0.2357   0.3362     H
H       0.9388   0.7643   0.1638     H
Cu     0.93887  0.43979  0.48678    Cu
Cu     0.93887  0.56021  0.01322    Cu
C       0.9524  0.44615  0.08293     C
C       0.9524  0.55385  0.41707     C
C       0.9602   0.0785   0.4269     C
C       0.9602   0.9215   0.0731     C
C       0.9639  0.14794  0.40634     C
C       0.9639  0.85206  0.09366     C
H       0.9644   0.3203   0.6202     H
H       0.9644   0.6797   0.8798     H
C        0.969  0.31246  0.18783     C
C        0.969  0.68754  0.31217     C
H       0.9835   0.2709   0.6966     H
H       0.9835   0.7291   0.8034     H
O      0.98397   0.4091  0.55328     O
O      0.98397   0.5909  0.94672     O
C       0.9853  0.34416  0.14323     C
C       0.9853  0.65584  0.35677     C
