data_I
_chemical_name_common  '/home/zhangsd/repos/MofS-CGCNN/ML/data/TSD/clean_cifs/CUYYAX_clean'
_cell_length_a  9.07520
_cell_length_b  9.07520
_cell_length_c 27.01400
_cell_angle_alpha 90.00000
_cell_angle_beta  90.00000
_cell_angle_gamma 90.00000
_space_group_name_H-M_alt      'P 1'


loop_
_space_group_symop_operation_xyz
  'x, y, z' 

loop_
_atom_site_label
_atom_site_fract_x
_atom_site_fract_y
_atom_site_fract_z
_atom_site_type_symbol
N       0.0027   0.5535  0.90325     N
C       0.0212   0.2955   0.4109     C
N       0.0241   0.4545  0.55647     N
H       0.0322   0.3645   0.6248     H
C       0.0799   0.3777   0.5947     C
H       0.0826   0.3399   0.1121     H
C       0.0879   0.7805   0.8888     C
H       0.0995   0.2546   0.4284     H
H       0.0997   0.8823   0.8891     H
C       0.1158   0.4737   0.0534     C
H       0.1177   0.0997   0.1391     H
H       0.1193   0.4926   0.4884     H
C        0.123    0.548   0.8762     C
C       0.1262    0.449   0.5195     C
C       0.1494   0.3651   0.0874     C
H       0.1652   0.4604   0.8653     H
N       0.1786   0.6807  0.86595     N
Cd     0.18155   0.6233  0.37496    Cd
H       0.1862    0.585   0.9935     H
N       0.2105   0.3235  0.58397     N
C       0.2117   0.5129   0.0164     C
C       0.2195   0.0879   0.1388     C
C       0.2381   0.3684   0.5368     C
H       0.2546   0.9005   0.1784     H
C       0.2842   0.2945  0.08409     C
H       0.2928   0.5213   0.7966     H
C       0.2945   0.7158  0.83409     C
C       0.2955   0.9788   0.1609     C
H       0.3076   0.4144   0.7202     H
H       0.3108   0.3852    0.203     H
N       0.3193   0.1786  0.11595     N
H        0.323   0.3461   0.5191     H
N       0.3235   0.7895  0.33397     N
H       0.3266   0.5943    0.145     H
C       0.3362   0.6141  0.79787     C
H       0.3399   0.9174   0.8621     H
C       0.3461   0.4436   0.0138     C
H       0.3461    0.677   0.2691     H
H       0.3645   0.9678   0.3748     H
C       0.3651   0.8506   0.8374     C
N       0.3671   0.5327  0.42289     N
C       0.3684   0.7619   0.2868     C
Cd      0.3767  0.18155  0.62496    Cd
C       0.3777   0.9201   0.3447     C
H       0.3852   0.6892    0.953     H
C       0.3859   0.3362  0.04787     C
C       0.3895   0.4501   0.1996     C
C       0.3993   0.5659   0.1672     C
C       0.4007   0.4384   0.7083     C
H       0.4057   0.3266    0.395     H
H       0.4144   0.6924   0.4702     H
H        0.415   0.1862   0.2435     H
C       0.4341   0.3993   0.4172     C
C       0.4384   0.5993   0.4583     C
C       0.4436   0.6539   0.7638     C
N       0.4465   0.0027  0.15325     N
N       0.4487   0.4829  0.97569     N
C        0.449   0.8738   0.2695     C
C       0.4501   0.6105   0.9496     C
C        0.452    0.123   0.1262     C
N       0.4545   0.9759  0.30647     N
H       0.4604   0.8348   0.6153     H
N       0.4673   0.3671  0.67289     N
C       0.4737   0.8842   0.8034     C
H       0.4787   0.2928   0.0466     H
N       0.4829   0.5513  0.72569     N
C       0.4871   0.2117   0.2664     C
H       0.4926   0.8807   0.2384     H
H       0.5074   0.1193   0.7384     H
C       0.5129   0.7883   0.7664     C
N       0.5171   0.4487  0.22569     N
H       0.5213   0.7072   0.5466     H
C       0.5263   0.1158   0.3034     C
N       0.5327   0.6329  0.17289     N
H       0.5396   0.1652   0.1153     H
N       0.5455   0.0241  0.80647     N
C        0.548    0.877   0.6262     C
C       0.5499   0.3895   0.4496     C
C        0.551   0.1262   0.7695     C
N       0.5513   0.5171  0.47569     N
N       0.5535   0.9973  0.65325     N
C       0.5564   0.3461   0.2638     C
C       0.5616   0.4007   0.9583     C
C       0.5659   0.6007   0.9172     C
H        0.585   0.8138   0.7435     H
H       0.5856   0.3076   0.9702     H
H       0.5943   0.6734    0.895     H
C       0.5993   0.5616   0.2083     C
C       0.6007   0.4341   0.6672     C
C       0.6105   0.5499   0.6996     C
C       0.6141   0.6638  0.54787     C
H       0.6148   0.3108    0.453     H
C       0.6223   0.0799   0.8447     C
Cd      0.6233  0.81845  0.12496    Cd
C       0.6316   0.2381   0.7868     C
N       0.6329   0.4673  0.92289     N
C       0.6349   0.1494   0.3374     C
H       0.6355   0.0322   0.8748     H
H       0.6539    0.323   0.7691     H
C       0.6539   0.5564   0.5138     C
H       0.6601   0.0826   0.3621     H
C       0.6638   0.3859  0.29787     C
H       0.6734   0.4057    0.645     H
N       0.6765   0.2105  0.83397     N
H        0.677   0.6539   0.0191     H
N       0.6807   0.8214  0.61595     N
H       0.6892   0.6148    0.703     H
H       0.6924   0.5856   0.2202     H
C       0.7045   0.0212   0.6609     C
C       0.7055   0.2842  0.33409     C
H       0.7072   0.4787   0.2966     H
C       0.7158   0.7055  0.58409     C
H       0.7454   0.0995   0.6784     H
C       0.7619   0.6316   0.0368     C
C       0.7805   0.9121   0.6388     C
C       0.7883   0.4871   0.5164     C
N       0.7895   0.6765  0.08397     N
H       0.8138    0.415   0.4935     H
Cd     0.81845   0.3767  0.87496    Cd
N       0.8214   0.3193  0.36595     N
H       0.8348   0.5396   0.3653     H
C       0.8506   0.6349   0.5874     C
C       0.8738    0.551   0.0195     C
C        0.877    0.452   0.3762     C
H       0.8807   0.5074   0.9884     H
H       0.8823   0.9003   0.6391     H
C       0.8842   0.5263   0.5534     C
H       0.9003   0.1177   0.3891     H
H       0.9005   0.7454   0.9284     H
C       0.9121   0.2195   0.3888     C
H       0.9174   0.6601   0.6121     H
C       0.9201   0.6223   0.0947     C
H       0.9678   0.6355   0.1248     H
N       0.9759   0.5455  0.05647     N
C       0.9788   0.7045   0.9109     C
N       0.9973   0.4465  0.40325     N
