data_I
_chemical_name_common  '/home/zhangsd/repos/MofS-CGCNN/ML/data/TSD/clean_cifs/DACXUB_clean'
_cell_length_a 10.80200
_cell_length_b 12.14300
_cell_length_c 12.24500
_cell_angle_alpha 94.03100
_cell_angle_beta  106.64100
_cell_angle_gamma 101.35600
_space_group_name_H-M_alt      'P 1'


loop_
_space_group_symop_operation_xyz
  'x, y, z' 

loop_
_atom_site_label
_atom_site_fract_x
_atom_site_fract_y
_atom_site_fract_z
_atom_site_type_symbol
C       0.0045   0.9472   0.5196     C
C       0.0052    0.935   0.6335     C
C       0.0065   0.9793   0.2967     C
C       0.0084    0.994   0.1766     C
O       0.0091   0.3376   0.1549     O
C       0.0136   0.8597   0.4439     C
H       0.0138   0.8665   0.6609     H
C       0.0152   0.8736   0.3349     C
H       0.0186   0.7896   0.4687     H
H       0.0219   0.8141   0.2864     H
O        0.038   0.3185   0.9134     O
C       0.0384   0.4523   0.3681     C
O       0.0456   0.9329   0.8717     O
C       0.0525   0.5103   0.4776     C
O        0.068   0.9344   0.1333     O
C        0.075   0.6234   0.6908     C
Ho       0.083  0.80966  0.99812    Ho
C        0.088   0.6825   0.8067     C
H       0.1079   0.4667   0.3368     H
H       0.1187   0.5692    0.116     H
C       0.1497   0.3061   0.9727     C
O       0.1567     0.23   0.0387     O
C       0.1681   0.5905   0.5404     C
H       0.1793   0.4573   0.8312     H
C       0.1793   0.6449   0.6436     C
O       0.1913   0.7515   0.8616     O
C       0.2077   0.6063   0.1439     C
H       0.2384   0.6065   0.5101     H
N       0.2424   0.7109   0.1202     N
H       0.2572   0.6974   0.6839     H
C       0.2609   0.4587   0.8843     C
H       0.2668   0.4759   0.2208     H
C       0.2703    0.381   0.9642     C
H       0.2757   0.0796   0.7131     H
H       0.2827   0.0667   0.0226     H
C       0.2962   0.5495   0.2074     C
N       0.3142   0.9268   0.0803     N
H        0.334   0.2623   0.6893     H
H       0.3382   0.9107    0.803     H
C       0.3481   0.0328   0.0641     C
H       0.3603   0.5869   0.8314     H
C       0.3634    0.119   0.7456     C
C       0.3691   0.5351   0.8839     C
C       0.3717   0.7657   0.1638     C
C       0.3912   0.3826   0.0394     C
H       0.3982   0.3305   0.0918     H
C       0.3985   0.2267   0.7295     C
C       0.4103   0.8791   0.1415     C
C       0.4248   0.6014   0.2494     C
C       0.4256   0.9521   0.8318     C
C       0.4583   0.0629   0.8119     C
C       0.4684   0.7124   0.2278     C
C       0.4783   0.0966   0.1065     C
H       0.4853   0.5642   0.2929     H
C       0.4948    0.539   0.9603     C
H       0.4992   0.1714   0.0928     H
H       0.5008   0.8286   0.9072     H
C       0.5052    0.461   0.0397     C
H       0.5147   0.4358   0.7071     H
C       0.5217   0.9034   0.8935     C
C       0.5316   0.2876   0.7722     C
C       0.5417   0.9371   0.1881     C
C       0.5744   0.0479   0.1682     C
C       0.5752   0.3986   0.7506     C
C       0.5897   0.1209   0.8585     C
C       0.6015   0.7733   0.2705     C
H       0.6018   0.6695   0.9082     H
C       0.6088   0.6174   0.9606     C
C       0.6283   0.2343   0.8362     C
C       0.6309   0.4649   0.1161     C
C       0.6366    0.881   0.2544     C
H       0.6397   0.4131   0.1686     H
C       0.6519   0.9672   0.9359     C
H       0.6618   0.0893    0.197     H
H        0.666   0.7377   0.3107     H
N       0.6858   0.0732   0.9197     N
C       0.7038   0.4505   0.7926     C
H       0.7173   0.9333   0.9774     H
H       0.7243   0.9204   0.2869     H
C       0.7297    0.619   0.0358     C
H       0.7332   0.5241   0.7792     H
C       0.7391   0.5413   0.1157     C
H       0.7428   0.3026   0.3161     H
N       0.7576   0.2891   0.8798     N
H       0.7616   0.3935   0.4899     H
C       0.7923   0.3937   0.8561     C
O       0.8087   0.2485   0.1384     O
C       0.8207   0.3551   0.3564     C
H       0.8207   0.5427   0.1688     H
C       0.8319   0.4095   0.4596     C
O       0.8433     0.77   0.9613     O
C       0.8503   0.6939   0.0273     C
H       0.8813   0.4308    0.884     H
H       0.8921   0.5333   0.6632     H
C        0.912   0.3175   0.1933     C
Ho       0.917  0.19034  0.00188    Ho
C        0.925   0.3766   0.3092     C
O        0.932   0.0656   0.8667     O
C       0.9475   0.4897   0.5224     C
O       0.9544   0.0671   0.1283     O
C       0.9616   0.5477   0.6319     C
O        0.962   0.6815   0.0866     O
H       0.9781   0.1859   0.7136     H
H       0.9814   0.2104   0.5313     H
C       0.9848   0.1264   0.6651     C
H       0.9862   0.1335   0.3391     H
C       0.9864   0.1403   0.5561     C
O       0.9909   0.6624   0.8451     O
C       0.9916    0.006   0.8234     C
C       0.9935   0.0207   0.7033     C
C       0.9948    0.065   0.3665     C
C       0.9955   0.0528   0.4804     C
