data_I
_chemical_name_common  '/home/zhangsd/repos/MofS-CGCNN/ML/data/TSD/clean_cifs/DADNUU_clean'
_cell_length_a 15.57700
_cell_length_b 16.39400
_cell_length_c 12.59300
_cell_angle_alpha 90.00000
_cell_angle_beta  92.84000
_cell_angle_gamma 90.00000
_space_group_name_H-M_alt      'P 1'


loop_
_space_group_symop_operation_xyz
  'x, y, z' 

loop_
_atom_site_label
_atom_site_fract_x
_atom_site_fract_y
_atom_site_fract_z
_atom_site_type_symbol
Fe         0.0   0.0484     0.75    Fe
Fe         0.0   0.9516     0.25    Fe
O       0.0224   0.2333   0.6079     O
O       0.0224   0.7667   0.1079     O
C       0.0374   0.0204   0.9964     C
C       0.0374   0.9796   0.4964     C
O       0.0545   0.0617   0.9002     O
O       0.0545   0.9383   0.4002     O
C       0.0656   0.0731   0.0949     C
C       0.0656   0.9269   0.5949     C
O       0.0737   0.0428   0.1853     O
O       0.0737   0.9572   0.6853     O
H       0.0801   0.0236   0.4987     H
H       0.0801   0.9764   0.9987     H
O        0.086    0.144   0.0754     O
O        0.086    0.856   0.5754     O
O        0.102   0.1412   0.7262     O
O        0.102   0.8588   0.2262     O
S      0.10586  0.21912  0.66557     S
S      0.10586  0.78088  0.16557     S
O       0.1212   0.2827   0.7488     O
O       0.1212   0.7173   0.2488     O
Gd     0.12131    0.188  0.90939    Gd
Gd     0.12131    0.812  0.40939    Gd
O       0.1312   0.3169     0.99     O
O       0.1312   0.6831     0.49     O
O       0.1315   0.3916   0.1471     O
O       0.1315   0.6084   0.6471     O
O       0.1746   0.2178   0.5939     O
O       0.1746   0.7822   0.0939     O
S      0.18587  0.34943   0.0762     S
S      0.18587  0.65057   0.5762     S
O       0.2308   0.2828   0.1317     O
O       0.2308   0.7172   0.6317     O
O       0.2438   0.1024   0.9644     O
O       0.2438   0.8976   0.4644     O
O       0.2562   0.3976   0.0356     O
O       0.2562   0.6024   0.5356     O
O       0.2692   0.2172   0.8683     O
O       0.2692   0.7828   0.3683     O
S      0.31413  0.15057   0.9238     S
S      0.31413  0.84943   0.4238     S
O       0.3254   0.2822   0.4061     O
O       0.3254   0.7178   0.9061     O
O       0.3685   0.1084   0.8529     O
O       0.3685   0.8916   0.3529     O
O       0.3688   0.1831     0.01     O
O       0.3688   0.8169     0.51     O
Gd     0.37869    0.312  0.09061    Gd
Gd     0.37869    0.688  0.59061    Gd
O       0.3788   0.2173   0.2512     O
O       0.3788   0.7827   0.7512     O
S      0.39414  0.28088  0.33443     S
S      0.39414  0.71912  0.83443     S
O        0.398   0.3588   0.2738     O
O        0.398   0.6412   0.7738     O
O        0.414    0.356   0.9246     O
O        0.414    0.644   0.4246     O
H       0.4199   0.4764   0.5013     H
H       0.4199   0.5236   0.0013     H
O       0.4263   0.4572   0.8147     O
O       0.4263   0.5428   0.3147     O
C       0.4344   0.4269   0.9051     C
C       0.4344   0.5731   0.4051     C
O       0.4455   0.4383   0.0998     O
O       0.4455   0.5617   0.5998     O
C       0.4626   0.4796   0.0036     C
C       0.4626   0.5204   0.5036     C
O       0.4776   0.2667   0.3921     O
O       0.4776   0.7333   0.8921     O
Fe         0.5   0.4516     0.25    Fe
Fe         0.5   0.5484     0.75    Fe
O       0.5224   0.2667   0.1079     O
O       0.5224   0.7333   0.6079     O
C       0.5374   0.4796   0.4964     C
C       0.5374   0.5204   0.9964     C
O       0.5545   0.4383   0.4002     O
O       0.5545   0.5617   0.9002     O
C       0.5656   0.4269   0.5949     C
C       0.5656   0.5731   0.0949     C
O       0.5737   0.4572   0.6853     O
O       0.5737   0.5428   0.1853     O
H       0.5801   0.4764   0.9987     H
H       0.5801   0.5236   0.4987     H
O        0.586    0.356   0.5754     O
O        0.586    0.644   0.0754     O
O        0.602   0.3588   0.2262     O
O        0.602   0.6412   0.7262     O
S      0.60586  0.28088  0.16557     S
S      0.60586  0.71912  0.66557     S
O       0.6212   0.2173   0.2488     O
O       0.6212   0.7827   0.7488     O
Gd     0.62131    0.312  0.40939    Gd
Gd     0.62131    0.688  0.90939    Gd
O       0.6312   0.1831     0.49     O
O       0.6312   0.8169     0.99     O
O       0.6315   0.1084   0.6471     O
O       0.6315   0.8916   0.1471     O
O       0.6746   0.2822   0.0939     O
O       0.6746   0.7178   0.5939     O
S      0.68587  0.15057   0.5762     S
S      0.68587  0.84943   0.0762     S
O       0.7308   0.2172   0.6317     O
O       0.7308   0.7828   0.1317     O
O       0.7438   0.3976   0.4644     O
O       0.7438   0.6024   0.9644     O
O       0.7562   0.1024   0.5356     O
O       0.7562   0.8976   0.0356     O
O       0.7692   0.2828   0.3683     O
O       0.7692   0.7172   0.8683     O
S      0.81413  0.34943   0.4238     S
S      0.81413  0.65057   0.9238     S
O       0.8254   0.2178   0.9061     O
O       0.8254   0.7822   0.4061     O
O       0.8685   0.3916   0.3529     O
O       0.8685   0.6084   0.8529     O
O       0.8688   0.3169     0.51     O
O       0.8688   0.6831     0.01     O
Gd     0.87869    0.188  0.59061    Gd
Gd     0.87869    0.812  0.09061    Gd
O       0.8788   0.2827   0.7512     O
O       0.8788   0.7173   0.2512     O
S      0.89414  0.21912  0.83443     S
S      0.89414  0.78088  0.33443     S
O        0.898   0.1412   0.7738     O
O        0.898   0.8588   0.2738     O
O        0.914    0.144   0.4246     O
O        0.914    0.856   0.9246     O
H       0.9199   0.0236   0.0013     H
H       0.9199   0.9764   0.5013     H
O       0.9263   0.0428   0.3147     O
O       0.9263   0.9572   0.8147     O
C       0.9344   0.0731   0.4051     C
C       0.9344   0.9269   0.9051     C
O       0.9455   0.0617   0.5998     O
O       0.9455   0.9383   0.0998     O
C       0.9626   0.0204   0.5036     C
C       0.9626   0.9796   0.0036     C
O       0.9776   0.2333   0.8921     O
O       0.9776   0.7667   0.3921     O
