data_I
_chemical_name_common  '/home/zhangsd/repos/MofS-CGCNN/ML/data/TSD/clean_cifs/DADPAC_clean'
_cell_length_a 15.49800
_cell_length_b 16.40000
_cell_length_c 12.66000
_cell_angle_alpha 90.00000
_cell_angle_beta  93.36000
_cell_angle_gamma 90.00000
_space_group_name_H-M_alt      'P 1'


loop_
_space_group_symop_operation_xyz
  'x, y, z' 

loop_
_atom_site_label
_atom_site_fract_x
_atom_site_fract_y
_atom_site_fract_z
_atom_site_type_symbol
Fe         0.0  0.05061     0.75    Fe
Fe         0.0  0.94939     0.25    Fe
O       0.0252   0.2343   0.6097     O
O       0.0252   0.7657   0.1097     O
C       0.0368   0.0231    0.996     C
C       0.0368   0.9769    0.496     C
O       0.0538   0.0629   0.9015     O
O       0.0538   0.9371   0.4015     O
C       0.0636   0.0727   0.0969     C
C       0.0636   0.9273   0.5969     C
O       0.0751   0.0402    0.186     O
O       0.0751   0.9598    0.686     O
H       0.0813   0.0194   0.4985     H
H       0.0813   0.9806   0.9985     H
O       0.0861   0.1427    0.079     O
O       0.0861   0.8573    0.579     O
O       0.1035   0.1416   0.7294     O
O       0.1035   0.8584   0.2294     O
S      0.10822  0.21911  0.66777     S
S      0.10822  0.78089  0.16777     S
Sm     0.12257  0.19019  0.91378    Sm
Sm     0.12257  0.80981  0.41378    Sm
O       0.1236   0.2823   0.7499     O
O       0.1236   0.7177   0.2499     O
O       0.1246   0.3256    0.986     O
O       0.1246   0.6744    0.486     O
O       0.1313   0.3891   0.1528     O
O       0.1313   0.6109   0.6528     O
O       0.1774   0.2172   0.5981     O
O       0.1774   0.7828   0.0981     O
S      0.18208  0.35054  0.07458     S
S      0.18208  0.64946  0.57458     S
O       0.2251   0.2755   0.1179     O
O       0.2251   0.7245   0.6179     O
O       0.2466   0.0994   0.9571     O
O       0.2466   0.9006   0.4571     O
O       0.2534   0.4006   0.0429     O
O       0.2534   0.5994   0.5429     O
O       0.2749   0.2245   0.8821     O
O       0.2749   0.7755   0.3821     O
S      0.31792  0.14946  0.92542     S
S      0.31792  0.85054  0.42542     S
O       0.3226   0.2828   0.4019     O
O       0.3226   0.7172   0.9019     O
O       0.3687   0.1109   0.8472     O
O       0.3687   0.8891   0.3472     O
O       0.3754   0.1744    0.014     O
O       0.3754   0.8256    0.514     O
O       0.3764   0.2177   0.2501     O
O       0.3764   0.7823   0.7501     O
Sm     0.37743  0.30981  0.08622    Sm
Sm     0.37743  0.69019  0.58622    Sm
S      0.39178  0.28089  0.33223     S
S      0.39178  0.71911  0.83223     S
O       0.3965   0.3584   0.2706     O
O       0.3965   0.6416   0.7706     O
O       0.4139   0.3573    0.921     O
O       0.4139   0.6427    0.421     O
H       0.4187   0.4806   0.5015     H
H       0.4187   0.5194   0.0015     H
O       0.4249   0.4598    0.814     O
O       0.4249   0.5402    0.314     O
C       0.4364   0.4273   0.9031     C
C       0.4364   0.5727   0.4031     C
O       0.4462   0.4371   0.0985     O
O       0.4462   0.5629   0.5985     O
C       0.4632   0.4769    0.004     C
C       0.4632   0.5231    0.504     C
O       0.4748   0.2657   0.3903     O
O       0.4748   0.7343   0.8903     O
Fe         0.5  0.44939     0.25    Fe
Fe         0.5  0.55061     0.75    Fe
O       0.5252   0.2657   0.1097     O
O       0.5252   0.7343   0.6097     O
C       0.5368   0.4769    0.496     C
C       0.5368   0.5231    0.996     C
O       0.5538   0.4371   0.4015     O
O       0.5538   0.5629   0.9015     O
C       0.5636   0.4273   0.5969     C
C       0.5636   0.5727   0.0969     C
O       0.5751   0.4598    0.686     O
O       0.5751   0.5402    0.186     O
H       0.5813   0.4806   0.9985     H
H       0.5813   0.5194   0.4985     H
O       0.5861   0.3573    0.579     O
O       0.5861   0.6427    0.079     O
O       0.6035   0.3584   0.2294     O
O       0.6035   0.6416   0.7294     O
S      0.60822  0.28089  0.16777     S
S      0.60822  0.71911  0.66777     S
Sm     0.62257  0.30981  0.41378    Sm
Sm     0.62257  0.69019  0.91378    Sm
O       0.6236   0.2177   0.2499     O
O       0.6236   0.7823   0.7499     O
O       0.6246   0.1744    0.486     O
O       0.6246   0.8256    0.986     O
O       0.6313   0.1109   0.6528     O
O       0.6313   0.8891   0.1528     O
O       0.6774   0.2828   0.0981     O
O       0.6774   0.7172   0.5981     O
S      0.68208  0.14946  0.57458     S
S      0.68208  0.85054  0.07458     S
O       0.7251   0.2245   0.6179     O
O       0.7251   0.7755   0.1179     O
O       0.7466   0.4006   0.4571     O
O       0.7466   0.5994   0.9571     O
O       0.7534   0.0994   0.5429     O
O       0.7534   0.9006   0.0429     O
O       0.7749   0.2755   0.3821     O
O       0.7749   0.7245   0.8821     O
S      0.81792  0.35054  0.42542     S
S      0.81792  0.64946  0.92542     S
O       0.8226   0.2172   0.9019     O
O       0.8226   0.7828   0.4019     O
O       0.8687   0.3891   0.3472     O
O       0.8687   0.6109   0.8472     O
O       0.8754   0.3256    0.514     O
O       0.8754   0.6744    0.014     O
O       0.8764   0.2823   0.7501     O
O       0.8764   0.7177   0.2501     O
Sm     0.87743  0.19019  0.58622    Sm
Sm     0.87743  0.80981  0.08622    Sm
S      0.89178  0.21911  0.83223     S
S      0.89178  0.78089  0.33223     S
O       0.8965   0.1416   0.7706     O
O       0.8965   0.8584   0.2706     O
O       0.9139   0.1427    0.421     O
O       0.9139   0.8573    0.921     O
H       0.9187   0.0194   0.0015     H
H       0.9187   0.9806   0.5015     H
O       0.9249   0.0402    0.314     O
O       0.9249   0.9598    0.814     O
C       0.9364   0.0727   0.4031     C
C       0.9364   0.9273   0.9031     C
O       0.9462   0.0629   0.5985     O
O       0.9462   0.9371   0.0985     O
C       0.9632   0.0231    0.504     C
C       0.9632   0.9769    0.004     C
O       0.9748   0.2343   0.8903     O
O       0.9748   0.7657   0.3903     O
