data_I
_chemical_name_common  '/home/zhangsd/repos/MofS-CGCNN/ML/data/TSD/clean_cifs/DADPEG_clean'
_cell_length_a 15.55550
_cell_length_b 16.54290
_cell_length_c 12.39640
_cell_angle_alpha 90.00000
_cell_angle_beta  91.90600
_cell_angle_gamma 90.00000
_space_group_name_H-M_alt      'P 1'


loop_
_space_group_symop_operation_xyz
  'x, y, z' 

loop_
_atom_site_label
_atom_site_fract_x
_atom_site_fract_y
_atom_site_fract_z
_atom_site_type_symbol
Fe         0.0  0.04728     0.75    Fe
Fe         0.0  0.95272     0.25    Fe
O        0.022   0.2328   0.6067     O
O        0.022   0.7672   0.1067     O
C       0.0438   0.0185   0.9962     C
C       0.0438   0.9815   0.4962     C
O       0.0565   0.0627   0.8993     O
O       0.0565   0.9373   0.3993     O
C        0.066   0.0735   0.0912     C
C        0.066   0.9265   0.5912     C
O       0.0745   0.0429   0.1834     O
O       0.0745   0.9571   0.6834     O
O       0.0827   0.1464   0.0735     O
O       0.0827   0.8536   0.5735     O
H       0.0856   0.0258   0.4982     H
H       0.0856   0.9742   0.9982     H
O       0.1007   0.1403   0.7243     O
O       0.1007   0.8597   0.2243     O
S      0.10482  0.21854  0.66307     S
S      0.10482  0.78146  0.16307     S
Er     0.11801  0.18608  0.90641    Er
Er     0.11801  0.81392  0.40641    Er
O       0.1192   0.2805   0.7487     O
O       0.1192   0.7195   0.2487     O
O       0.1348    0.406   0.1228     O
O       0.1348    0.594   0.6228     O
O       0.1376   0.3051   0.9934     O
O       0.1376   0.6949   0.4934     O
O        0.174    0.218   0.5885     O
O        0.174    0.782   0.0885     O
S      0.18953  0.35092   0.0709     S
S      0.18953  0.64908   0.5709     S
O       0.2357   0.2963   0.1454     O
O       0.2357   0.7037   0.6454     O
O       0.2374   0.1116   0.9811     O
O       0.2374   0.8884   0.4811     O
O       0.2626   0.3884   0.0189     O
O       0.2626   0.6116   0.5189     O
O       0.2643   0.2037   0.8546     O
O       0.2643   0.7963   0.3546     O
S      0.31047  0.14908   0.9291     S
S      0.31047  0.85092   0.4291     S
O        0.326    0.282   0.4115     O
O        0.326    0.718   0.9115     O
O       0.3624   0.1949   0.0066     O
O       0.3624   0.8051   0.5066     O
O       0.3652    0.094   0.8772     O
O       0.3652    0.906   0.3772     O
O       0.3808   0.2195   0.2513     O
O       0.3808   0.7805   0.7513     O
Er     0.38199  0.31392  0.09359    Er
Er     0.38199  0.68608  0.59359    Er
S      0.39518  0.28146  0.33693     S
S      0.39518  0.71854  0.83693     S
O       0.3993   0.3597   0.2757     O
O       0.3993   0.6403   0.7757     O
H       0.4144   0.4742   0.5018     H
H       0.4144   0.5258   0.0018     H
O       0.4173   0.3536   0.9265     O
O       0.4173   0.6464   0.4265     O
O       0.4255   0.4571   0.8166     O
O       0.4255   0.5429   0.3166     O
C        0.434   0.4265   0.9088     C
C        0.434   0.5735   0.4088     C
O       0.4435   0.4373   0.1007     O
O       0.4435   0.5627   0.6007     O
C       0.4562   0.4815   0.0038     C
C       0.4562   0.5185   0.5038     C
O        0.478   0.2672   0.3933     O
O        0.478   0.7328   0.8933     O
Fe         0.5  0.45272     0.25    Fe
Fe         0.5  0.54728     0.75    Fe
O        0.522   0.2672   0.1067     O
O        0.522   0.7328   0.6067     O
C       0.5438   0.4815   0.4962     C
C       0.5438   0.5185   0.9962     C
O       0.5565   0.4373   0.3993     O
O       0.5565   0.5627   0.8993     O
C        0.566   0.4265   0.5912     C
C        0.566   0.5735   0.0912     C
O       0.5745   0.4571   0.6834     O
O       0.5745   0.5429   0.1834     O
O       0.5827   0.3536   0.5735     O
O       0.5827   0.6464   0.0735     O
H       0.5856   0.4742   0.9982     H
H       0.5856   0.5258   0.4982     H
O       0.6007   0.3597   0.2243     O
O       0.6007   0.6403   0.7243     O
S      0.60482  0.28146  0.16307     S
S      0.60482  0.71854  0.66307     S
Er     0.61801  0.31392  0.40641    Er
Er     0.61801  0.68608  0.90641    Er
O       0.6192   0.2195   0.2487     O
O       0.6192   0.7805   0.7487     O
O       0.6348    0.094   0.6228     O
O       0.6348    0.906   0.1228     O
O       0.6376   0.1949   0.4934     O
O       0.6376   0.8051   0.9934     O
O        0.674    0.282   0.0885     O
O        0.674    0.718   0.5885     O
S      0.68953  0.14908   0.5709     S
S      0.68953  0.85092   0.0709     S
O       0.7357   0.2037   0.6454     O
O       0.7357   0.7963   0.1454     O
O       0.7374   0.3884   0.4811     O
O       0.7374   0.6116   0.9811     O
O       0.7626   0.1116   0.5189     O
O       0.7626   0.8884   0.0189     O
O       0.7643   0.2963   0.3546     O
O       0.7643   0.7037   0.8546     O
S      0.81047  0.35092   0.4291     S
S      0.81047  0.64908   0.9291     S
O        0.826    0.218   0.9115     O
O        0.826    0.782   0.4115     O
O       0.8624   0.3051   0.5066     O
O       0.8624   0.6949   0.0066     O
O       0.8652    0.406   0.3772     O
O       0.8652    0.594   0.8772     O
O       0.8808   0.2805   0.7513     O
O       0.8808   0.7195   0.2513     O
Er     0.88199  0.18608  0.59359    Er
Er     0.88199  0.81392  0.09359    Er
S      0.89518  0.21854  0.83693     S
S      0.89518  0.78146  0.33693     S
O       0.8993   0.1403   0.7757     O
O       0.8993   0.8597   0.2757     O
H       0.9144   0.0258   0.0018     H
H       0.9144   0.9742   0.5018     H
O       0.9173   0.1464   0.4265     O
O       0.9173   0.8536   0.9265     O
O       0.9255   0.0429   0.3166     O
O       0.9255   0.9571   0.8166     O
C        0.934   0.0735   0.4088     C
C        0.934   0.9265   0.9088     C
O       0.9435   0.0627   0.6007     O
O       0.9435   0.9373   0.1007     O
C       0.9562   0.0185   0.5038     C
C       0.9562   0.9815   0.0038     C
O        0.978   0.2328   0.8933     O
O        0.978   0.7672   0.3933     O
