data_I
_chemical_name_common  '/home/zhangsd/repos/MofS-CGCNN/ML/data/TSD/clean_cifs/DALSUH_clean'
_cell_length_a 12.72430
_cell_length_b 13.29400
_cell_length_c 28.59800
_cell_angle_alpha 90.00000
_cell_angle_beta  90.00000
_cell_angle_gamma 90.00000
_space_group_name_H-M_alt      'P 1'


loop_
_space_group_symop_operation_xyz
  'x, y, z' 

loop_
_atom_site_label
_atom_site_fract_x
_atom_site_fract_y
_atom_site_fract_z
_atom_site_type_symbol
O         0.04   0.1468   0.8283     O
O         0.04   0.8532   0.3283     O
O       0.0478   0.3386    0.047     O
O       0.0478   0.6614    0.547     O
O       0.0512   0.4478   0.5455     O
O       0.0512   0.5522   0.0455     O
O       0.0523   0.3966    0.119     O
O       0.0523   0.6034    0.619     O
Dy     0.08939  0.45701  0.42996    Dy
Dy     0.08939  0.54299  0.92996    Dy
C       0.0896   0.3403   0.0871     C
C       0.0896   0.6597   0.5871     C
O       0.0924   0.4389   0.8661     O
O       0.0924   0.5611   0.3661     O
H       0.1022   0.3989   0.6287     H
H       0.1022   0.6011   0.1287     H
N       0.1237   0.1534   0.8088     N
N       0.1237   0.8466   0.3088     N
C       0.1298   0.3563   0.8541     C
C       0.1298   0.6437   0.3541     C
C       0.1309    0.397   0.5356     C
C       0.1309    0.603   0.0356     C
C       0.1341   0.3381   0.8026     C
C       0.1341   0.6619   0.3026     C
H       0.1375   0.4848   0.7847     H
H       0.1375   0.5152   0.2847     H
C       0.1435   0.2455   0.7813     C
C       0.1435   0.7545   0.2813     C
C       0.1437   0.4202   0.7725     C
C       0.1437   0.5798   0.2725     C
C        0.156   0.3545    0.621     C
C        0.156   0.6455    0.121     C
C       0.1622   0.4092   0.7252     C
C       0.1622   0.5908   0.2252     C
H       0.1649   0.4659   0.7063     H
H       0.1649   0.5341   0.2063     H
O       0.1652   0.2902   0.8807     O
O       0.1652   0.7098   0.3807     O
O       0.1656    0.389    0.495     O
O       0.1656    0.611    0.995     O
C       0.1659   0.2313   0.7346     C
C       0.1659   0.7687   0.2346     C
H       0.1735   0.1666   0.7228     H
H       0.1735   0.8334   0.2228     H
C       0.1771   0.3135   0.7053     C
C       0.1771   0.6865   0.2053     C
H       0.1802   0.3025   0.1678     H
H       0.1802   0.6975   0.6678     H
C       0.1815   0.2756   0.0979     C
C       0.1815   0.7244   0.5979     C
C       0.1864   0.3428   0.5746     C
C       0.1864   0.6572   0.0746     C
O       0.1868   0.0866   0.8076     O
O       0.1868   0.9134   0.3076     O
C       0.2057   0.2999   0.6557     C
C       0.2057   0.7001   0.1557     C
H       0.2105   0.2275   0.0322     H
H       0.2105   0.7725   0.5322     H
C       0.2133   0.2655   0.1445     C
C       0.2133   0.7345   0.6445     C
C       0.2318   0.2211   0.0632     C
C       0.2318   0.7789   0.5632     C
C       0.2682   0.2789   0.5632     C
C       0.2682   0.7211   0.0632     C
C       0.2867   0.2345   0.6445     C
C       0.2867   0.7655   0.1445     C
H       0.2895   0.2725   0.5322     H
H       0.2895   0.7275   0.0322     H
C       0.2943   0.2001   0.1557     C
C       0.2943   0.7999   0.6557     C
O       0.3132   0.4134   0.3076     O
O       0.3132   0.5866   0.8076     O
C       0.3136   0.1572   0.0746     C
C       0.3136   0.8428   0.5746     C
C       0.3185   0.2244   0.5979     C
C       0.3185   0.7756   0.0979     C
H       0.3198   0.1975   0.6678     H
H       0.3198   0.8025   0.1678     H
C       0.3229   0.1865   0.2053     C
C       0.3229   0.8135   0.7053     C
H       0.3265   0.3334   0.2228     H
H       0.3265   0.6666   0.7228     H
C       0.3341   0.2687   0.2346     C
C       0.3341   0.7313   0.7346     C
O       0.3344    0.111    0.995     O
O       0.3344    0.889    0.495     O
O       0.3348   0.2098   0.3807     O
O       0.3348   0.7902   0.8807     O
H       0.3351   0.0341   0.2063     H
H       0.3351   0.9659   0.7063     H
C       0.3378   0.0908   0.2252     C
C       0.3378   0.9092   0.7252     C
C        0.344   0.1455    0.121     C
C        0.344   0.8545    0.621     C
C       0.3563   0.0798   0.2725     C
C       0.3563   0.9202   0.7725     C
C       0.3565   0.2545   0.2813     C
C       0.3565   0.7455   0.7813     C
H       0.3625   0.0152   0.2847     H
H       0.3625   0.9848   0.7847     H
C       0.3659   0.1619   0.3026     C
C       0.3659   0.8381   0.8026     C
C       0.3691    0.103   0.0356     C
C       0.3691    0.897   0.5356     C
C       0.3702   0.1437   0.3541     C
C       0.3702   0.8563   0.8541     C
N       0.3763   0.3466   0.3088     N
N       0.3763   0.6534   0.8088     N
H       0.3978   0.1011   0.1287     H
H       0.3978   0.8989   0.6287     H
O       0.4076   0.0611   0.3661     O
O       0.4076   0.9389   0.8661     O
C       0.4104   0.1597   0.5871     C
C       0.4104   0.8403   0.0871     C
Dy     0.41061  0.04299  0.92996    Dy
Dy     0.41061  0.95701  0.42996    Dy
O       0.4477   0.1034    0.619     O
O       0.4477   0.8966    0.119     O
O       0.4488   0.0522   0.0455     O
O       0.4488   0.9478   0.5455     O
O       0.4522   0.1614    0.547     O
O       0.4522   0.8386    0.047     O
O         0.46   0.3532   0.3283     O
O         0.46   0.6468   0.8283     O
O         0.54   0.3532   0.1717     O
O         0.54   0.6468   0.6717     O
O       0.5478   0.1614    0.953     O
O       0.5478   0.8386    0.453     O
O       0.5512   0.0522   0.4545     O
O       0.5512   0.9478   0.9545     O
O       0.5523   0.1034    0.881     O
O       0.5523   0.8966    0.381     O
Dy     0.58939  0.04299  0.57004    Dy
Dy     0.58939  0.95701  0.07004    Dy
C       0.5896   0.1597   0.9129     C
C       0.5896   0.8403   0.4129     C
O       0.5924   0.0611   0.1339     O
O       0.5924   0.9389   0.6339     O
H       0.6022   0.1011   0.3713     H
H       0.6022   0.8989   0.8713     H
N       0.6237   0.3466   0.1912     N
N       0.6237   0.6534   0.6912     N
C       0.6298   0.1437   0.1459     C
C       0.6298   0.8563   0.6459     C
C       0.6309    0.103   0.4644     C
C       0.6309    0.897   0.9644     C
C       0.6341   0.1619   0.1974     C
C       0.6341   0.8381   0.6974     C
H       0.6375   0.0152   0.2153     H
H       0.6375   0.9848   0.7153     H
C       0.6435   0.2545   0.2187     C
C       0.6435   0.7455   0.7187     C
C       0.6437   0.0798   0.2275     C
C       0.6437   0.9202   0.7275     C
C        0.656   0.1455    0.379     C
C        0.656   0.8545    0.879     C
C       0.6622   0.0908   0.2748     C
C       0.6622   0.9092   0.7748     C
H       0.6649   0.0341   0.2937     H
H       0.6649   0.9659   0.7937     H
O       0.6652   0.2098   0.1193     O
O       0.6652   0.7902   0.6193     O
O       0.6656    0.111    0.505     O
O       0.6656    0.889    0.005     O
C       0.6659   0.2687   0.2654     C
C       0.6659   0.7313   0.7654     C
H       0.6735   0.3334   0.2772     H
H       0.6735   0.6666   0.7772     H
C       0.6771   0.1865   0.2947     C
C       0.6771   0.8135   0.7947     C
H       0.6802   0.1975   0.8322     H
H       0.6802   0.8025   0.3322     H
C       0.6815   0.2244   0.9021     C
C       0.6815   0.7756   0.4021     C
C       0.6864   0.1572   0.4254     C
C       0.6864   0.8428   0.9254     C
O       0.6868   0.4134   0.1924     O
O       0.6868   0.5866   0.6924     O
C       0.7057   0.2001   0.3443     C
C       0.7057   0.7999   0.8443     C
H       0.7105   0.2725   0.9678     H
H       0.7105   0.7275   0.4678     H
C       0.7133   0.2345   0.8555     C
C       0.7133   0.7655   0.3555     C
C       0.7318   0.2789   0.9368     C
C       0.7318   0.7211   0.4368     C
C       0.7682   0.2211   0.4368     C
C       0.7682   0.7789   0.9368     C
C       0.7867   0.2655   0.3555     C
C       0.7867   0.7345   0.8555     C
H       0.7895   0.2275   0.4678     H
H       0.7895   0.7725   0.9678     H
C       0.7943   0.2999   0.8443     C
C       0.7943   0.7001   0.3443     C
O       0.8132   0.0866   0.6924     O
O       0.8132   0.9134   0.1924     O
C       0.8136   0.3428   0.9254     C
C       0.8136   0.6572   0.4254     C
C       0.8185   0.2756   0.4021     C
C       0.8185   0.7244   0.9021     C
H       0.8198   0.3025   0.3322     H
H       0.8198   0.6975   0.8322     H
C       0.8229   0.3135   0.7947     C
C       0.8229   0.6865   0.2947     C
H       0.8265   0.1666   0.7772     H
H       0.8265   0.8334   0.2772     H
C       0.8341   0.2313   0.7654     C
C       0.8341   0.7687   0.2654     C
O       0.8344    0.389    0.005     O
O       0.8344    0.611    0.505     O
O       0.8348   0.2902   0.6193     O
O       0.8348   0.7098   0.1193     O
H       0.8351   0.4659   0.7937     H
H       0.8351   0.5341   0.2937     H
C       0.8378   0.4092   0.7748     C
C       0.8378   0.5908   0.2748     C
C        0.844   0.3545    0.879     C
C        0.844   0.6455    0.379     C
C       0.8563   0.4202   0.7275     C
C       0.8563   0.5798   0.2275     C
C       0.8565   0.2455   0.7187     C
C       0.8565   0.7545   0.2187     C
H       0.8625   0.4848   0.7153     H
H       0.8625   0.5152   0.2153     H
C       0.8659   0.3381   0.6974     C
C       0.8659   0.6619   0.1974     C
C       0.8691    0.397   0.9644     C
C       0.8691    0.603   0.4644     C
C       0.8702   0.3563   0.6459     C
C       0.8702   0.6437   0.1459     C
N       0.8763   0.1534   0.6912     N
N       0.8763   0.8466   0.1912     N
H       0.8978   0.3989   0.8713     H
H       0.8978   0.6011   0.3713     H
O       0.9076   0.4389   0.6339     O
O       0.9076   0.5611   0.1339     O
C       0.9104   0.3403   0.4129     C
C       0.9104   0.6597   0.9129     C
Dy     0.91061  0.45701  0.07004    Dy
Dy     0.91061  0.54299  0.57004    Dy
O       0.9477   0.3966    0.381     O
O       0.9477   0.6034    0.881     O
O       0.9488   0.4478   0.9545     O
O       0.9488   0.5522   0.4545     O
O       0.9522   0.3386    0.453     O
O       0.9522   0.6614    0.953     O
O         0.96   0.1468   0.6717     O
O         0.96   0.8532   0.1717     O
