data_I
_chemical_name_common  '/home/zhangsd/repos/MofS-CGCNN/ML/data/TSD/clean_cifs/DALVAQ_clean'
_cell_length_a  7.12910
_cell_length_b 16.07480
_cell_length_c 11.03750
_cell_angle_alpha 90.00000
_cell_angle_beta  90.00000
_cell_angle_gamma 90.00000
_space_group_name_H-M_alt      'P 1'


loop_
_space_group_symop_operation_xyz
  'x, y, z' 

loop_
_atom_site_label
_atom_site_fract_x
_atom_site_fract_y
_atom_site_fract_z
_atom_site_type_symbol
O       0.0071  0.86063   0.3381     O
C         0.01   0.8578   0.6464     C
H       0.0391   0.8042   0.6206     H
Cd     0.04464  0.27616  0.86621    Cd
N         0.05   0.3349   0.2892     N
O       0.0713  0.61171   0.4853     O
C       0.0798    0.983   0.2307     C
C        0.089   0.9799   0.7656     C
C        0.133   0.9007   0.7229     C
C       0.1333   0.8987   0.2847     C
C       0.1559   0.1046   0.1091     C
H       0.1712   0.0078   0.8168     H
H       0.1888   0.4995   0.6268     H
C       0.1914   0.3628   0.2593     C
O       0.1991   0.3773   0.7709     O
C       0.2004   0.0248   0.1515     C
C       0.2116   0.6498   0.5247     C
O       0.2428  0.72457   0.4986     O
O       0.2572  0.22457   0.9986     O
C       0.2884   0.1498   0.0247     C
C       0.2996   0.5248   0.6515     C
O       0.3009   0.8773   0.2709     O
C       0.3086   0.8628   0.7593     C
H       0.3112   0.9995   0.1268     H
H       0.3288   0.5078   0.3168     H
C       0.3441   0.6046   0.6091     C
C       0.3667   0.3987   0.7847     C
C        0.367   0.4007   0.2229     C
C        0.411   0.4799   0.2656     C
C       0.4202    0.483   0.7307     C
O       0.4287  0.11171   0.9853     O
N         0.45   0.8349   0.7892     N
Cd     0.45536  0.77616  0.36621    Cd
H       0.4609   0.3042   0.1206     H
C         0.49   0.3578   0.1464     C
O       0.4929  0.36063   0.8381     O
O       0.5071  0.63937   0.3381     O
C         0.51   0.6422   0.6464     C
H       0.5391   0.6958   0.6206     H
Cd     0.54464  0.22384  0.86621    Cd
N         0.55   0.1651   0.2892     N
O       0.5713  0.88829   0.4853     O
C       0.5798    0.517   0.2307     C
C        0.589   0.5201   0.7656     C
C        0.633   0.5993   0.7229     C
C       0.6333   0.6013   0.2847     C
C       0.6559   0.3954   0.1091     C
H       0.6712   0.4922   0.8168     H
H       0.6888   0.0005   0.6268     H
C       0.6914   0.1372   0.2593     C
O       0.6991   0.1227   0.7709     O
C       0.7004   0.4752   0.1515     C
C       0.7116   0.8502   0.5247     C
O       0.7428  0.77543   0.4986     O
O       0.7572  0.27543   0.9986     O
C       0.7884   0.3502   0.0247     C
C       0.7996   0.9752   0.6515     C
O       0.8009   0.6227   0.2709     O
C       0.8086   0.6372   0.7593     C
H       0.8112   0.5005   0.1268     H
H       0.8288   0.9922   0.3168     H
C       0.8441   0.8954   0.6091     C
C       0.8667   0.1013   0.7847     C
C        0.867   0.0993   0.2229     C
C        0.911   0.0201   0.2656     C
C       0.9202    0.017   0.7307     C
O       0.9287  0.38829   0.9853     O
N         0.95   0.6651   0.7892     N
Cd     0.95536  0.72384  0.36621    Cd
H       0.9609   0.1958   0.1206     H
C         0.99   0.1422   0.1464     C
O       0.9929  0.13937   0.8381     O
