data_I
_chemical_name_common  '/home/zhangsd/repos/MofS-CGCNN/ML/data/TSD/clean_cifs/DALVIY_clean'
_cell_length_a 34.96700
_cell_length_b 21.61250
_cell_length_c 41.29600
_cell_angle_alpha 90.00000
_cell_angle_beta  90.00000
_cell_angle_gamma 90.00000
_space_group_name_H-M_alt      'P 1'


loop_
_space_group_symop_operation_xyz
  'x, y, z' 

loop_
_atom_site_label
_atom_site_fract_x
_atom_site_fract_y
_atom_site_fract_z
_atom_site_type_symbol
O        0.001   0.6492   0.4356     O
O        0.001   0.8508   0.9356     O
O       0.0011   0.1795   0.6948     O
O       0.0011   0.3205   0.1948     O
O       0.0035   0.1185   0.6326     O
O       0.0035   0.3815   0.1326     O
C       0.0042   0.5765   0.5302     C
C       0.0042   0.9235   0.0302     C
C       0.0046   0.5999   0.4994     C
C       0.0046   0.9001   0.9994     C
C        0.005   0.1677   0.2737     C
C        0.005   0.3323   0.7737     C
N       0.0125   0.6861   0.2483     N
N       0.0125   0.8139   0.7483     N
H       0.0175    0.054   0.2879     H
H       0.0175    0.446   0.7879     H
C        0.022   0.1472     0.01     C
C        0.022   0.1717   0.0429     C
C        0.022   0.3283   0.5429     C
C        0.022   0.3528     0.51     C
H       0.0222   0.5849   0.4844     H
H       0.0222   0.9151   0.9844     H
Gd     0.02233  0.22427  0.10593    Gd
Gd     0.02233  0.27573  0.60593    Gd
C       0.0233    0.098   0.9478     C
C       0.0233    0.402   0.4478     C
H       0.0242   0.0813    0.927     H
H       0.0242   0.4187    0.427     H
C        0.026   0.1413   0.3002     C
C        0.026   0.2153   0.6863     C
C        0.026   0.2847   0.1863     C
C        0.026   0.3587   0.8002     C
O       0.0263   0.2435   0.6581     O
O       0.0263   0.2565   0.1581     O
O       0.0282    0.672   0.3682     O
O       0.0282    0.828   0.8682     O
C       0.0288   0.0794   0.3034     C
C       0.0288   0.4206   0.8034     C
H       0.0295   0.0179   0.6455     H
H       0.0295   0.4821   0.1455     H
C       0.0303   0.1238   0.6132     C
C       0.0303   0.3762   0.1132     C
O       0.0304   0.7289   0.9135     O
O       0.0304   0.7711   0.4135     O
C       0.0315   0.5277   0.5402     C
C       0.0315   0.9723   0.0402     C
O       0.0336   0.5494   0.8115     O
O       0.0336   0.9506   0.3115     O
O       0.0409   0.1703   0.5983     O
O       0.0409   0.3297   0.0983     O
H       0.0424   0.1763   0.7452     H
H       0.0424   0.3237   0.2452     H
O       0.0435   0.2161   0.0504     O
O       0.0435   0.2839   0.5504     O
H       0.0446   0.2212   0.3202     H
H       0.0446   0.2788   0.8202     H
C       0.0447   0.1785    0.323     C
C       0.0447   0.3215    0.823     C
C        0.047    0.168   0.9868     C
C        0.047    0.332   0.4868     C
C       0.0481   0.0526    0.329     C
C       0.0481   0.4474    0.829     C
C       0.0486   0.0167   0.6298     C
C       0.0486   0.4833   0.1298     C
C       0.0489   0.1435   0.9563     C
C       0.0489   0.3565   0.4563     C
C       0.0505   0.5154   0.8315     C
C       0.0505   0.9846   0.3315     C
Gd     0.05109  0.64542  0.83986    Gd
Gd     0.05109  0.85458  0.33986    Gd
N       0.0522   0.0087    0.048     N
N       0.0522   0.4913    0.548     N
C       0.0536   0.6929   0.3511     C
C       0.0536   0.8071   0.8511     C
C       0.0549   0.0664   0.6106     C
C       0.0549   0.4336   0.1106     C
C       0.0578   0.2326   0.7071     C
C       0.0578   0.2674   0.2071     C
H       0.0579    0.726   0.4632     H
H       0.0579    0.774   0.9632     H
N        0.058    0.629   0.1562     N
N        0.058    0.871   0.6562     N
C       0.0581   0.6904   0.9173     C
C       0.0581   0.8096   0.4173     C
O       0.0596   0.7495   0.3429     O
O       0.0596   0.7505   0.8429     O
H       0.0603   0.5716   0.3542     H
H       0.0603   0.9284   0.8542     H
C       0.0608   0.2043   0.7381     C
C       0.0608   0.2957   0.2381     C
C        0.062    0.598   0.1338     C
C        0.062    0.902   0.6338     C
C       0.0628   0.1551   0.3485     C
C       0.0628   0.3449   0.8485     C
H       0.0633   0.2004    0.992     H
H       0.0633   0.2996    0.492     H
O       0.0646   0.1632   0.8013     O
O       0.0646   0.3368   0.3013     O
C       0.0649   0.0889   0.3507     C
C       0.0649   0.4111   0.8507     C
O        0.069    0.654    0.896     O
O        0.069    0.846    0.396     O
O       0.0696   0.5379   0.8544     O
O       0.0696   0.9621   0.3544     O
C       0.0719   0.5393   0.1256     C
C       0.0719   0.9607   0.6256     C
C       0.0735   0.7413   0.9695     C
C       0.0735   0.7587   0.4695     C
O       0.0749     0.04   0.8543     O
O       0.0749     0.46   0.3543     O
C       0.0772   0.1673   0.9342     C
C       0.0772   0.3327   0.4342     C
C       0.0776   0.6913   0.9489     C
C       0.0776   0.8087   0.4489     C
H       0.0784    0.071   0.3677     H
H       0.0784    0.429   0.8677     H
C       0.0802    0.586   0.3413     C
C       0.0802    0.914   0.8413     C
C       0.0827   0.6493   0.3351     C
C       0.0827   0.8507   0.8351     C
C       0.0842   0.0632   0.5876     C
C       0.0842   0.4368   0.0876     C
C       0.0847   0.1934   0.3726     C
H       0.0847   0.2099   0.1762     H
H       0.0847   0.2901   0.6762     H
C       0.0847   0.3066   0.8726     C
O       0.0849   0.1333   0.9096     O
O       0.0849   0.3667   0.4096     O
C       0.0852   0.2274   0.1968     C
C       0.0852   0.2726   0.6968     C
O       0.0861     0.25    0.366     O
O       0.0861     0.25    0.866     O
N       0.0869   0.6568   0.5345     N
N       0.0869   0.8432   0.0345     N
H       0.0883   0.0972   0.5743     H
H       0.0883   0.4028   0.0743     H
C       0.0907   0.6998   0.5186     C
C       0.0907   0.8002   0.0186     C
C       0.0918   0.2197   0.7574     C
C       0.0918   0.2803   0.2574     C
C        0.092   0.7446   0.9992     C
C        0.092   0.7554   0.4992     C
O       0.0928   0.2194   0.9384     O
O       0.0928   0.2806   0.4384     O
Gd     0.09304  0.14699  0.85377    Gd
Gd     0.09304  0.35301  0.35377    Gd
C       0.0944   0.1909   0.7908     C
C       0.0944   0.3091   0.2908     C
O       0.0989   0.1704   0.3977     O
O       0.0989   0.3296   0.8977     O
C       0.1008    0.022    0.836     C
C       0.1008    0.478    0.336     C
C        0.102   0.5394   0.1013     C
C        0.102   0.9606   0.6013     C
C       0.1021   0.6429   0.9587     C
C       0.1021   0.8571   0.4587     C
H       0.1038   0.6068   0.9465     H
H       0.1038   0.8932   0.4465     H
C       0.1053   0.5451   0.3293     C
C       0.1053   0.9549   0.8293     C
C        0.108   0.0106   0.5838     C
C        0.108   0.4894   0.0838     C
C       0.1126    0.215    0.218     C
C       0.1126    0.285    0.718     C
C        0.114   0.6692   0.3184     C
C        0.114   0.8308   0.8184     C
H       0.1169   0.5745   0.0982     H
H       0.1169   0.9255   0.5982     H
H       0.1179   0.7116   0.3162     H
H       0.1179   0.7884   0.8162     H
C       0.1181   0.6985   0.0082     C
C       0.1181   0.8015   0.5082     C
C       0.1196   0.2416   0.2478     C
C       0.1196   0.2584   0.7478     C
C       0.1229   0.6496   0.9861     C
C       0.1229   0.8504   0.4861     C
O       0.1245   0.1984   0.8073     O
O       0.1245   0.3016   0.3073     O
O       0.1246   0.0614   0.8237     O
O       0.1246   0.4386   0.3237     O
H       0.1314   0.7001   0.0276     H
H       0.1314   0.7999   0.5276     H
O       0.1321   0.1665   0.4814     O
O       0.1321   0.3335   0.9814     O
C       0.1348   0.5652   0.3103     C
C       0.1348   0.9348   0.8103     C
O       0.1371   0.0493   0.5371     O
O       0.1371   0.4507   0.0371     O
C       0.1393   0.0096   0.5602     C
C       0.1393   0.4904   0.0602     C
C       0.1405   0.6287   0.3045     C
C       0.1405   0.8713   0.8045     C
H       0.1406   0.2108   0.5219     H
H       0.1406   0.2892   0.0219     H
H       0.1415   0.2335   0.2599     H
H       0.1415   0.2665   0.7599     H
C       0.1416   0.2146   0.4995     C
C       0.1416   0.2854   0.9995     C
C       0.1418    0.179    0.208     C
C       0.1418    0.321    0.708     C
N       0.1425   0.6067   0.6194     N
N       0.1425   0.8933   0.1194     N
O       0.1443   0.5459   0.9877     O
O       0.1443   0.9541   0.4877     O
O       0.1446   0.0139   0.4238     O
O       0.1446   0.4861   0.9238     O
Gd     0.14633  0.21973  0.42994    Gd
Gd     0.14633  0.28027  0.92994    Gd
H       0.1488   0.0648   0.3893     H
H       0.1488   0.4352   0.8893     H
C       0.1501    0.061   0.4117     C
C       0.1501    0.439   0.9117     C
C       0.1512      0.6   0.9972     C
C       0.1512      0.9   0.4972     C
H       0.1514   0.5365    0.301     H
H       0.1514   0.9635    0.801     H
O       0.1517    0.236   0.9877     O
O       0.1517    0.264   0.4877     O
Gd      0.1543  0.05993  0.48324    Gd
O       0.1543   0.1516   0.8726     O
O       0.1543   0.3484   0.3726     O
Gd      0.1543  0.44007  0.98324    Gd
O       0.1583     0.11   0.4301     O
O       0.1583     0.39   0.9301     O
N       0.1627    0.141   0.1998     N
N       0.1627    0.359   0.6998     N
O        0.164   0.5307   0.0633     O
O        0.164   0.9693   0.5633     O
C       0.1684   0.6261   0.6029     C
C       0.1684   0.8739   0.1029     C
O       0.1727   0.1818   0.9211     O
O       0.1727   0.3182   0.4211     O
C       0.1728    0.653    0.284     C
C       0.1728    0.847    0.784     C
C       0.1736   0.1453   0.8983     C
C       0.1736   0.3547   0.3983     C
O       0.1779   0.6152   0.0146     O
O       0.1779   0.8848   0.5146     O
H       0.1821   0.7407   0.5926     H
H       0.1821   0.7593   0.0926     H
H       0.1928   0.0594   0.8557     H
H       0.1928   0.4406   0.3557     H
C       0.1954   0.6527   0.5836     C
C       0.1954   0.8473   0.0836     C
N       0.1962   0.6707   0.2674     N
N       0.1962   0.8293   0.7674     N
C       0.1988   0.7157   0.5809     C
C       0.1988   0.7843   0.0809     C
O       0.1998   0.1252   0.5106     O
O       0.1998   0.3748   0.0106     O
C       0.2004   0.0896    0.903     C
C       0.2004   0.4104    0.403     C
C       0.2048   0.0504   0.8752     C
C       0.2048   0.4496   0.3752     C
O       0.2073   0.6553    0.075     O
O       0.2073   0.8447    0.575     O
O       0.2116   0.0255   0.4658     O
O       0.2116   0.4745   0.9658     O
H       0.2154   0.1052   0.9488     H
H       0.2154   0.3948   0.4488     H
C       0.2188   0.0786   0.9313     C
C       0.2188   0.4214   0.4313     C
H       0.2188    0.571   0.5675     H
H       0.2188    0.929   0.0675     H
C        0.221   0.6139   0.5664     C
C        0.221   0.8861   0.0664     C
C       0.2234   0.1002   0.5304     C
C       0.2234   0.3998   0.0304     C
Gd      0.2234  0.56248  0.04341    Gd
Gd      0.2234  0.93752  0.54341    Gd
O       0.2254   0.0421   0.5361     O
O       0.2254   0.4579   0.0361     O
C       0.2258   0.7432   0.5617     C
C       0.2258   0.7568   0.0617     C
C        0.227   0.6881    0.057     C
C        0.227   0.8119    0.557     C
C       0.2278    0.501   0.3786     C
C       0.2278    0.999   0.8786     C
H       0.2312   0.2225   0.5315     H
H       0.2312   0.2775   0.0315     H
H        0.234   0.0385   0.4086     H
H        0.234   0.4615   0.9086     H
C       0.2347   0.5406   0.3514     C
C       0.2347   0.9594   0.8514     C
C       0.2357   0.5214   0.9648     C
C       0.2357   0.9786   0.4648     C
N       0.2395   0.5722   0.3309     N
N       0.2395   0.9278   0.8309     N
C       0.2418   0.0294    0.934     C
C       0.2418   0.4706    0.434     C
O       0.2434   0.5549   0.9885     O
O       0.2434   0.9451   0.4885     O
C       0.2476   0.5075   0.4072     C
C       0.2476   0.9925   0.9072     C
C       0.2488   0.6407   0.5483     C
C       0.2488   0.8593   0.0483     C
O       0.2494   0.1671   0.0374     O
O       0.2494   0.3329   0.5374     O
C       0.2495   0.2051   0.5451     C
C       0.2495   0.2949   0.0451     C
C       0.2505   0.7051   0.5451     C
C       0.2505   0.7949   0.0451     C
O       0.2506   0.6671   0.0374     O
O       0.2506   0.8329   0.5374     O
C       0.2512   0.1407   0.5483     C
C       0.2512   0.3593   0.0483     C
C       0.2524   0.0075   0.4072     C
C       0.2524   0.4925   0.9072     C
O       0.2566   0.0549   0.9885     O
O       0.2566   0.4451   0.4885     O
C       0.2582   0.5294    0.934     C
C       0.2582   0.9706    0.434     C
N       0.2605   0.0722   0.3309     N
N       0.2605   0.4278   0.8309     N
C       0.2643   0.0214   0.9648     C
C       0.2643   0.4786   0.4648     C
C       0.2653   0.0406   0.3514     C
C       0.2653   0.4594   0.8514     C
H        0.266   0.5385   0.4086     H
H        0.266   0.9615   0.9086     H
H       0.2688   0.7225   0.5315     H
H       0.2688   0.7775   0.0315     H
C       0.2722    0.001   0.3786     C
C       0.2722    0.499   0.8786     C
C        0.273   0.1881    0.057     C
C        0.273   0.3119    0.557     C
C       0.2742   0.2432   0.5617     C
C       0.2742   0.2568   0.0617     C
O       0.2746   0.5421   0.5361     O
O       0.2746   0.9579   0.0361     O
Gd      0.2766  0.06248  0.04341    Gd
Gd      0.2766  0.43752  0.54341    Gd
C       0.2766   0.6002   0.5304     C
C       0.2766   0.8998   0.0304     C
C        0.279   0.1139   0.5664     C
C        0.279   0.3861   0.0664     C
H       0.2812    0.071   0.5675     H
H       0.2812    0.429   0.0675     H
C       0.2812   0.5786   0.9313     C
C       0.2812   0.9214   0.4313     C
H       0.2846   0.6052   0.9488     H
H       0.2846   0.8948   0.4488     H
O       0.2884   0.5255   0.4658     O
O       0.2884   0.9745   0.9658     O
O       0.2927   0.1553    0.075     O
O       0.2927   0.3447    0.575     O
C       0.2952   0.5504   0.8752     C
C       0.2952   0.9496   0.3752     C
C       0.2996   0.5896    0.903     C
C       0.2996   0.9104    0.403     C
O       0.3002   0.6252   0.5106     O
O       0.3002   0.8748   0.0106     O
C       0.3012   0.2157   0.5809     C
C       0.3012   0.2843   0.0809     C
N       0.3038   0.1707   0.2674     N
N       0.3038   0.3293   0.7674     N
C       0.3046   0.1527   0.5836     C
C       0.3046   0.3473   0.0836     C
H       0.3072   0.5594   0.8557     H
H       0.3072   0.9406   0.3557     H
H       0.3179   0.2407   0.5926     H
H       0.3179   0.2593   0.0926     H
O       0.3221   0.1152   0.0146     O
O       0.3221   0.3848   0.5146     O
C       0.3264   0.6453   0.8983     C
C       0.3264   0.8547   0.3983     C
C       0.3272    0.153    0.284     C
C       0.3272    0.347    0.784     C
O       0.3273   0.6818   0.9211     O
O       0.3273   0.8182   0.4211     O
C       0.3316   0.1261   0.6029     C
C       0.3316   0.3739   0.1029     C
O        0.336   0.0307   0.0633     O
O        0.336   0.4693   0.5633     O
N       0.3373    0.641   0.1998     N
N       0.3373    0.859   0.6998     N
O       0.3417     0.61   0.4301     O
O       0.3417     0.89   0.9301     O
Gd      0.3457  0.55993  0.48324    Gd
O       0.3457   0.6516   0.8726     O
O       0.3457   0.8484   0.3726     O
Gd      0.3457  0.94007  0.98324    Gd
O       0.3483    0.736   0.9877     O
O       0.3483    0.764   0.4877     O
H       0.3486   0.0365    0.301     H
H       0.3486   0.4635    0.801     H
C       0.3488      0.1   0.9972     C
C       0.3488      0.4   0.4972     C
C       0.3499    0.561   0.4117     C
C       0.3499    0.939   0.9117     C
H       0.3512   0.5648   0.3893     H
H       0.3512   0.9352   0.8893     H
Gd     0.35367  0.71973  0.42994    Gd
Gd     0.35367  0.78027  0.92994    Gd
O       0.3554   0.5139   0.4238     O
O       0.3554   0.9861   0.9238     O
O       0.3557   0.0459   0.9877     O
O       0.3557   0.4541   0.4877     O
N       0.3575   0.1067   0.6194     N
N       0.3575   0.3933   0.1194     N
C       0.3582    0.679    0.208     C
C       0.3582    0.821    0.708     C
C       0.3584   0.7146   0.4995     C
C       0.3584   0.7854   0.9995     C
H       0.3585   0.7335   0.2599     H
H       0.3585   0.7665   0.7599     H
H       0.3594   0.7108   0.5219     H
H       0.3594   0.7892   0.0219     H
C       0.3595   0.1287   0.3045     C
C       0.3595   0.3713   0.8045     C
C       0.3607   0.5096   0.5602     C
C       0.3607   0.9904   0.0602     C
O       0.3629   0.5493   0.5371     O
O       0.3629   0.9507   0.0371     O
C       0.3652   0.0652   0.3103     C
C       0.3652   0.4348   0.8103     C
O       0.3679   0.6665   0.4814     O
O       0.3679   0.8335   0.9814     O
H       0.3686   0.2001   0.0276     H
H       0.3686   0.2999   0.5276     H
O       0.3754   0.5614   0.8237     O
O       0.3754   0.9386   0.3237     O
O       0.3755   0.6984   0.8073     O
O       0.3755   0.8016   0.3073     O
C       0.3771   0.1496   0.9861     C
C       0.3771   0.3504   0.4861     C
C       0.3804   0.7416   0.2478     C
C       0.3804   0.7584   0.7478     C
C       0.3819   0.1985   0.0082     C
C       0.3819   0.3015   0.5082     C
H       0.3821   0.2116   0.3162     H
H       0.3821   0.2884   0.8162     H
H       0.3831   0.0745   0.0982     H
H       0.3831   0.4255   0.5982     H
C        0.386   0.1692   0.3184     C
C        0.386   0.3308   0.8184     C
C       0.3874    0.715    0.218     C
C       0.3874    0.785    0.718     C
C        0.392   0.5106   0.5838     C
C        0.392   0.9894   0.0838     C
C       0.3947   0.0451   0.3293     C
C       0.3947   0.4549   0.8293     C
H       0.3962   0.1068   0.9465     H
H       0.3962   0.3932   0.4465     H
C       0.3979   0.1429   0.9587     C
C       0.3979   0.3571   0.4587     C
C        0.398   0.0394   0.1013     C
C        0.398   0.4606   0.6013     C
C       0.3992    0.522    0.836     C
C       0.3992    0.978    0.336     C
O       0.4011   0.6704   0.3977     O
O       0.4011   0.8296   0.8977     O
C       0.4056   0.6909   0.7908     C
C       0.4056   0.8091   0.2908     C
Gd     0.40696  0.64699  0.85377    Gd
Gd     0.40696  0.85301  0.35377    Gd
O       0.4072   0.7194   0.9384     O
O       0.4072   0.7806   0.4384     O
C        0.408   0.2446   0.9992     C
C        0.408   0.2554   0.4992     C
C       0.4082   0.7197   0.7574     C
C       0.4082   0.7803   0.2574     C
C       0.4093   0.1998   0.5186     C
C       0.4093   0.3002   0.0186     C
H       0.4117   0.5972   0.5743     H
H       0.4117   0.9028   0.0743     H
N       0.4131   0.1568   0.5345     N
N       0.4131   0.3432   0.0345     N
O       0.4139     0.75    0.366     O
O       0.4139     0.75    0.866     O
C       0.4148   0.7274   0.1968     C
C       0.4148   0.7726   0.6968     C
O       0.4151   0.6333   0.9096     O
O       0.4151   0.8667   0.4096     O
C       0.4153   0.6934   0.3726     C
H       0.4153   0.7099   0.1762     H
H       0.4153   0.7901   0.6762     H
C       0.4153   0.8066   0.8726     C
C       0.4158   0.5632   0.5876     C
C       0.4158   0.9368   0.0876     C
C       0.4173   0.1493   0.3351     C
C       0.4173   0.3507   0.8351     C
C       0.4198    0.086   0.3413     C
C       0.4198    0.414   0.8413     C
H       0.4216    0.571   0.3677     H
H       0.4216    0.929   0.8677     H
C       0.4224   0.1913   0.9489     C
C       0.4224   0.3087   0.4489     C
C       0.4228   0.6673   0.9342     C
C       0.4228   0.8327   0.4342     C
O       0.4251     0.54   0.8543     O
O       0.4251     0.96   0.3543     O
C       0.4265   0.2413   0.9695     C
C       0.4265   0.2587   0.4695     C
C       0.4281   0.0393   0.1256     C
C       0.4281   0.4607   0.6256     C
O       0.4304   0.0379   0.8544     O
O       0.4304   0.4621   0.3544     O
O        0.431    0.154    0.896     O
O        0.431    0.346    0.396     O
C       0.4351   0.5889   0.3507     C
C       0.4351   0.9111   0.8507     C
O       0.4354   0.6632   0.8013     O
O       0.4354   0.8368   0.3013     O
H       0.4367   0.7004    0.992     H
H       0.4367   0.7996    0.492     H
C       0.4372   0.6551   0.3485     C
C       0.4372   0.8449   0.8485     C
C        0.438    0.098   0.1338     C
C        0.438    0.402   0.6338     C
C       0.4392   0.7043   0.7381     C
C       0.4392   0.7957   0.2381     C
H       0.4397   0.0716   0.3542     H
H       0.4397   0.4284   0.8542     H
O       0.4404   0.2495   0.3429     O
O       0.4404   0.2505   0.8429     O
C       0.4419   0.1904   0.9173     C
C       0.4419   0.3096   0.4173     C
N        0.442    0.129   0.1562     N
N        0.442    0.371   0.6562     N
H       0.4421    0.226   0.4632     H
H       0.4421    0.274   0.9632     H
C       0.4422   0.7326   0.7071     C
C       0.4422   0.7674   0.2071     C
C       0.4451   0.5664   0.6106     C
C       0.4451   0.9336   0.1106     C
C       0.4464   0.1929   0.3511     C
C       0.4464   0.3071   0.8511     C
N       0.4478   0.5087    0.048     N
N       0.4478   0.9913    0.548     N
Gd     0.44891  0.14542  0.83986    Gd
Gd     0.44891  0.35458  0.33986    Gd
C       0.4495   0.0154   0.8315     C
C       0.4495   0.4846   0.3315     C
C       0.4511   0.6435   0.9563     C
C       0.4511   0.8565   0.4563     C
C       0.4514   0.5167   0.6298     C
C       0.4514   0.9833   0.1298     C
C       0.4519   0.5526    0.329     C
C       0.4519   0.9474    0.829     C
C        0.453    0.668   0.9868     C
C        0.453    0.832   0.4868     C
C       0.4553   0.6785    0.323     C
C       0.4553   0.8215    0.823     C
H       0.4554   0.7212   0.3202     H
H       0.4554   0.7788   0.8202     H
O       0.4565   0.7161   0.0504     O
O       0.4565   0.7839   0.5504     O
H       0.4576   0.6763   0.7452     H
H       0.4576   0.8237   0.2452     H
O       0.4591   0.6703   0.5983     O
O       0.4591   0.8297   0.0983     O
O       0.4664   0.0494   0.8115     O
O       0.4664   0.4506   0.3115     O
C       0.4685   0.0277   0.5402     C
C       0.4685   0.4723   0.0402     C
O       0.4696   0.2289   0.9135     O
O       0.4696   0.2711   0.4135     O
C       0.4697   0.6238   0.6132     C
C       0.4697   0.8762   0.1132     C
H       0.4705   0.5179   0.6455     H
H       0.4705   0.9821   0.1455     H
C       0.4712   0.5794   0.3034     C
C       0.4712   0.9206   0.8034     C
O       0.4718    0.172   0.3682     O
O       0.4718    0.328   0.8682     O
O       0.4737   0.7435   0.6581     O
O       0.4737   0.7565   0.1581     O
C        0.474   0.6413   0.3002     C
C        0.474   0.7153   0.6863     C
C        0.474   0.7847   0.1863     C
C        0.474   0.8587   0.8002     C
H       0.4758   0.5813    0.927     H
H       0.4758   0.9187    0.427     H
C       0.4767    0.598   0.9478     C
C       0.4767    0.902   0.4478     C
Gd     0.47767  0.72427  0.10593    Gd
Gd     0.47767  0.77573  0.60593    Gd
H       0.4778   0.0849   0.4844     H
H       0.4778   0.4151   0.9844     H
C        0.478   0.6472     0.01     C
C        0.478   0.6717   0.0429     C
C        0.478   0.8283   0.5429     C
C        0.478   0.8528     0.51     C
H       0.4825    0.554   0.2879     H
H       0.4825    0.946   0.7879     H
N       0.4875   0.1861   0.2483     N
N       0.4875   0.3139   0.7483     N
C        0.495   0.6677   0.2737     C
C        0.495   0.8323   0.7737     C
C       0.4954   0.0999   0.4994     C
C       0.4954   0.4001   0.9994     C
C       0.4958   0.0765   0.5302     C
C       0.4958   0.4235   0.0302     C
O       0.4965   0.6185   0.6326     O
O       0.4965   0.8815   0.1326     O
O       0.4989   0.6795   0.6948     O
O       0.4989   0.8205   0.1948     O
O        0.499   0.1492   0.4356     O
O        0.499   0.3508   0.9356     O
O        0.501   0.6492   0.0644     O
O        0.501   0.8508   0.5644     O
O       0.5011   0.1795   0.8052     O
O       0.5011   0.3205   0.3052     O
O       0.5035   0.1185   0.8674     O
O       0.5035   0.3815   0.3674     O
C       0.5042   0.5765   0.9698     C
C       0.5042   0.9235   0.4698     C
C       0.5046   0.5999   0.0006     C
C       0.5046   0.9001   0.5006     C
C        0.505   0.1677   0.2263     C
C        0.505   0.3323   0.7263     C
N       0.5125   0.6861   0.2517     N
N       0.5125   0.8139   0.7517     N
H       0.5175    0.054   0.2121     H
H       0.5175    0.446   0.7121     H
C        0.522   0.1472     0.49     C
C        0.522   0.1717   0.4571     C
C        0.522   0.3283   0.9571     C
C        0.522   0.3528     0.99     C
H       0.5222   0.5849   0.0156     H
H       0.5222   0.9151   0.5156     H
Gd     0.52233  0.22427  0.39407    Gd
Gd     0.52233  0.27573  0.89407    Gd
C       0.5233    0.098   0.5522     C
C       0.5233    0.402   0.0522     C
H       0.5242   0.0813    0.573     H
H       0.5242   0.4187    0.073     H
C        0.526   0.1413   0.1998     C
C        0.526   0.2153   0.8137     C
C        0.526   0.2847   0.3137     C
C        0.526   0.3587   0.6998     C
O       0.5263   0.2435   0.8419     O
O       0.5263   0.2565   0.3419     O
O       0.5282    0.672   0.1318     O
O       0.5282    0.828   0.6318     O
C       0.5288   0.0794   0.1966     C
C       0.5288   0.4206   0.6966     C
H       0.5295   0.0179   0.8545     H
H       0.5295   0.4821   0.3545     H
C       0.5303   0.1238   0.8868     C
C       0.5303   0.3762   0.3868     C
O       0.5304   0.7289   0.5865     O
O       0.5304   0.7711   0.0865     O
C       0.5315   0.5277   0.9598     C
C       0.5315   0.9723   0.4598     C
O       0.5336   0.5494   0.6885     O
O       0.5336   0.9506   0.1885     O
O       0.5409   0.1703   0.9017     O
O       0.5409   0.3297   0.4017     O
H       0.5424   0.1763   0.7548     H
H       0.5424   0.3237   0.2548     H
O       0.5435   0.2161   0.4496     O
O       0.5435   0.2839   0.9496     O
H       0.5446   0.2212   0.1798     H
H       0.5446   0.2788   0.6798     H
C       0.5447   0.1785    0.177     C
C       0.5447   0.3215    0.677     C
C        0.547    0.168   0.5132     C
C        0.547    0.332   0.0132     C
C       0.5481   0.0526    0.171     C
C       0.5481   0.4474    0.671     C
C       0.5486   0.0167   0.8702     C
C       0.5486   0.4833   0.3702     C
C       0.5489   0.1435   0.5437     C
C       0.5489   0.3565   0.0437     C
C       0.5505   0.5154   0.6685     C
C       0.5505   0.9846   0.1685     C
Gd     0.55109  0.64542  0.66014    Gd
Gd     0.55109  0.85458  0.16014    Gd
N       0.5522   0.0087    0.452     N
N       0.5522   0.4913    0.952     N
C       0.5536   0.6929   0.1489     C
C       0.5536   0.8071   0.6489     C
C       0.5549   0.0664   0.8894     C
C       0.5549   0.4336   0.3894     C
C       0.5578   0.2326   0.7929     C
C       0.5578   0.2674   0.2929     C
H       0.5579    0.726   0.0368     H
H       0.5579    0.774   0.5368     H
N        0.558    0.629   0.3438     N
N        0.558    0.871   0.8438     N
C       0.5581   0.6904   0.5827     C
C       0.5581   0.8096   0.0827     C
O       0.5596   0.7495   0.1571     O
O       0.5596   0.7505   0.6571     O
H       0.5603   0.5716   0.1458     H
H       0.5603   0.9284   0.6458     H
C       0.5608   0.2043   0.7619     C
C       0.5608   0.2957   0.2619     C
C        0.562    0.598   0.3662     C
C        0.562    0.902   0.8662     C
C       0.5628   0.1551   0.1515     C
C       0.5628   0.3449   0.6515     C
H       0.5633   0.2004    0.508     H
H       0.5633   0.2996    0.008     H
O       0.5646   0.1632   0.6987     O
O       0.5646   0.3368   0.1987     O
C       0.5649   0.0889   0.1493     C
C       0.5649   0.4111   0.6493     C
O        0.569    0.654    0.604     O
O        0.569    0.846    0.104     O
O       0.5696   0.5379   0.6456     O
O       0.5696   0.9621   0.1456     O
C       0.5719   0.5393   0.3744     C
C       0.5719   0.9607   0.8744     C
C       0.5735   0.7413   0.5305     C
C       0.5735   0.7587   0.0305     C
O       0.5749     0.04   0.6457     O
O       0.5749     0.46   0.1457     O
C       0.5772   0.1673   0.5658     C
C       0.5772   0.3327   0.0658     C
C       0.5776   0.6913   0.5511     C
C       0.5776   0.8087   0.0511     C
H       0.5784    0.071   0.1323     H
H       0.5784    0.429   0.6323     H
C       0.5802    0.586   0.1587     C
C       0.5802    0.914   0.6587     C
C       0.5827   0.6493   0.1649     C
C       0.5827   0.8507   0.6649     C
C       0.5842   0.0632   0.9124     C
C       0.5842   0.4368   0.4124     C
C       0.5847   0.1934   0.1274     C
H       0.5847   0.2099   0.3238     H
H       0.5847   0.2901   0.8238     H
C       0.5847   0.3066   0.6274     C
O       0.5849   0.1333   0.5904     O
O       0.5849   0.3667   0.0904     O
C       0.5852   0.2274   0.3032     C
C       0.5852   0.2726   0.8032     C
O       0.5861     0.25    0.134     O
O       0.5861     0.25    0.634     O
N       0.5869   0.6568   0.9655     N
N       0.5869   0.8432   0.4655     N
H       0.5883   0.0972   0.9257     H
H       0.5883   0.4028   0.4257     H
C       0.5907   0.6998   0.9814     C
C       0.5907   0.8002   0.4814     C
C       0.5918   0.2197   0.7426     C
C       0.5918   0.2803   0.2426     C
C        0.592   0.7446   0.5008     C
C        0.592   0.7554   0.0008     C
O       0.5928   0.2194   0.5616     O
O       0.5928   0.2806   0.0616     O
Gd     0.59304  0.14699  0.64623    Gd
Gd     0.59304  0.35301  0.14623    Gd
C       0.5944   0.1909   0.7092     C
C       0.5944   0.3091   0.2092     C
O       0.5989   0.1704   0.1023     O
O       0.5989   0.3296   0.6023     O
C       0.6008    0.022    0.664     C
C       0.6008    0.478    0.164     C
C        0.602   0.5394   0.3987     C
C        0.602   0.9606   0.8987     C
C       0.6021   0.6429   0.5413     C
C       0.6021   0.8571   0.0413     C
H       0.6038   0.6068   0.5535     H
H       0.6038   0.8932   0.0535     H
C       0.6053   0.5451   0.1707     C
C       0.6053   0.9549   0.6707     C
C        0.608   0.0106   0.9162     C
C        0.608   0.4894   0.4162     C
C       0.6126    0.215    0.282     C
C       0.6126    0.285    0.782     C
C        0.614   0.6692   0.1816     C
C        0.614   0.8308   0.6816     C
H       0.6169   0.5745   0.4018     H
H       0.6169   0.9255   0.9018     H
H       0.6179   0.7116   0.1838     H
H       0.6179   0.7884   0.6838     H
C       0.6181   0.6985   0.4918     C
C       0.6181   0.8015   0.9918     C
C       0.6196   0.2416   0.2522     C
C       0.6196   0.2584   0.7522     C
C       0.6229   0.6496   0.5139     C
C       0.6229   0.8504   0.0139     C
O       0.6245   0.1984   0.6927     O
O       0.6245   0.3016   0.1927     O
O       0.6246   0.0614   0.6763     O
O       0.6246   0.4386   0.1763     O
H       0.6314   0.7001   0.4724     H
H       0.6314   0.7999   0.9724     H
O       0.6321   0.1665   0.0186     O
O       0.6321   0.3335   0.5186     O
C       0.6348   0.5652   0.1897     C
C       0.6348   0.9348   0.6897     C
O       0.6371   0.0493   0.9629     O
O       0.6371   0.4507   0.4629     O
C       0.6393   0.0096   0.9398     C
C       0.6393   0.4904   0.4398     C
C       0.6405   0.6287   0.1955     C
C       0.6405   0.8713   0.6955     C
H       0.6406   0.2108   0.9781     H
H       0.6406   0.2892   0.4781     H
H       0.6415   0.2335   0.2401     H
H       0.6415   0.2665   0.7401     H
C       0.6416   0.2146   0.0005     C
C       0.6416   0.2854   0.5005     C
C       0.6418    0.179    0.292     C
C       0.6418    0.321    0.792     C
N       0.6425   0.6067   0.8806     N
N       0.6425   0.8933   0.3806     N
O       0.6443   0.5459   0.5123     O
O       0.6443   0.9541   0.0123     O
O       0.6446   0.0139   0.0762     O
O       0.6446   0.4861   0.5762     O
Gd     0.64633  0.21973  0.07006    Gd
Gd     0.64633  0.28027  0.57006    Gd
H       0.6488   0.0648   0.1107     H
H       0.6488   0.4352   0.6107     H
C       0.6501    0.061   0.0883     C
C       0.6501    0.439   0.5883     C
C       0.6512      0.6   0.5028     C
C       0.6512      0.9   0.0028     C
H       0.6514   0.5365    0.199     H
H       0.6514   0.9635    0.699     H
O       0.6517    0.236   0.5123     O
O       0.6517    0.264   0.0123     O
Gd      0.6543  0.05993  0.01676    Gd
O       0.6543   0.1516   0.6274     O
O       0.6543   0.3484   0.1274     O
Gd      0.6543  0.44007  0.51676    Gd
O       0.6583     0.11   0.0699     O
O       0.6583     0.39   0.5699     O
N       0.6627    0.141   0.3002     N
N       0.6627    0.359   0.8002     N
O        0.664   0.5307   0.4367     O
O        0.664   0.9693   0.9367     O
C       0.6684   0.6261   0.8971     C
C       0.6684   0.8739   0.3971     C
O       0.6727   0.1818   0.5789     O
O       0.6727   0.3182   0.0789     O
C       0.6728    0.653    0.216     C
C       0.6728    0.847    0.716     C
C       0.6736   0.1453   0.6017     C
C       0.6736   0.3547   0.1017     C
O       0.6779   0.6152   0.4854     O
O       0.6779   0.8848   0.9854     O
H       0.6821   0.7407   0.9074     H
H       0.6821   0.7593   0.4074     H
H       0.6928   0.0594   0.6443     H
H       0.6928   0.4406   0.1443     H
C       0.6954   0.6527   0.9164     C
C       0.6954   0.8473   0.4164     C
N       0.6962   0.6707   0.2326     N
N       0.6962   0.8293   0.7326     N
C       0.6988   0.7157   0.9191     C
C       0.6988   0.7843   0.4191     C
O       0.6998   0.1252   0.9894     O
O       0.6998   0.3748   0.4894     O
C       0.7004   0.0896    0.597     C
C       0.7004   0.4104    0.097     C
C       0.7048   0.0504   0.6248     C
C       0.7048   0.4496   0.1248     C
O       0.7073   0.6553    0.425     O
O       0.7073   0.8447    0.925     O
O       0.7116   0.0255   0.0342     O
O       0.7116   0.4745   0.5342     O
H       0.7154   0.1052   0.5512     H
H       0.7154   0.3948   0.0512     H
C       0.7188   0.0786   0.5687     C
C       0.7188   0.4214   0.0687     C
H       0.7188    0.571   0.9325     H
H       0.7188    0.929   0.4325     H
C        0.721   0.6139   0.9336     C
C        0.721   0.8861   0.4336     C
C       0.7234   0.1002   0.9696     C
C       0.7234   0.3998   0.4696     C
Gd      0.7234  0.56248  0.45659    Gd
Gd      0.7234  0.93752  0.95659    Gd
O       0.7254   0.0421   0.9639     O
O       0.7254   0.4579   0.4639     O
C       0.7258   0.7432   0.9383     C
C       0.7258   0.7568   0.4383     C
C        0.727   0.6881    0.443     C
C        0.727   0.8119    0.943     C
C       0.7278    0.501   0.1214     C
C       0.7278    0.999   0.6214     C
H       0.7312   0.2225   0.9685     H
H       0.7312   0.2775   0.4685     H
H        0.734   0.0385   0.0914     H
H        0.734   0.4615   0.5914     H
C       0.7347   0.5406   0.1486     C
C       0.7347   0.9594   0.6486     C
C       0.7357   0.5214   0.5352     C
C       0.7357   0.9786   0.0352     C
N       0.7395   0.5722   0.1691     N
N       0.7395   0.9278   0.6691     N
C       0.7418   0.0294    0.566     C
C       0.7418   0.4706    0.066     C
O       0.7434   0.5549   0.5115     O
O       0.7434   0.9451   0.0115     O
C       0.7476   0.5075   0.0928     C
C       0.7476   0.9925   0.5928     C
C       0.7488   0.6407   0.9517     C
C       0.7488   0.8593   0.4517     C
O       0.7494   0.1671   0.4626     O
O       0.7494   0.3329   0.9626     O
C       0.7495   0.2051   0.9549     C
C       0.7495   0.2949   0.4549     C
C       0.7505   0.7051   0.9549     C
C       0.7505   0.7949   0.4549     C
O       0.7506   0.6671   0.4626     O
O       0.7506   0.8329   0.9626     O
C       0.7512   0.1407   0.9517     C
C       0.7512   0.3593   0.4517     C
C       0.7524   0.0075   0.0928     C
C       0.7524   0.4925   0.5928     C
O       0.7566   0.0549   0.5115     O
O       0.7566   0.4451   0.0115     O
C       0.7582   0.5294    0.566     C
C       0.7582   0.9706    0.066     C
N       0.7605   0.0722   0.1691     N
N       0.7605   0.4278   0.6691     N
C       0.7643   0.0214   0.5352     C
C       0.7643   0.4786   0.0352     C
C       0.7653   0.0406   0.1486     C
C       0.7653   0.4594   0.6486     C
H        0.766   0.5385   0.0914     H
H        0.766   0.9615   0.5914     H
H       0.7688   0.7225   0.9685     H
H       0.7688   0.7775   0.4685     H
C       0.7722    0.001   0.1214     C
C       0.7722    0.499   0.6214     C
C        0.773   0.1881    0.443     C
C        0.773   0.3119    0.943     C
C       0.7742   0.2432   0.9383     C
C       0.7742   0.2568   0.4383     C
O       0.7746   0.5421   0.9639     O
O       0.7746   0.9579   0.4639     O
Gd      0.7766  0.06248  0.45659    Gd
Gd      0.7766  0.43752  0.95659    Gd
C       0.7766   0.6002   0.9696     C
C       0.7766   0.8998   0.4696     C
C        0.779   0.1139   0.9336     C
C        0.779   0.3861   0.4336     C
H       0.7812    0.071   0.9325     H
H       0.7812    0.429   0.4325     H
C       0.7812   0.5786   0.5687     C
C       0.7812   0.9214   0.0687     C
H       0.7846   0.6052   0.5512     H
H       0.7846   0.8948   0.0512     H
O       0.7884   0.5255   0.0342     O
O       0.7884   0.9745   0.5342     O
O       0.7927   0.1553    0.425     O
O       0.7927   0.3447    0.925     O
C       0.7952   0.5504   0.6248     C
C       0.7952   0.9496   0.1248     C
C       0.7996   0.5896    0.597     C
C       0.7996   0.9104    0.097     C
O       0.8002   0.6252   0.9894     O
O       0.8002   0.8748   0.4894     O
C       0.8012   0.2157   0.9191     C
C       0.8012   0.2843   0.4191     C
N       0.8038   0.1707   0.2326     N
N       0.8038   0.3293   0.7326     N
C       0.8046   0.1527   0.9164     C
C       0.8046   0.3473   0.4164     C
H       0.8072   0.5594   0.6443     H
H       0.8072   0.9406   0.1443     H
H       0.8179   0.2407   0.9074     H
H       0.8179   0.2593   0.4074     H
O       0.8221   0.1152   0.4854     O
O       0.8221   0.3848   0.9854     O
C       0.8264   0.6453   0.6017     C
C       0.8264   0.8547   0.1017     C
C       0.8272    0.153    0.216     C
C       0.8272    0.347    0.716     C
O       0.8273   0.6818   0.5789     O
O       0.8273   0.8182   0.0789     O
C       0.8316   0.1261   0.8971     C
C       0.8316   0.3739   0.3971     C
O        0.836   0.0307   0.4367     O
O        0.836   0.4693   0.9367     O
N       0.8373    0.641   0.3002     N
N       0.8373    0.859   0.8002     N
O       0.8417     0.61   0.0699     O
O       0.8417     0.89   0.5699     O
Gd      0.8457  0.55993  0.01676    Gd
O       0.8457   0.6516   0.6274     O
O       0.8457   0.8484   0.1274     O
Gd      0.8457  0.94007  0.51676    Gd
O       0.8483    0.736   0.5123     O
O       0.8483    0.764   0.0123     O
H       0.8486   0.0365    0.199     H
H       0.8486   0.4635    0.699     H
C       0.8488      0.1   0.5028     C
C       0.8488      0.4   0.0028     C
C       0.8499    0.561   0.0883     C
C       0.8499    0.939   0.5883     C
H       0.8512   0.5648   0.1107     H
H       0.8512   0.9352   0.6107     H
Gd     0.85367  0.71973  0.07006    Gd
Gd     0.85367  0.78027  0.57006    Gd
O       0.8554   0.5139   0.0762     O
O       0.8554   0.9861   0.5762     O
O       0.8557   0.0459   0.5123     O
O       0.8557   0.4541   0.0123     O
N       0.8575   0.1067   0.8806     N
N       0.8575   0.3933   0.3806     N
C       0.8582    0.679    0.292     C
C       0.8582    0.821    0.792     C
C       0.8584   0.7146   0.0005     C
C       0.8584   0.7854   0.5005     C
H       0.8585   0.7335   0.2401     H
H       0.8585   0.7665   0.7401     H
H       0.8594   0.7108   0.9781     H
H       0.8594   0.7892   0.4781     H
C       0.8595   0.1287   0.1955     C
C       0.8595   0.3713   0.6955     C
C       0.8607   0.5096   0.9398     C
C       0.8607   0.9904   0.4398     C
O       0.8629   0.5493   0.9629     O
O       0.8629   0.9507   0.4629     O
C       0.8652   0.0652   0.1897     C
C       0.8652   0.4348   0.6897     C
O       0.8679   0.6665   0.0186     O
O       0.8679   0.8335   0.5186     O
H       0.8686   0.2001   0.4724     H
H       0.8686   0.2999   0.9724     H
O       0.8754   0.5614   0.6763     O
O       0.8754   0.9386   0.1763     O
O       0.8755   0.6984   0.6927     O
O       0.8755   0.8016   0.1927     O
C       0.8771   0.1496   0.5139     C
C       0.8771   0.3504   0.0139     C
C       0.8804   0.7416   0.2522     C
C       0.8804   0.7584   0.7522     C
C       0.8819   0.1985   0.4918     C
C       0.8819   0.3015   0.9918     C
H       0.8821   0.2116   0.1838     H
H       0.8821   0.2884   0.6838     H
H       0.8831   0.0745   0.4018     H
H       0.8831   0.4255   0.9018     H
C        0.886   0.1692   0.1816     C
C        0.886   0.3308   0.6816     C
C       0.8874    0.715    0.282     C
C       0.8874    0.785    0.782     C
C        0.892   0.5106   0.9162     C
C        0.892   0.9894   0.4162     C
C       0.8947   0.0451   0.1707     C
C       0.8947   0.4549   0.6707     C
H       0.8962   0.1068   0.5535     H
H       0.8962   0.3932   0.0535     H
C       0.8979   0.1429   0.5413     C
C       0.8979   0.3571   0.0413     C
C        0.898   0.0394   0.3987     C
C        0.898   0.4606   0.8987     C
C       0.8992    0.522    0.664     C
C       0.8992    0.978    0.164     C
O       0.9011   0.6704   0.1023     O
O       0.9011   0.8296   0.6023     O
C       0.9056   0.6909   0.7092     C
C       0.9056   0.8091   0.2092     C
Gd     0.90696  0.64699  0.64623    Gd
Gd     0.90696  0.85301  0.14623    Gd
O       0.9072   0.7194   0.5616     O
O       0.9072   0.7806   0.0616     O
C        0.908   0.2446   0.5008     C
C        0.908   0.2554   0.0008     C
C       0.9082   0.7197   0.7426     C
C       0.9082   0.7803   0.2426     C
C       0.9093   0.1998   0.9814     C
C       0.9093   0.3002   0.4814     C
H       0.9117   0.5972   0.9257     H
H       0.9117   0.9028   0.4257     H
N       0.9131   0.1568   0.9655     N
N       0.9131   0.3432   0.4655     N
O       0.9139     0.75    0.134     O
O       0.9139     0.75    0.634     O
C       0.9148   0.7274   0.3032     C
C       0.9148   0.7726   0.8032     C
O       0.9151   0.6333   0.5904     O
O       0.9151   0.8667   0.0904     O
C       0.9153   0.6934   0.1274     C
H       0.9153   0.7099   0.3238     H
H       0.9153   0.7901   0.8238     H
C       0.9153   0.8066   0.6274     C
C       0.9158   0.5632   0.9124     C
C       0.9158   0.9368   0.4124     C
C       0.9173   0.1493   0.1649     C
C       0.9173   0.3507   0.6649     C
C       0.9198    0.086   0.1587     C
C       0.9198    0.414   0.6587     C
H       0.9216    0.571   0.1323     H
H       0.9216    0.929   0.6323     H
C       0.9224   0.1913   0.5511     C
C       0.9224   0.3087   0.0511     C
C       0.9228   0.6673   0.5658     C
C       0.9228   0.8327   0.0658     C
O       0.9251     0.54   0.6457     O
O       0.9251     0.96   0.1457     O
C       0.9265   0.2413   0.5305     C
C       0.9265   0.2587   0.0305     C
C       0.9281   0.0393   0.3744     C
C       0.9281   0.4607   0.8744     C
O       0.9304   0.0379   0.6456     O
O       0.9304   0.4621   0.1456     O
O        0.931    0.154    0.604     O
O        0.931    0.346    0.104     O
C       0.9351   0.5889   0.1493     C
C       0.9351   0.9111   0.6493     C
O       0.9354   0.6632   0.6987     O
O       0.9354   0.8368   0.1987     O
H       0.9367   0.7004    0.508     H
H       0.9367   0.7996    0.008     H
C       0.9372   0.6551   0.1515     C
C       0.9372   0.8449   0.6515     C
C        0.938    0.098   0.3662     C
C        0.938    0.402   0.8662     C
C       0.9392   0.7043   0.7619     C
C       0.9392   0.7957   0.2619     C
H       0.9397   0.0716   0.1458     H
H       0.9397   0.4284   0.6458     H
O       0.9404   0.2495   0.1571     O
O       0.9404   0.2505   0.6571     O
C       0.9419   0.1904   0.5827     C
C       0.9419   0.3096   0.0827     C
N        0.942    0.129   0.3438     N
N        0.942    0.371   0.8438     N
H       0.9421    0.226   0.0368     H
H       0.9421    0.274   0.5368     H
C       0.9422   0.7326   0.7929     C
C       0.9422   0.7674   0.2929     C
C       0.9451   0.5664   0.8894     C
C       0.9451   0.9336   0.3894     C
C       0.9464   0.1929   0.1489     C
C       0.9464   0.3071   0.6489     C
N       0.9478   0.5087    0.452     N
N       0.9478   0.9913    0.952     N
Gd     0.94891  0.14542  0.66014    Gd
Gd     0.94891  0.35458  0.16014    Gd
C       0.9495   0.0154   0.6685     C
C       0.9495   0.4846   0.1685     C
C       0.9511   0.6435   0.5437     C
C       0.9511   0.8565   0.0437     C
C       0.9514   0.5167   0.8702     C
C       0.9514   0.9833   0.3702     C
C       0.9519   0.5526    0.171     C
C       0.9519   0.9474    0.671     C
C        0.953    0.668   0.5132     C
C        0.953    0.832   0.0132     C
C       0.9553   0.6785    0.177     C
C       0.9553   0.8215    0.677     C
H       0.9554   0.7212   0.1798     H
H       0.9554   0.7788   0.6798     H
O       0.9565   0.7161   0.4496     O
O       0.9565   0.7839   0.9496     O
H       0.9576   0.6763   0.7548     H
H       0.9576   0.8237   0.2548     H
O       0.9591   0.6703   0.9017     O
O       0.9591   0.8297   0.4017     O
O       0.9664   0.0494   0.6885     O
O       0.9664   0.4506   0.1885     O
C       0.9685   0.0277   0.9598     C
C       0.9685   0.4723   0.4598     C
O       0.9696   0.2289   0.5865     O
O       0.9696   0.2711   0.0865     O
C       0.9697   0.6238   0.8868     C
C       0.9697   0.8762   0.3868     C
H       0.9705   0.5179   0.8545     H
H       0.9705   0.9821   0.3545     H
C       0.9712   0.5794   0.1966     C
C       0.9712   0.9206   0.6966     C
O       0.9718    0.172   0.1318     O
O       0.9718    0.328   0.6318     O
O       0.9737   0.7435   0.8419     O
O       0.9737   0.7565   0.3419     O
C        0.974   0.6413   0.1998     C
C        0.974   0.7153   0.8137     C
C        0.974   0.7847   0.3137     C
C        0.974   0.8587   0.6998     C
H       0.9758   0.5813    0.573     H
H       0.9758   0.9187    0.073     H
C       0.9767    0.598   0.5522     C
C       0.9767    0.902   0.0522     C
Gd     0.97767  0.72427  0.39407    Gd
Gd     0.97767  0.77573  0.89407    Gd
H       0.9778   0.0849   0.0156     H
H       0.9778   0.4151   0.5156     H
C        0.978   0.6472     0.49     C
C        0.978   0.6717   0.4571     C
C        0.978   0.8283   0.9571     C
C        0.978   0.8528     0.99     C
H       0.9825    0.554   0.2121     H
H       0.9825    0.946   0.7121     H
N       0.9875   0.1861   0.2517     N
N       0.9875   0.3139   0.7517     N
C        0.995   0.6677   0.2263     C
C        0.995   0.8323   0.7263     C
C       0.9954   0.0999   0.0006     C
C       0.9954   0.4001   0.5006     C
C       0.9958   0.0765   0.9698     C
C       0.9958   0.4235   0.4698     C
O       0.9965   0.6185   0.8674     O
O       0.9965   0.8815   0.3674     O
O       0.9989   0.6795   0.8052     O
O       0.9989   0.8205   0.3052     O
O        0.999   0.1492   0.0644     O
O        0.999   0.3508   0.5644     O
