data_I
_chemical_name_common  '/home/zhangsd/repos/MofS-CGCNN/ML/data/TSD/clean_cifs/DAMYOI_clean'
_cell_length_a 30.49200
_cell_length_b 15.98610
_cell_length_c 25.70220
_cell_angle_alpha 90.00000
_cell_angle_beta  89.99100
_cell_angle_gamma 90.00000
_space_group_name_H-M_alt      'P 1'


loop_
_space_group_symop_operation_xyz
  'x, y, z' 

loop_
_atom_site_label
_atom_site_fract_x
_atom_site_fract_y
_atom_site_fract_z
_atom_site_type_symbol
Tm     0.00043  0.20806  0.25111    Tm
Tm     0.00043  0.79194  0.75111    Tm
O       0.0408   0.0216   0.5633     O
O       0.0408   0.9784   0.0633     O
O       0.0455   0.1236   0.5054     O
O       0.0455   0.8764   0.0054     O
O       0.0463   0.0975   0.9925     O
O       0.0463   0.9025   0.4925     O
O        0.049   0.2206   0.1837     O
O        0.049   0.7794   0.6837     O
O       0.0505   0.0934   0.3713     O
O       0.0505   0.9066   0.8713     O
O       0.0549   0.1771   0.3039     O
O       0.0549   0.8229   0.8039     O
O       0.0555    0.121   0.1217     O
O       0.0555    0.879   0.6217     O
O       0.0556   0.0203     0.92     O
O       0.0556   0.9797     0.42     O
C       0.0595   0.0819   0.5427     C
C       0.0595   0.9181   0.0427     C
C       0.0657    0.074   0.9528     C
C       0.0657    0.926   0.4528     C
C       0.0684   0.1787   0.1502     C
C       0.0684   0.8213   0.6502     C
C       0.0702   0.1447   0.3438     C
C       0.0702   0.8553   0.8438     C
C       0.1035    0.108   0.5645     C
C       0.1035    0.892   0.0645     C
H        0.107   0.0203   0.6205     H
H        0.107   0.9797   0.1205     H
C       0.1087   0.1186    0.943     C
C       0.1087   0.8814    0.443     C
H        0.109   0.1947   0.0044     H
H        0.109   0.8053   0.5044     H
H       0.1128   0.2028   0.5153     H
H       0.1128   0.7972   0.0153     H
H       0.1158    0.295   0.1978     H
H       0.1158    0.705   0.6978     H
C        0.116    0.174   0.3564     C
C        0.116   0.2043   0.1442     C
C        0.116   0.7957   0.6442     C
C        0.116    0.826   0.8564     C
C       0.1214   0.0656   0.6055     C
C       0.1214   0.9344   0.1055     C
H       0.1217   0.1038   0.4206     H
H       0.1217   0.8962   0.9206     H
H       0.1239   0.2523   0.2968     H
H       0.1239   0.7477   0.7968     H
H       0.1242   0.0588   0.8779     H
H       0.1242   0.9412   0.3779     H
C       0.1248   0.1793    0.975     C
C       0.1248   0.8207    0.475     C
C       0.1252   0.1742   0.5431     C
C       0.1252   0.8258   0.0431     C
H        0.131   0.1218   0.0889     H
H        0.131   0.8782   0.5889     H
C       0.1333   0.2674   0.1736     C
C       0.1333   0.7326   0.6736     C
C        0.134   0.0998   0.9008     C
C        0.134   0.9002   0.4008     C
C       0.1361   0.1424   0.3995     C
C       0.1361   0.8576   0.8995     C
C       0.1378   0.2307   0.3261     C
C       0.1378   0.7693   0.8261     C
C       0.1424   0.1649    0.109     C
C       0.1424   0.8351    0.609     C
C       0.1629   0.0927   0.6244     C
C       0.1629   0.9073   0.1244     C
C       0.1654   0.2193   0.9643     C
C       0.1654   0.7807   0.4643     C
C       0.1666   0.1998   0.5628     C
C       0.1666   0.8002   0.0628     C
C       0.1747   0.1397   0.8901     C
C       0.1747   0.8603   0.3901     C
H       0.1755   0.2605   0.9869     H
H       0.1755   0.7395   0.4869     H
H       0.1756   0.0646   0.6523     H
H       0.1756   0.9354   0.1523     H
C        0.178   0.2909   0.1677     C
C        0.178   0.7091   0.6677     C
C       0.1792   0.1694   0.4117     C
C       0.1792   0.8306   0.9117     C
C        0.181   0.2577   0.3381     C
C        0.181   0.7423   0.8381     C
H       0.1814   0.2448    0.548     H
H       0.1814   0.7552    0.048     H
C       0.1843   0.1579   0.6031     C
C       0.1843   0.8421   0.1031     C
C       0.1871   0.1884   0.1027     C
C       0.1871   0.8116   0.6027     C
C       0.1898   0.1995   0.9223     C
H       0.1898   0.3336   0.1878     H
H       0.1898   0.6664   0.6878     H
C       0.1898   0.8005   0.4223     C
H       0.1909   0.1247   0.8608     H
H       0.1909   0.8753   0.3608     H
H       0.1934   0.1483    0.441     H
H       0.1934   0.8517    0.941     H
H       0.1957   0.2961   0.3173     H
H       0.1957   0.7039   0.8173     H
C       0.1997   0.2253   0.3811     C
C       0.1997   0.7747   0.8811     C
C        0.203   0.2507   0.1324     C
C        0.203   0.7493   0.6324     C
H       0.2049   0.1615   0.0785     H
H       0.2049   0.8385   0.5785     H
C        0.228    0.185   0.6241     C
C        0.228    0.815   0.1241     C
C       0.2323   0.2453   0.9144     C
C       0.2323   0.7547   0.4144     C
H       0.2374   0.1605    0.655     H
H       0.2374   0.8395    0.155     H
H       0.2392   0.2933   0.9331     H
H       0.2392   0.7067   0.4331     H
H       0.2398   0.2676   0.5767     H
H       0.2398   0.7324   0.0767     H
C       0.2453   0.2508   0.3966     C
C       0.2453   0.7492   0.8966     C
H       0.2485   0.1725   0.8597     H
H       0.2485   0.8275   0.3597     H
H       0.2491   0.2501   0.4325     H
H       0.2491   0.7499   0.9325     H
C       0.2499   0.2781    0.128     C
C       0.2499   0.7219    0.628     C
C       0.2527   0.2374   0.6036     C
C       0.2527   0.7626   0.1036     C
H        0.257   0.3204   0.1514     H
H        0.257   0.6796   0.6514     H
C       0.2576   0.2156   0.8814     C
C       0.2576   0.7844   0.3814     C
H       0.2778   0.2698   0.3375     H
H       0.2778   0.7302   0.8375     H
C       0.2788   0.2724   0.3736     C
C       0.2788   0.7276   0.8736     C
H       0.2791   0.2061   0.0849     H
H       0.2791   0.7939   0.5849     H
C       0.2808   0.2581    0.101     C
C       0.2808   0.7419    0.601     C
H       0.2969    0.213   0.6854     H
H       0.2969    0.787   0.1854     H
C       0.2995   0.2609   0.6144     C
C       0.2995   0.7391   0.1144     C
C       0.3033   0.2502   0.8769     C
C       0.3033   0.7498   0.3769     C
H       0.3052   0.3176   0.9419     H
H       0.3052   0.6824   0.4419     H
H       0.3127    0.191   0.8101     H
H       0.3127    0.809   0.3101     H
C       0.3151   0.2402   0.6617     C
C       0.3151   0.7598   0.1617     C
H       0.3152    0.315   0.5476     H
H       0.3152    0.685   0.0476     H
H       0.3205   0.2339   0.4606     H
H       0.3205   0.7661   0.9606     H
C       0.3211   0.3016   0.9127     C
C       0.3211   0.6984   0.4127     C
C       0.3213   0.3024   0.3968     C
C       0.3213   0.6976   0.8968     C
C       0.3216   0.3082   0.0907     C
C       0.3216   0.6918   0.5907     C
H       0.3253   0.3786    0.154     H
H       0.3253   0.6214    0.654     H
C       0.3257   0.2264   0.8343     C
C       0.3257   0.7736   0.3343     C
C       0.3258   0.3003   0.5803     C
C       0.3258   0.6997   0.0803     C
H       0.3301   0.2518   0.0235     H
H       0.3301   0.7482   0.5235     H
H       0.3334   0.3791    0.338     H
H       0.3334   0.6209    0.838     H
C       0.3366   0.2737   0.4425     C
C       0.3366   0.7263   0.9425     C
C       0.3389   0.3663   0.1225     C
C       0.3389   0.6337   0.6225     C
C        0.342   0.2921   0.0454     C
C        0.342   0.7079   0.5454     C
C        0.344   0.3596   0.3696     C
C        0.344   0.6404   0.8696     C
C        0.359   0.2595   0.6756     C
C        0.359   0.7405   0.1756     C
C       0.3646   0.3309   0.9049     C
C       0.3646   0.6691   0.4049     C
C       0.3692   0.2554   0.8264     C
C       0.3692   0.7446   0.3264     C
H       0.3693   0.2447   0.7084     H
H       0.3693   0.7553   0.2084     H
C       0.3698   0.3195   0.5942     C
C       0.3698   0.6805   0.0942     C
C       0.3768   0.3026   0.4638     C
C       0.3768   0.6974   0.9638     C
H       0.3773   0.3664   0.9293     H
H       0.3773   0.6336   0.4293     H
C       0.3779   0.4091   0.1078     C
C       0.3779   0.5909   0.6078     C
C        0.381   0.3337   0.0296     C
C        0.381   0.6663   0.5296     C
C       0.3845   0.3903   0.3894     C
C       0.3845   0.6097   0.8894     C
H       0.3848   0.2389   0.7971     H
H       0.3848   0.7611   0.2971     H
C       0.3865   0.2994   0.6418     C
C       0.3865   0.7006   0.1418     C
H       0.3872   0.2826   0.4954     H
H       0.3872   0.7174   0.9954     H
H       0.3876   0.3465   0.5701     H
H       0.3876   0.6535   0.0701     H
C        0.388   0.3076   0.8621     C
C        0.388   0.6924   0.3621     C
H       0.3896   0.4491   0.1301     H
H       0.3896   0.5509   0.6301     H
H       0.3942    0.321   0.9979     H
H       0.3942    0.679   0.4979     H
C       0.3986   0.3926   0.0618     C
C       0.3986   0.6074   0.5618     C
C       0.3995   0.3609   0.4359     C
C       0.3995   0.6391   0.9359     C
H       0.4004   0.4299   0.3709     H
H       0.4004   0.5701   0.8709     H
C       0.4334   0.3213    0.655     C
C       0.4334   0.6787    0.155     C
C       0.4343   0.3379   0.8529     C
C       0.4343   0.6621   0.3529     C
C         0.44   0.4364    0.044     C
C         0.44   0.5636    0.544     C
C       0.4425   0.3929   0.4576     C
C       0.4425   0.6071   0.9576     C
O       0.4472   0.3018   0.6987     O
O       0.4472   0.6982   0.1987     O
O       0.4507   0.3851   0.8857     O
O       0.4507   0.6149   0.3857     O
O       0.4521   0.3124   0.8125     O
O       0.4521   0.6876   0.3125     O
O       0.4537   0.4889   0.0755     O
O       0.4537   0.5111   0.5755     O
O       0.4539    0.363   0.5001     O
O       0.4539    0.637   0.0001     O
O       0.4544    0.414    0.001     O
O       0.4544    0.586    0.501     O
O       0.4574   0.3575   0.6232     O
O       0.4574   0.6425   0.1232     O
O       0.4607   0.4456   0.4295     O
O       0.4607   0.5544   0.9295     O
Tm      0.4997  0.43091  0.93751    Tm
Tm      0.4997  0.56909  0.43751    Tm
Tm     0.49989  0.40228  0.56366    Tm
Tm     0.49989  0.59772  0.06366    Tm
Tm     0.50043  0.29194  0.75111    Tm
Tm     0.50043  0.70806  0.25111    Tm
O       0.5408   0.4784   0.0633     O
O       0.5408   0.5216   0.5633     O
O       0.5455   0.3764   0.0054     O
O       0.5455   0.6236   0.5054     O
O       0.5463   0.4025   0.4925     O
O       0.5463   0.5975   0.9925     O
O        0.549   0.2794   0.6837     O
O        0.549   0.7206   0.1837     O
O       0.5505   0.4066   0.8713     O
O       0.5505   0.5934   0.3713     O
O       0.5549   0.3229   0.8039     O
O       0.5549   0.6771   0.3039     O
O       0.5555    0.379   0.6217     O
O       0.5555    0.621   0.1217     O
O       0.5556   0.4797     0.42     O
O       0.5556   0.5203     0.92     O
C       0.5595   0.4181   0.0427     C
C       0.5595   0.5819   0.5427     C
C       0.5657    0.426   0.4528     C
C       0.5657    0.574   0.9528     C
C       0.5684   0.3213   0.6502     C
C       0.5684   0.6787   0.1502     C
C       0.5702   0.3553   0.8438     C
C       0.5702   0.6447   0.3438     C
C       0.6035    0.392   0.0645     C
C       0.6035    0.608   0.5645     C
H        0.607   0.4797   0.1205     H
H        0.607   0.5203   0.6205     H
C       0.6087   0.3814    0.443     C
C       0.6087   0.6186    0.943     C
H        0.609   0.3053   0.5044     H
H        0.609   0.6947   0.0044     H
H       0.6128   0.2972   0.0153     H
H       0.6128   0.7028   0.5153     H
H       0.6158    0.205   0.6978     H
H       0.6158    0.795   0.1978     H
C        0.616   0.2957   0.6442     C
C        0.616    0.326   0.8564     C
C        0.616    0.674   0.3564     C
C        0.616   0.7043   0.1442     C
C       0.6214   0.4344   0.1055     C
C       0.6214   0.5656   0.6055     C
H       0.6217   0.3962   0.9206     H
H       0.6217   0.6038   0.4206     H
H       0.6239   0.2477   0.7968     H
H       0.6239   0.7523   0.2968     H
H       0.6242   0.4412   0.3779     H
H       0.6242   0.5588   0.8779     H
C       0.6248   0.3207    0.475     C
C       0.6248   0.6793    0.975     C
C       0.6252   0.3258   0.0431     C
C       0.6252   0.6742   0.5431     C
H        0.631   0.3782   0.5889     H
H        0.631   0.6218   0.0889     H
C       0.6333   0.2326   0.6736     C
C       0.6333   0.7674   0.1736     C
C        0.634   0.4002   0.4008     C
C        0.634   0.5998   0.9008     C
C       0.6361   0.3576   0.8995     C
C       0.6361   0.6424   0.3995     C
C       0.6378   0.2693   0.8261     C
C       0.6378   0.7307   0.3261     C
C       0.6424   0.3351    0.609     C
C       0.6424   0.6649    0.109     C
C       0.6629   0.4073   0.1244     C
C       0.6629   0.5927   0.6244     C
C       0.6654   0.2807   0.4643     C
C       0.6654   0.7193   0.9643     C
C       0.6666   0.3002   0.0628     C
C       0.6666   0.6998   0.5628     C
C       0.6747   0.3603   0.3901     C
C       0.6747   0.6397   0.8901     C
H       0.6755   0.2395   0.4869     H
H       0.6755   0.7605   0.9869     H
H       0.6756   0.4354   0.1523     H
H       0.6756   0.5646   0.6523     H
C        0.678   0.2091   0.6677     C
C        0.678   0.7909   0.1677     C
C       0.6792   0.3306   0.9117     C
C       0.6792   0.6694   0.4117     C
C        0.681   0.2423   0.8381     C
C        0.681   0.7577   0.3381     C
H       0.6814   0.2552    0.048     H
H       0.6814   0.7448    0.548     H
C       0.6843   0.3421   0.1031     C
C       0.6843   0.6579   0.6031     C
C       0.6871   0.3116   0.6027     C
C       0.6871   0.6884   0.1027     C
H       0.6898   0.1664   0.6878     H
C       0.6898   0.3005   0.4223     C
C       0.6898   0.6995   0.9223     C
H       0.6898   0.8336   0.1878     H
H       0.6909   0.3753   0.3608     H
H       0.6909   0.6247   0.8608     H
H       0.6934   0.3517    0.941     H
H       0.6934   0.6483    0.441     H
H       0.6957   0.2039   0.8173     H
H       0.6957   0.7961   0.3173     H
C       0.6997   0.2747   0.8811     C
C       0.6997   0.7253   0.3811     C
C        0.703   0.2493   0.6324     C
C        0.703   0.7507   0.1324     C
H       0.7049   0.3385   0.5785     H
H       0.7049   0.6615   0.0785     H
C        0.728    0.315   0.1241     C
C        0.728    0.685   0.6241     C
C       0.7323   0.2547   0.4144     C
C       0.7323   0.7453   0.9144     C
H       0.7374   0.3395    0.155     H
H       0.7374   0.6605    0.655     H
H       0.7392   0.2067   0.4331     H
H       0.7392   0.7933   0.9331     H
H       0.7398   0.2324   0.0767     H
H       0.7398   0.7676   0.5767     H
C       0.7453   0.2492   0.8966     C
C       0.7453   0.7508   0.3966     C
H       0.7485   0.3275   0.3597     H
H       0.7485   0.6725   0.8597     H
H       0.7491   0.2499   0.9325     H
H       0.7491   0.7501   0.4325     H
C       0.7499   0.2219    0.628     C
C       0.7499   0.7781    0.128     C
C       0.7527   0.2626   0.1036     C
C       0.7527   0.7374   0.6036     C
H        0.757   0.1796   0.6514     H
H        0.757   0.8204   0.1514     H
C       0.7576   0.2844   0.3814     C
C       0.7576   0.7156   0.8814     C
H       0.7778   0.2302   0.8375     H
H       0.7778   0.7698   0.3375     H
C       0.7788   0.2276   0.8736     C
C       0.7788   0.7724   0.3736     C
H       0.7791   0.2939   0.5849     H
H       0.7791   0.7061   0.0849     H
C       0.7808   0.2419    0.601     C
C       0.7808   0.7581    0.101     C
H       0.7969    0.287   0.1854     H
H       0.7969    0.713   0.6854     H
C       0.7995   0.2391   0.1144     C
C       0.7995   0.7609   0.6144     C
C       0.8033   0.2498   0.3769     C
C       0.8033   0.7502   0.8769     C
H       0.8052   0.1824   0.4419     H
H       0.8052   0.8176   0.9419     H
H       0.8127    0.309   0.3101     H
H       0.8127    0.691   0.8101     H
C       0.8151   0.2598   0.1617     C
C       0.8151   0.7402   0.6617     C
H       0.8152    0.185   0.0476     H
H       0.8152    0.815   0.5476     H
H       0.8205   0.2661   0.9606     H
H       0.8205   0.7339   0.4606     H
C       0.8211   0.1984   0.4127     C
C       0.8211   0.8016   0.9127     C
C       0.8213   0.1976   0.8968     C
C       0.8213   0.8024   0.3968     C
C       0.8216   0.1918   0.5907     C
C       0.8216   0.8082   0.0907     C
H       0.8253   0.1214    0.654     H
H       0.8253   0.8786    0.154     H
C       0.8257   0.2736   0.3343     C
C       0.8257   0.7264   0.8343     C
C       0.8258   0.1997   0.0803     C
C       0.8258   0.8003   0.5803     C
H       0.8301   0.2482   0.5235     H
H       0.8301   0.7518   0.0235     H
H       0.8334   0.1209    0.838     H
H       0.8334   0.8791    0.338     H
C       0.8366   0.2263   0.9425     C
C       0.8366   0.7737   0.4425     C
C       0.8389   0.1337   0.6225     C
C       0.8389   0.8663   0.1225     C
C        0.842   0.2079   0.5454     C
C        0.842   0.7921   0.0454     C
C        0.844   0.1404   0.8696     C
C        0.844   0.8596   0.3696     C
C        0.859   0.2405   0.1756     C
C        0.859   0.7595   0.6756     C
C       0.8646   0.1691   0.4049     C
C       0.8646   0.8309   0.9049     C
C       0.8692   0.2446   0.3264     C
C       0.8692   0.7554   0.8264     C
H       0.8693   0.2553   0.2084     H
H       0.8693   0.7447   0.7084     H
C       0.8698   0.1805   0.0942     C
C       0.8698   0.8195   0.5942     C
C       0.8768   0.1974   0.9638     C
C       0.8768   0.8026   0.4638     C
H       0.8773   0.1336   0.4293     H
H       0.8773   0.8664   0.9293     H
C       0.8779   0.0909   0.6078     C
C       0.8779   0.9091   0.1078     C
C        0.881   0.1663   0.5296     C
C        0.881   0.8337   0.0296     C
C       0.8845   0.1097   0.8894     C
C       0.8845   0.8903   0.3894     C
H       0.8848   0.2611   0.2971     H
H       0.8848   0.7389   0.7971     H
C       0.8865   0.2006   0.1418     C
C       0.8865   0.7994   0.6418     C
H       0.8872   0.2174   0.9954     H
H       0.8872   0.7826   0.4954     H
H       0.8876   0.1535   0.0701     H
H       0.8876   0.8465   0.5701     H
C        0.888   0.1924   0.3621     C
C        0.888   0.8076   0.8621     C
H       0.8896   0.0509   0.6301     H
H       0.8896   0.9491   0.1301     H
H       0.8942    0.179   0.4979     H
H       0.8942    0.821   0.9979     H
C       0.8986   0.1074   0.5618     C
C       0.8986   0.8926   0.0618     C
C       0.8995   0.1391   0.9359     C
C       0.8995   0.8609   0.4359     C
H       0.9004   0.0701   0.8709     H
H       0.9004   0.9299   0.3709     H
C       0.9334   0.1787    0.155     C
C       0.9334   0.8213    0.655     C
C       0.9343   0.1621   0.3529     C
C       0.9343   0.8379   0.8529     C
C         0.94   0.0636    0.544     C
C         0.94   0.9364    0.044     C
C       0.9425   0.1071   0.9576     C
C       0.9425   0.8929   0.4576     C
O       0.9472   0.1982   0.1987     O
O       0.9472   0.8018   0.6987     O
O       0.9507   0.1149   0.3857     O
O       0.9507   0.8851   0.8857     O
O       0.9521   0.1876   0.3125     O
O       0.9521   0.8124   0.8125     O
O       0.9537   0.0111   0.5755     O
O       0.9537   0.9889   0.0755     O
O       0.9539    0.137   0.0001     O
O       0.9539    0.863   0.5001     O
O       0.9544    0.086    0.501     O
O       0.9544    0.914    0.001     O
O       0.9574   0.1425   0.1232     O
O       0.9574   0.8575   0.6232     O
O       0.9607   0.0544   0.9295     O
O       0.9607   0.9456   0.4295     O
Tm      0.9997  0.06909  0.43751    Tm
Tm      0.9997  0.93091  0.93751    Tm
Tm     0.99989  0.09772  0.06366    Tm
Tm     0.99989  0.90228  0.56366    Tm
