data_I
_chemical_name_common  '/home/zhangsd/repos/MofS-CGCNN/ML/data/TSD/clean_cifs/DANVEU_clean'
_cell_length_a 20.36610
_cell_length_b 20.36610
_cell_length_c 20.36610
_cell_angle_alpha 90.00000
_cell_angle_beta  90.00000
_cell_angle_gamma 90.00000
_space_group_name_H-M_alt      'P 1'


loop_
_space_group_symop_operation_xyz
  'x, y, z' 

loop_
_atom_site_label
_atom_site_fract_x
_atom_site_fract_y
_atom_site_fract_z
_atom_site_type_symbol
N       0.0008    0.735   0.2757     N
N       0.0008    0.765   0.7757     N
C       0.0048   0.2282   0.0886     C
C       0.0048   0.2718   0.5886     C
H       0.0061   0.2263    0.043     H
H       0.0061   0.2737    0.543     H
La     0.01269  0.74276  0.14555    La
La     0.01269  0.75724  0.64555    La
C       0.0224   0.6769   0.3754     C
C       0.0224   0.8231   0.8754     C
C       0.0245   0.6825   0.3081     C
C       0.0245   0.8175   0.8081     C
C       0.0259   0.2164   0.6889     C
C       0.0259   0.2836   0.1889     C
C         0.03   0.2181   0.6213     C
C         0.03   0.2819   0.1213     C
H       0.0388   0.6398   0.3963     H
H       0.0388   0.8602   0.8963     H
O         0.04   0.1649   0.7915     O
O         0.04   0.3351   0.2915     O
H        0.043   0.0061   0.2263     H
H        0.043   0.4939   0.7263     H
H       0.0494   0.1837   0.5982     H
H       0.0494   0.3163   0.0982     H
C       0.0521   0.1607   0.7309     C
C       0.0521   0.3393   0.2309     C
O        0.053   0.6423   0.2026     O
O        0.053   0.8577   0.7026     O
C       0.0533   0.6305   0.2636     C
C       0.0533   0.8695   0.7636     C
O        0.076   0.5796   0.2896     O
O        0.076   0.9204   0.7896     O
O       0.0796   0.2104    0.924     O
O       0.0796   0.2896    0.424     O
O       0.0842    0.116   0.7042     O
O       0.0842    0.384   0.2042     O
C       0.0886   0.0048   0.2282     C
C       0.0886   0.4952   0.7282     C
H       0.0982   0.0494   0.3163     H
H       0.0982   0.4506   0.8163     H
H       0.1037   0.5388   0.6398     H
H       0.1037   0.9612   0.1398     H
O        0.116   0.7042   0.0842     O
O        0.116   0.7958   0.5842     O
C       0.1213     0.03   0.2819     C
C       0.1213     0.47   0.7819     C
C       0.1246   0.5224   0.6769     C
C       0.1246   0.9776   0.1769     C
C       0.1305   0.2364   0.9467     C
C       0.1305   0.2636   0.4467     C
H       0.1398   0.1037   0.9612     H
H       0.1398   0.3963   0.4612     H
O       0.1423   0.2026    0.447     O
O       0.1423   0.2974    0.947     O
La     0.14555  0.01269  0.74276    La
La     0.14555  0.48731  0.24276    La
C       0.1607   0.7309   0.0521     C
C       0.1607   0.7691   0.5521     C
O       0.1649   0.7085     0.54     O
O       0.1649   0.7915     0.04     O
C       0.1769   0.1246   0.9776     C
C       0.1769   0.3754   0.4776     C
C       0.1825   0.1919   0.9755     C
C       0.1825   0.3081   0.4755     C
H       0.1837   0.5982   0.0494     H
H       0.1837   0.9018   0.5494     H
C       0.1889   0.0259   0.2836     C
C       0.1889   0.4741   0.7836     C
C       0.1919   0.5245   0.6825     C
C       0.1919   0.9755   0.1825     C
O       0.2026    0.053   0.6423     O
O       0.2026    0.447   0.1423     O
O       0.2042   0.0842    0.384     O
O       0.2042   0.4158    0.884     O
O       0.2085     0.54   0.3351     O
O       0.2085     0.96   0.8351     O
O       0.2104    0.576   0.5796     O
O       0.2104    0.924   0.0796     O
C       0.2164   0.6889   0.0259     C
C       0.2164   0.8111   0.5259     C
C       0.2181   0.6213     0.03     C
C       0.2181   0.8787     0.53     C
N       0.2243   0.5008    0.735     N
N       0.2243   0.9992    0.235     N
H       0.2263    0.043   0.0061     H
H       0.2263    0.457   0.5061     H
C       0.2282   0.0886   0.0048     C
C       0.2282   0.4114   0.5048     C
C       0.2309   0.0521   0.3393     C
C       0.2309   0.4479   0.8393     C
N        0.235   0.2243   0.9992     N
N        0.235   0.2757   0.4992     N
C       0.2364   0.5533   0.6305     C
C       0.2364   0.9467   0.1305     C
La     0.24276  0.14555  0.48731    La
La     0.24276  0.35445  0.98731    La
La     0.25724  0.64555  0.48731    La
La     0.25724  0.85445  0.98731    La
C       0.2636   0.0533   0.6305     C
C       0.2636   0.4467   0.1305     C
N        0.265   0.7243   0.9992     N
N        0.265   0.7757   0.4992     N
C       0.2691   0.5521   0.3393     C
C       0.2691   0.9479   0.8393     C
C       0.2718   0.5886   0.0048     C
C       0.2718   0.9114   0.5048     C
H       0.2737    0.543   0.0061     H
H       0.2737    0.957   0.5061     H
N       0.2757   0.0008    0.735     N
N       0.2757   0.4992    0.235     N
C       0.2819   0.1213     0.03     C
C       0.2819   0.3787     0.53     C
C       0.2836   0.1889   0.0259     C
C       0.2836   0.3111   0.5259     C
O       0.2896    0.076   0.5796     O
O       0.2896    0.424   0.0796     O
O       0.2915     0.04   0.3351     O
O       0.2915     0.46   0.8351     O
O       0.2958   0.5842    0.384     O
O       0.2958   0.9158    0.884     O
O       0.2974    0.553   0.6423     O
O       0.2974    0.947   0.1423     O
C       0.3081   0.0245   0.6825     C
C       0.3081   0.4755   0.1825     C
C       0.3111   0.5259   0.2836     C
C       0.3111   0.9741   0.7836     C
H       0.3163   0.0982   0.0494     H
H       0.3163   0.4018   0.5494     H
C       0.3175   0.6919   0.9755     C
C       0.3175   0.8081   0.4755     C
C       0.3231   0.6246   0.9776     C
C       0.3231   0.8754   0.4776     C
O       0.3351   0.2085     0.54     O
O       0.3351   0.2915     0.04     O
C       0.3393   0.2309   0.0521     C
C       0.3393   0.2691   0.5521     C
La     0.35445  0.51269  0.74276    La
La     0.35445  0.98731  0.24276    La
O       0.3577   0.7026    0.447     O
O       0.3577   0.7974    0.947     O
H       0.3602   0.6037   0.9612     H
H       0.3602   0.8963   0.4612     H
C       0.3695   0.7364   0.9467     C
C       0.3695   0.7636   0.4467     C
C       0.3754   0.0224   0.6769     C
C       0.3754   0.4776   0.1769     C
C       0.3787     0.53   0.2819     C
C       0.3787     0.97   0.7819     C
O        0.384   0.2042   0.0842     O
O        0.384   0.2958   0.5842     O
H       0.3963   0.0388   0.6398     H
H       0.3963   0.4612   0.1398     H
H       0.4018   0.5494   0.3163     H
H       0.4018   0.9506   0.8163     H
C       0.4114   0.5048   0.2282     C
C       0.4114   0.9952   0.7282     C
O       0.4158    0.616   0.7042     O
O       0.4158    0.884   0.2042     O
O       0.4204   0.7104    0.924     O
O       0.4204   0.7896    0.424     O
O        0.424   0.0796   0.2896     O
O        0.424   0.4204   0.7896     O
C       0.4467   0.1305   0.2636     C
C       0.4467   0.3695   0.7636     C
O        0.447   0.1423   0.2026     O
O        0.447   0.3577   0.7026     O
C       0.4479   0.6607   0.7309     C
C       0.4479   0.8393   0.2309     C
H       0.4506   0.6837   0.5982     H
H       0.4506   0.8163   0.0982     H
H        0.457   0.5061   0.2263     H
H        0.457   0.9939   0.7263     H
O         0.46   0.6649   0.7915     O
O         0.46   0.8351   0.2915     O
H       0.4612   0.1398   0.3963     H
H       0.4612   0.3602   0.8963     H
C         0.47   0.7181   0.6213     C
C         0.47   0.7819   0.1213     C
C       0.4741   0.7164   0.6889     C
C       0.4741   0.7836   0.1889     C
C       0.4755   0.1825   0.3081     C
C       0.4755   0.3175   0.8081     C
C       0.4776   0.1769   0.3754     C
C       0.4776   0.3231   0.8754     C
La     0.48731  0.24276  0.14555    La
La     0.48731  0.25724  0.64555    La
H       0.4939   0.7263    0.043     H
H       0.4939   0.7737    0.543     H
C       0.4952   0.7282   0.0886     C
C       0.4952   0.7718   0.5886     C
N       0.4992    0.235   0.2757     N
N       0.4992    0.265   0.7757     N
N       0.5008    0.735   0.2243     N
N       0.5008    0.765   0.7243     N
C       0.5048   0.2282   0.4114     C
C       0.5048   0.2718   0.9114     C
H       0.5061   0.2263    0.457     H
H       0.5061   0.2737    0.957     H
La     0.51269  0.74276  0.35445    La
La     0.51269  0.75724  0.85445    La
C       0.5224   0.6769   0.1246     C
C       0.5224   0.8231   0.6246     C
C       0.5245   0.6825   0.1919     C
C       0.5245   0.8175   0.6919     C
C       0.5259   0.2164   0.8111     C
C       0.5259   0.2836   0.3111     C
C         0.53   0.2181   0.8787     C
C         0.53   0.2819   0.3787     C
H       0.5388   0.6398   0.1037     H
H       0.5388   0.8602   0.6037     H
O         0.54   0.1649   0.7085     O
O         0.54   0.3351   0.2085     O
H        0.543   0.0061   0.2737     H
H        0.543   0.4939   0.7737     H
H       0.5494   0.1837   0.9018     H
H       0.5494   0.3163   0.4018     H
C       0.5521   0.1607   0.7691     C
C       0.5521   0.3393   0.2691     C
O        0.553   0.6423   0.2974     O
O        0.553   0.8577   0.7974     O
C       0.5533   0.6305   0.2364     C
C       0.5533   0.8695   0.7364     C
O        0.576   0.5796   0.2104     O
O        0.576   0.9204   0.7104     O
O       0.5796   0.2104    0.576     O
O       0.5796   0.2896    0.076     O
O       0.5842    0.116   0.7958     O
O       0.5842    0.384   0.2958     O
C       0.5886   0.0048   0.2718     C
C       0.5886   0.4952   0.7718     C
H       0.5982   0.0494   0.1837     H
H       0.5982   0.4506   0.6837     H
H       0.6037   0.5388   0.8602     H
H       0.6037   0.9612   0.3602     H
O        0.616   0.7042   0.4158     O
O        0.616   0.7958   0.9158     O
C       0.6213     0.03   0.2181     C
C       0.6213     0.47   0.7181     C
C       0.6246   0.5224   0.8231     C
C       0.6246   0.9776   0.3231     C
C       0.6305   0.2364   0.5533     C
C       0.6305   0.2636   0.0533     C
H       0.6398   0.1037   0.5388     H
H       0.6398   0.3963   0.0388     H
O       0.6423   0.2026    0.053     O
O       0.6423   0.2974    0.553     O
La     0.64555  0.01269  0.75724    La
La     0.64555  0.48731  0.25724    La
C       0.6607   0.7309   0.4479     C
C       0.6607   0.7691   0.9479     C
O       0.6649   0.7085     0.96     O
O       0.6649   0.7915     0.46     O
C       0.6769   0.1246   0.5224     C
C       0.6769   0.3754   0.0224     C
C       0.6825   0.1919   0.5245     C
C       0.6825   0.3081   0.0245     C
H       0.6837   0.5982   0.4506     H
H       0.6837   0.9018   0.9506     H
C       0.6889   0.0259   0.2164     C
C       0.6889   0.4741   0.7164     C
C       0.6919   0.5245   0.8175     C
C       0.6919   0.9755   0.3175     C
O       0.7026    0.053   0.8577     O
O       0.7026    0.447   0.3577     O
O       0.7042   0.0842    0.116     O
O       0.7042   0.4158    0.616     O
O       0.7085     0.54   0.1649     O
O       0.7085     0.96   0.6649     O
O       0.7104    0.576   0.9204     O
O       0.7104    0.924   0.4204     O
C       0.7164   0.6889   0.4741     C
C       0.7164   0.8111   0.9741     C
C       0.7181   0.6213     0.47     C
C       0.7181   0.8787     0.97     C
N       0.7243   0.5008    0.765     N
N       0.7243   0.9992    0.265     N
H       0.7263    0.043   0.4939     H
H       0.7263    0.457   0.9939     H
C       0.7282   0.0886   0.4952     C
C       0.7282   0.4114   0.9952     C
C       0.7309   0.0521   0.1607     C
C       0.7309   0.4479   0.6607     C
N        0.735   0.2243   0.5008     N
N        0.735   0.2757   0.0008     N
C       0.7364   0.5533   0.8695     C
C       0.7364   0.9467   0.3695     C
La     0.74276  0.14555  0.01269    La
La     0.74276  0.35445  0.51269    La
La     0.75724  0.64555  0.01269    La
La     0.75724  0.85445  0.51269    La
C       0.7636   0.0533   0.8695     C
C       0.7636   0.4467   0.3695     C
N        0.765   0.7243   0.5008     N
N        0.765   0.7757   0.0008     N
C       0.7691   0.5521   0.1607     C
C       0.7691   0.9479   0.6607     C
C       0.7718   0.5886   0.4952     C
C       0.7718   0.9114   0.9952     C
H       0.7737    0.543   0.4939     H
H       0.7737    0.957   0.9939     H
N       0.7757   0.0008    0.765     N
N       0.7757   0.4992    0.265     N
C       0.7819   0.1213     0.47     C
C       0.7819   0.3787     0.97     C
C       0.7836   0.1889   0.4741     C
C       0.7836   0.3111   0.9741     C
O       0.7896    0.076   0.9204     O
O       0.7896    0.424   0.4204     O
O       0.7915     0.04   0.1649     O
O       0.7915     0.46   0.6649     O
O       0.7958   0.5842    0.116     O
O       0.7958   0.9158    0.616     O
O       0.7974    0.553   0.8577     O
O       0.7974    0.947   0.3577     O
C       0.8081   0.0245   0.8175     C
C       0.8081   0.4755   0.3175     C
C       0.8111   0.5259   0.2164     C
C       0.8111   0.9741   0.7164     C
H       0.8163   0.0982   0.4506     H
H       0.8163   0.4018   0.9506     H
C       0.8175   0.6919   0.5245     C
C       0.8175   0.8081   0.0245     C
C       0.8231   0.6246   0.5224     C
C       0.8231   0.8754   0.0224     C
O       0.8351   0.2085     0.96     O
O       0.8351   0.2915     0.46     O
C       0.8393   0.2309   0.4479     C
C       0.8393   0.2691   0.9479     C
La     0.85445  0.51269  0.75724    La
La     0.85445  0.98731  0.25724    La
O       0.8577   0.7026    0.053     O
O       0.8577   0.7974    0.553     O
H       0.8602   0.6037   0.5388     H
H       0.8602   0.8963   0.0388     H
C       0.8695   0.7364   0.5533     C
C       0.8695   0.7636   0.0533     C
C       0.8754   0.0224   0.8231     C
C       0.8754   0.4776   0.3231     C
C       0.8787     0.53   0.2181     C
C       0.8787     0.97   0.7181     C
O        0.884   0.2042   0.4158     O
O        0.884   0.2958   0.9158     O
H       0.8963   0.0388   0.8602     H
H       0.8963   0.4612   0.3602     H
H       0.9018   0.5494   0.1837     H
H       0.9018   0.9506   0.6837     H
C       0.9114   0.5048   0.2718     C
C       0.9114   0.9952   0.7718     C
O       0.9158    0.616   0.7958     O
O       0.9158    0.884   0.2958     O
O       0.9204   0.7104    0.576     O
O       0.9204   0.7896    0.076     O
O        0.924   0.0796   0.2104     O
O        0.924   0.4204   0.7104     O
C       0.9467   0.1305   0.2364     C
C       0.9467   0.3695   0.7364     C
O        0.947   0.1423   0.2974     O
O        0.947   0.3577   0.7974     O
C       0.9479   0.6607   0.7691     C
C       0.9479   0.8393   0.2691     C
H       0.9506   0.6837   0.9018     H
H       0.9506   0.8163   0.4018     H
H        0.957   0.5061   0.2737     H
H        0.957   0.9939   0.7737     H
O         0.96   0.6649   0.7085     O
O         0.96   0.8351   0.2085     O
H       0.9612   0.1398   0.1037     H
H       0.9612   0.3602   0.6037     H
C         0.97   0.7181   0.8787     C
C         0.97   0.7819   0.3787     C
C       0.9741   0.7164   0.8111     C
C       0.9741   0.7836   0.3111     C
C       0.9755   0.1825   0.1919     C
C       0.9755   0.3175   0.6919     C
C       0.9776   0.1769   0.1246     C
C       0.9776   0.3231   0.6246     C
La     0.98731  0.24276  0.35445    La
La     0.98731  0.25724  0.85445    La
H       0.9939   0.7263    0.457     H
H       0.9939   0.7737    0.957     H
C       0.9952   0.7282   0.4114     C
C       0.9952   0.7718   0.9114     C
N       0.9992    0.235   0.2243     N
N       0.9992    0.265   0.7243     N
