data_I
_chemical_name_common  '/home/zhangsd/repos/MofS-CGCNN/ML/data/TSD/clean_cifs/DARBUU_clean'
_cell_length_a 12.05760
_cell_length_b 17.80730
_cell_length_c  9.78550
_cell_angle_alpha 90.00000
_cell_angle_beta  95.30600
_cell_angle_gamma 90.00000
_space_group_name_H-M_alt      'P 1'


loop_
_space_group_symop_operation_xyz
  'x, y, z' 

loop_
_atom_site_label
_atom_site_fract_x
_atom_site_fract_y
_atom_site_fract_z
_atom_site_type_symbol
Cl         0.0  0.05648     0.75    Cl
Cl         0.0  0.94352     0.25    Cl
C      0.00169  0.47077   0.4736     C
N      0.00169  0.52923   0.9736     N
Cu     0.00329   0.3749  0.12345    Cu
Cu     0.00329   0.6251  0.62345    Cu
N      0.02111  0.28269  0.48755     N
N      0.02111  0.71731  0.98755     N
C       0.0452  0.23149   0.5553     C
C       0.0452  0.76851   0.0553     C
Cu     0.10531  0.15285  0.66835    Cu
Cu     0.10531  0.84715  0.16835    Cu
C      0.14506  0.36853  0.25403     C
C      0.14506  0.63147  0.75403     C
N      0.23882  0.36484  0.27464     N
N      0.23882  0.63516  0.77464     N
N      0.26118  0.13516  0.72536     N
N      0.26118  0.86484  0.22536     N
C      0.35494  0.13147  0.74597     C
C      0.35494  0.86853  0.24597     C
Cu     0.39469  0.34715  0.33165    Cu
Cu     0.39469  0.65285  0.83165    Cu
C       0.4548  0.26851   0.4447     C
C       0.4548  0.73149   0.9447     C
N      0.47889  0.21731  0.51245     N
N      0.47889  0.78269  0.01245     N
Cu     0.49671   0.1251  0.87655    Cu
Cu     0.49671   0.8749  0.37655    Cu
N      0.49831  0.02923   0.5264     N
C      0.49831  0.97077   0.0264     C
Cl         0.5  0.44352     0.25    Cl
Cl         0.5  0.55648     0.75    Cl
N      0.50169  0.02923   0.9736     N
C      0.50169  0.97077   0.4736     C
Cu     0.50329   0.1251  0.62345    Cu
Cu     0.50329   0.8749  0.12345    Cu
N      0.52111  0.21731  0.98755     N
N      0.52111  0.78269  0.48755     N
C       0.5452  0.26851   0.0553     C
C       0.5452  0.73149   0.5553     C
Cu     0.60531  0.34715  0.16835    Cu
Cu     0.60531  0.65285  0.66835    Cu
C      0.64506  0.13147  0.75403     C
C      0.64506  0.86853  0.25403     C
N      0.73882  0.13516  0.77464     N
N      0.73882  0.86484  0.27464     N
N      0.76118  0.36484  0.22536     N
N      0.76118  0.63516  0.72536     N
C      0.85494  0.36853  0.24597     C
C      0.85494  0.63147  0.74597     C
Cu     0.89469  0.15285  0.83165    Cu
Cu     0.89469  0.84715  0.33165    Cu
C       0.9548  0.23149   0.9447     C
C       0.9548  0.76851   0.4447     C
N      0.97889  0.28269  0.01245     N
N      0.97889  0.71731  0.51245     N
Cu     0.99671   0.3749  0.37655    Cu
Cu     0.99671   0.6251  0.87655    Cu
C      0.99831  0.47077   0.0264     C
N      0.99831  0.52923   0.5264     N
