data_I
_chemical_name_common  '/home/zhangsd/repos/MofS-CGCNN/ML/data/TSD/clean_cifs/DARJOX_clean'
_cell_length_a  8.90240
_cell_length_b 14.27960
_cell_length_c 15.06370
_cell_angle_alpha 90.00000
_cell_angle_beta  95.06800
_cell_angle_gamma 90.00000
_space_group_name_H-M_alt      'P 1'


loop_
_space_group_symop_operation_xyz
  'x, y, z' 

loop_
_atom_site_label
_atom_site_fract_x
_atom_site_fract_y
_atom_site_fract_z
_atom_site_type_symbol
O       0.0216   0.0798    0.252     O
O       0.0216   0.4202    0.752     O
Al     0.17743  0.55886  0.25677    Al
Al     0.17743  0.94114  0.75677    Al
P      0.18794  0.06628  0.25415     P
P      0.18794  0.43372  0.75415     P
O       0.2247   0.5648   0.1407     O
O       0.2247   0.9352   0.6407     O
O       0.2306   0.0638  0.15948     O
O       0.2306   0.4362  0.65948     O
O       0.2343   0.0477   0.8164     O
O       0.2343   0.4523   0.3164     O
O       0.2352   0.5246  0.80116     O
O       0.2352   0.9754  0.30116     O
O        0.258   0.6617   0.3178     O
O        0.258   0.8383   0.8178     O
O       0.2664   0.1477   0.3029     O
O       0.2664   0.3523   0.8029     O
O       0.2994   0.0547  0.97999     O
O       0.2994   0.4453  0.47999     O
O       0.3003   0.5387  0.99041     O
O       0.3003   0.9613  0.49041     O
P      0.35049  0.08051  0.88875     P
P      0.35049  0.41949  0.38875     P
O       0.3549  0.69226   0.8825     O
O       0.3549  0.80774   0.3825     O
P      0.35906  0.55539  0.08707     P
P      0.35906  0.94461  0.58707     P
Co     0.36042  0.57044  0.88532    Co
Co     0.36042  0.92956  0.38532    Co
O       0.3642  0.18648   0.8851     O
O       0.3642  0.31352   0.3851     O
Al     0.38083   0.0602  0.09068    Al
Al     0.38083   0.4398  0.59068    Al
P      0.39909  0.71834  0.33783     P
P      0.39909  0.78166  0.83783     P
Co     0.42598  0.21385  0.33584    Co
Co     0.42598  0.28615  0.83584    Co
O       0.4536   0.6449   0.0912     O
O       0.4536   0.8551   0.5912     O
O       0.4551   0.0265   0.6227     O
O       0.4551   0.4735   0.1227     O
O       0.4696   0.7443   0.2534     O
O       0.4696   0.7557   0.7534     O
O       0.4893   0.1652   0.1004     O
O       0.4893   0.3348   0.6004     O
O       0.4969   0.5372   0.6216     O
O       0.4969   0.9628   0.1216     O
O       0.5031   0.0372   0.8784     O
O       0.5031   0.4628   0.3784     O
O       0.5107   0.6652   0.3996     O
O       0.5107   0.8348   0.8996     O
O       0.5304   0.2443   0.2466     O
O       0.5304   0.2557   0.7466     O
O       0.5449   0.5265   0.8773     O
O       0.5449   0.9735   0.3773     O
O       0.5464   0.1449   0.4088     O
O       0.5464   0.3551   0.9088     O
Co     0.57402  0.71385  0.16416    Co
Co     0.57402  0.78615  0.66416    Co
P      0.60091  0.21834  0.16217     P
P      0.60091  0.28166  0.66217     P
Al     0.61917   0.5602  0.40932    Al
Al     0.61917   0.9398  0.90932    Al
O       0.6358  0.68648   0.6149     O
O       0.6358  0.81352   0.1149     O
Co     0.63958  0.07044  0.61468    Co
Co     0.63958  0.42956  0.11468    Co
P      0.64094  0.05539  0.41293     P
P      0.64094  0.44461  0.91293     P
O       0.6451  0.19226   0.6175     O
O       0.6451  0.30774   0.1175     O
P      0.64951  0.58051  0.61125     P
P      0.64951  0.91949  0.11125     P
O       0.6997   0.0387  0.50959     O
O       0.6997   0.4613  0.00959     O
O       0.7006   0.5547  0.52001     O
O       0.7006   0.9453  0.02001     O
O       0.7336   0.6477   0.1971     O
O       0.7336   0.8523   0.6971     O
O        0.742   0.1617   0.1822     O
O        0.742   0.3383   0.6822     O
O       0.7648   0.0246  0.69884     O
O       0.7648   0.4754  0.19884     O
O       0.7657   0.5477   0.6836     O
O       0.7657   0.9523   0.1836     O
O       0.7694   0.5638  0.34052     O
O       0.7694   0.9362  0.84052     O
O       0.7753   0.0648   0.3593     O
O       0.7753   0.4352   0.8593     O
P      0.81206  0.56628  0.24585     P
P      0.81206  0.93372  0.74585     P
Al     0.82257  0.05886  0.24323    Al
Al     0.82257  0.44114  0.74323    Al
O       0.9784   0.5798    0.248     O
O       0.9784   0.9202    0.748     O
