data_I
_chemical_name_common  '/home/zhangsd/repos/MofS-CGCNN/ML/data/TSD/clean_cifs/DARVAW_clean'
_cell_length_a  9.13320
_cell_length_b 13.83970
_cell_length_c  9.08470
_cell_angle_alpha 90.00000
_cell_angle_beta  117.39200
_cell_angle_gamma 90.00000
_space_group_name_H-M_alt      'P 1'


loop_
_space_group_symop_operation_xyz
  'x, y, z' 

loop_
_atom_site_label
_atom_site_fract_x
_atom_site_fract_y
_atom_site_fract_z
_atom_site_type_symbol
O       0.0208   0.6087   0.1064     O
O       0.0208   0.8913   0.6064     O
C       0.0545   0.0399    0.491     C
C       0.0545   0.4601    0.991     C
H       0.1603   0.7192   0.4605     H
H       0.1603   0.7808   0.9605     H
O       0.2063    0.033   0.5763     O
O       0.2063    0.467   0.0763     O
C        0.248   0.7478   0.9535     C
C        0.248   0.7522   0.4535     C
Co     0.27759  0.59584  0.22192    Co
Co     0.27759  0.90416  0.72192    Co
O        0.288   0.5156   0.4273     O
O        0.288   0.9844   0.9273     O
N       0.3131   0.7236   0.3579     N
N       0.3131   0.7764   0.8579     N
N       0.3173   0.6679   0.0394     N
N       0.3173   0.8321   0.5394     N
H       0.3897   0.0671   0.5032     H
H       0.3897   0.4329   0.0032     H
C       0.4293   0.0114   0.0238     C
C       0.4293   0.4886   0.5238     C
N        0.432   0.7106   0.8835     N
N        0.432   0.7894   0.3835     N
C       0.4371   0.6458    0.995     C
C       0.4371   0.8542    0.495     C
H       0.4557   0.0312   0.3864     H
H       0.4557   0.4688   0.8864     H
N        0.458   0.0734     0.46     N
N        0.458   0.4266     0.96     N
O       0.4739   0.0555   0.1592     O
O       0.4739   0.4445   0.6592     O
H       0.4958   0.7105   0.8346     H
H       0.4958   0.7895   0.3346     H
H       0.5042   0.2105   0.6654     H
H       0.5042   0.2895   0.1654     H
O       0.5261   0.5555   0.3408     O
O       0.5261   0.9445   0.8408     O
N        0.542   0.5734     0.04     N
N        0.542   0.9266     0.54     N
H       0.5443   0.5312   0.1136     H
H       0.5443   0.9688   0.6136     H
C       0.5629   0.1458    0.505     C
C       0.5629   0.3542    0.005     C
N        0.568   0.2106   0.6165     N
N        0.568   0.2894   0.1165     N
C       0.5707   0.5114   0.4762     C
C       0.5707   0.9886   0.9762     C
H       0.6103   0.5671   0.9968     H
H       0.6103   0.9329   0.4968     H
N       0.6827   0.1679   0.4606     N
N       0.6827   0.3321   0.9606     N
N       0.6869   0.2236   0.1421     N
N       0.6869   0.2764   0.6421     N
O        0.712   0.0156   0.0727     O
O        0.712   0.4844   0.5727     O
Co     0.72241  0.09584  0.27808    Co
Co     0.72241  0.40416  0.77808    Co
C        0.752   0.2478   0.5465     C
C        0.752   0.2522   0.0465     C
O       0.7937    0.533   0.9237     O
O       0.7937    0.967   0.4237     O
H       0.8397   0.2192   0.0395     H
H       0.8397   0.2808   0.5395     H
C       0.9455   0.5399    0.009     C
C       0.9455   0.9601    0.509     C
O       0.9792   0.1087   0.3936     O
O       0.9792   0.3913   0.8936     O
