data_I
_chemical_name_common  '/home/zhangsd/repos/MofS-CGCNN/ML/data/TSD/clean_cifs/DAWBIO_clean'
_cell_length_a  6.62000
_cell_length_b 26.28200
_cell_length_c  7.66700
_cell_angle_alpha 90.00000
_cell_angle_beta  90.00000
_cell_angle_gamma 90.00000
_space_group_name_H-M_alt      'P 1'


loop_
_space_group_symop_operation_xyz
  'x, y, z' 

loop_
_atom_site_label
_atom_site_fract_x
_atom_site_fract_y
_atom_site_fract_z
_atom_site_type_symbol
Co     0.01416  0.71664  0.25071    Co
C       0.0147   0.8916   0.7794     C
H       0.0276   0.8517   0.4117     H
C       0.0278   0.1782   0.3523     C
H       0.0334   0.6051   0.3829     H
N       0.0421   0.0208   0.7129     N
H       0.0829   0.1351   0.1352     H
C       0.0917   0.9365   0.7149     C
H       0.0961   0.8202   0.8338     H
C       0.0977    0.394   0.3394     C
H       0.1186    0.111   0.8166     H
O        0.126  0.25641   0.4798     O
O       0.1382  0.79343   0.2793     O
C       0.1458   0.8503   0.7862     C
C       0.1499   0.2084   0.4836     C
O        0.159  0.68336   0.0463     O
C       0.1596   0.1597   0.2022     C
H       0.1626   0.4672      0.4     H
N       0.1655     0.35    0.269     N
O       0.2038  0.24696    0.101     O
C       0.2143   0.4377   0.3501     C
H       0.2248   0.6421    0.749     H
O       0.2327   0.6846   0.4205     O
C        0.237   0.2006   0.0774     C
C        0.263   0.7006   0.9226     C
O       0.2673   0.1846   0.5795     O
H       0.2752   0.1421    0.251     H
C       0.2857   0.9377   0.6499     C
O       0.2962  0.74696    0.899     O
N       0.3345     0.85    0.731     N
H       0.3374   0.9672      0.6     H
C       0.3404   0.6597   0.7978     C
O        0.341  0.18336   0.9537     O
C       0.3501   0.7084   0.5164     C
C       0.3542   0.3503   0.2138     C
O       0.3618  0.29343   0.7207     O
O        0.374  0.75641   0.5202     O
H       0.3814    0.611   0.1834     H
C       0.4023    0.894   0.6606     C
H       0.4039   0.3202   0.1662     H
C       0.4083   0.4365   0.2851     C
H       0.4171   0.6351   0.8648     H
N       0.4579   0.5208   0.2871     N
H       0.4666   0.1051   0.6171     H
C       0.4722   0.6782   0.6477     C
H       0.4724   0.3517   0.5883     H
C       0.4853   0.3916   0.2206     C
Co     0.48584  0.21664  0.74929    Co
Co     0.51416  0.78336  0.74929    Co
C       0.5147   0.6084   0.2206     C
H       0.5276   0.6483   0.5883     H
C       0.5278   0.3218   0.6477     C
H       0.5334   0.8949   0.6171     H
N       0.5421   0.4792   0.2871     N
H       0.5829   0.3649   0.8648     H
C       0.5917   0.5635   0.2851     C
H       0.5961   0.6798   0.1662     H
C       0.5977    0.106   0.6606     C
H       0.6186    0.389   0.1834     H
O        0.626  0.24359   0.5202     O
O       0.6382  0.70657   0.7207     O
C       0.6458   0.6497   0.2138     C
C       0.6499   0.2916   0.5164     C
O        0.659  0.81664   0.9537     O
C       0.6596   0.3403   0.7978     C
H       0.6626   0.0328      0.6     H
N       0.6655     0.15    0.731     N
O       0.7038  0.25304    0.899     O
C       0.7143   0.0623   0.6499     C
H       0.7248   0.8579    0.251     H
O       0.7327   0.8154   0.5795     O
C        0.737   0.2994   0.9226     C
C        0.763   0.7994   0.0774     C
O       0.7673   0.3154   0.4205     O
H       0.7752   0.3579    0.749     H
C       0.7857   0.5623   0.3501     C
O       0.7962  0.75304    0.101     O
N       0.8345     0.65    0.269     N
H       0.8374   0.5328      0.4     H
C       0.8404   0.8403   0.2022     C
O        0.841  0.31664   0.0463     O
C       0.8501   0.7916   0.4836     C
C       0.8542   0.1497   0.7862     C
O       0.8618  0.20657   0.2793     O
O        0.874  0.74359   0.4798     O
H       0.8814    0.889   0.8166     H
C       0.9023    0.606   0.3394     C
H       0.9039   0.1798   0.8338     H
C       0.9083   0.0635   0.7149     C
H       0.9171   0.8649   0.1352     H
N       0.9579   0.9792   0.7129     N
H       0.9666   0.3949   0.3829     H
C       0.9722   0.8218   0.3523     C
H       0.9724   0.1483   0.4117     H
C       0.9853   0.1084   0.7794     C
Co     0.98584  0.28336  0.25071    Co
