data_I
_chemical_name_common  '/home/zhangsd/repos/MofS-CGCNN/ML/data/TSD/clean_cifs/DAWWAB_clean'
_cell_length_a 24.00100
_cell_length_b 17.45500
_cell_length_c 11.67600
_cell_angle_alpha 90.00000
_cell_angle_beta  105.09600
_cell_angle_gamma 90.00000
_space_group_name_H-M_alt      'P 1'


loop_
_space_group_symop_operation_xyz
  'x, y, z' 

loop_
_atom_site_label
_atom_site_fract_x
_atom_site_fract_y
_atom_site_fract_z
_atom_site_type_symbol
Cl         0.0    0.325      0.0    Cl
N        0.017     0.41    0.365     N
N        0.022    0.217    0.371     N
N        0.022    0.436    0.265     N
N       0.0245    0.246    0.268     N
Cu      0.0327   0.2252    0.885    Cu
Cu      0.0359    0.408    0.878    Cu
H       0.0533   0.1115   0.7378     H
Cu      0.0533    0.255    0.611    Cu
Cu      0.0586    0.382    0.612    Cu
H       0.0599    0.598   0.5903     H
N        0.064    0.425    0.446     N
H       0.0641   0.0374   0.5801     H
H       0.0652   0.5101    0.755     H
N         0.07     0.22    0.451     N
N        0.077    0.473    0.272     N
N         0.08    0.265    0.278     N
C        0.088    0.087    0.742     C
C        0.092    0.596    0.655     C
C        0.095    0.043    0.647     C
C        0.096    0.542    0.754     C
C        0.101    0.468    0.389     C
N        0.107    0.198    0.969     N
Cu       0.108    0.244    0.607    Cu
C        0.108    0.258    0.393     C
Cu        0.11    0.402    0.612    Cu
N        0.113    0.438    0.969     N
Cl       0.121     0.32   0.7543    Cl
Cu      0.1211   0.3214   0.1651    Cu
C        0.134    0.095    0.843     C
C        0.138    0.643    0.663     C
H       0.1383   0.6773   0.6025     H
N        0.139    0.237    0.071     N
N         0.14     0.42    0.077     N
C        0.143     0.54    0.838     C
C        0.144    0.142    0.938     C
C        0.147    0.006    0.654     C
C        0.148    0.488    0.946     C
H       0.1511   0.9763   0.5904     H
C        0.159    0.495     0.45     C
C        0.171    0.279    0.436     C
H        0.177   0.8443   0.5098     H
N        0.179    0.463    0.562     N
H       0.1812   0.5679   0.3335     H
C        0.184    0.639    0.764     C
N        0.186    0.058    0.849     N
N        0.188    0.452    0.113     N
N         0.19    0.587    0.846     N
N        0.191    0.309    0.343     N
N        0.191    0.497    0.041     N
C        0.193    0.014    0.754     C
C        0.194    0.546    0.408     C
H       0.1949   0.2543   0.6106     H
N        0.195    0.205    0.103     N
H       0.1951   0.0446   0.3616     H
N        0.198    0.147    0.022     N
C        0.208    0.274    0.549     C
H       0.2101   0.7949   0.3552     H
H       0.2135   0.6759   0.7723     H
C        0.215    0.828    0.523     C
H       0.2274   0.9894   0.7584     H
H       0.2279   0.0986   0.5486     H
C        0.232    0.032    0.409     C
C        0.234    0.481    0.633     C
C        0.235    0.798    0.431     C
H       0.2388   0.8531   0.6986     H
H       0.2466   0.4598   0.7076     H
C        0.248    0.333    0.363     C
C        0.249    0.565    0.479     C
Cu      0.2496   0.0724    0.999    Cu
Cu      0.2504   0.5724    0.001    Cu
C        0.251    0.065    0.521     C
C        0.252    0.833    0.637     C
H       0.2534   0.9598   0.2924     H
H       0.2612   0.3531   0.3014     H
C        0.265    0.298    0.569     C
C        0.266    0.981    0.367     C
C        0.268    0.532    0.591     C
H       0.2721   0.5986   0.4514     H
H       0.2726   0.4894   0.2416     H
C        0.285    0.328    0.477     C
H       0.2865   0.1759   0.2277     H
H       0.2899   0.2949   0.6448     H
C        0.292    0.774    0.451     C
N        0.302    0.647    0.978     N
H       0.3049   0.5446   0.6384     H
N        0.305    0.705    0.897     N
H       0.3051   0.7543   0.3894     H
C        0.306    0.046    0.592     C
C        0.307    0.514    0.246     C
N        0.309    0.809    0.657     N
N        0.309    0.997    0.959     N
N         0.31    0.087    0.154     N
N        0.312    0.952    0.887     N
N        0.314    0.558    0.151     N
C        0.316    0.139    0.236     C
H       0.3188   0.0679   0.6665     H
N        0.321    0.963    0.438     N
H        0.323   0.3443   0.4902     H
C        0.329    0.779    0.564     C
C        0.341    0.995     0.55     C
H       0.3489   0.4763   0.4096     H
C        0.352    0.988    0.054     C
C        0.353    0.506    0.346     C
C        0.356    0.642    0.062     C
C        0.357     0.04    0.162     C
N         0.36     0.92    0.923     N
N        0.361    0.737    0.929     N
H       0.3617   0.1773   0.3975     H
C        0.362    0.143    0.337     C
C        0.366    0.595    0.157     C
Cu      0.3789   0.8214   0.8349    Cu
Cl       0.379     0.82   0.2457    Cl
N        0.387    0.938    0.031     N
Cu        0.39    0.902    0.388    Cu
Cu       0.392    0.744    0.393    Cu
C        0.392    0.758    0.607     C
N        0.393    0.698    0.031     N
C        0.399    0.968    0.611     C
C        0.404    0.042    0.246     C
C        0.405    0.543    0.353     C
C        0.408    0.096    0.345     C
C        0.412    0.587    0.258     C
N         0.42    0.765    0.722     N
N        0.423    0.973    0.728     N
N         0.43     0.72    0.549     N
H       0.4348   0.0101    0.245     H
H       0.4359   0.5374   0.4199     H
N        0.436    0.925    0.554     N
H       0.4401    0.098   0.4097     H
Cu      0.4414    0.882    0.388    Cu
H       0.4467   0.6115   0.2622     H
Cu      0.4467    0.755    0.389    Cu
Cu      0.4641    0.908    0.122    Cu
Cu      0.4673   0.7252    0.115    Cu
N       0.4755    0.746    0.732     N
N        0.478    0.717    0.629     N
N        0.478    0.936    0.735     N
N        0.483     0.91    0.635     N
Cl         0.5    0.825      0.0    Cl
N        0.517     0.91    0.365     N
N        0.522    0.717    0.371     N
N        0.522    0.936    0.265     N
N       0.5245    0.746    0.268     N
Cu      0.5327   0.7252    0.885    Cu
Cu      0.5359    0.908    0.878    Cu
H       0.5533   0.6115   0.7378     H
Cu      0.5533    0.755    0.611    Cu
Cu      0.5586    0.882    0.612    Cu
H       0.5599    0.098   0.5903     H
N        0.564    0.925    0.446     N
H       0.5641   0.5374   0.5801     H
H       0.5652   0.0101    0.755     H
N         0.57     0.72    0.451     N
N        0.577    0.973    0.272     N
N         0.58    0.765    0.278     N
C        0.588    0.587    0.742     C
C        0.592    0.096    0.655     C
C        0.595    0.543    0.647     C
C        0.596    0.042    0.754     C
C        0.601    0.968    0.389     C
N        0.607    0.698    0.969     N
Cu       0.608    0.744    0.607    Cu
C        0.608    0.758    0.393     C
Cu        0.61    0.902    0.612    Cu
N        0.613    0.938    0.969     N
Cl       0.621     0.82   0.7543    Cl
Cu      0.6211   0.8214   0.1651    Cu
C        0.634    0.595    0.843     C
C        0.638    0.143    0.663     C
H       0.6383   0.1773   0.6025     H
N        0.639    0.737    0.071     N
N         0.64     0.92    0.077     N
C        0.643     0.04    0.838     C
C        0.644    0.642    0.938     C
C        0.647    0.506    0.654     C
C        0.648    0.988    0.946     C
H       0.6511   0.4763   0.5904     H
C        0.659    0.995     0.45     C
C        0.671    0.779    0.436     C
H        0.677   0.3443   0.5098     H
N        0.679    0.963    0.562     N
H       0.6812   0.0679   0.3335     H
C        0.684    0.139    0.764     C
N        0.686    0.558    0.849     N
N        0.688    0.952    0.113     N
N         0.69    0.087    0.846     N
N        0.691    0.809    0.343     N
N        0.691    0.997    0.041     N
C        0.693    0.514    0.754     C
C        0.694    0.046    0.408     C
H       0.6949   0.7543   0.6106     H
N        0.695    0.705    0.103     N
H       0.6951   0.5446   0.3616     H
N        0.698    0.647    0.022     N
C        0.708    0.774    0.549     C
H       0.7101   0.2949   0.3552     H
H       0.7135   0.1759   0.7723     H
C        0.715    0.328    0.523     C
H       0.7274   0.4894   0.7584     H
H       0.7279   0.5986   0.5486     H
C        0.732    0.532    0.409     C
C        0.734    0.981    0.633     C
C        0.735    0.298    0.431     C
H       0.7388   0.3531   0.6986     H
H       0.7466   0.9598   0.7076     H
C        0.748    0.833    0.363     C
C        0.749    0.065    0.479     C
Cu      0.7496   0.5724    0.999    Cu
Cu      0.7504   0.0724    0.001    Cu
C        0.751    0.565    0.521     C
C        0.752    0.333    0.637     C
H       0.7534   0.4598   0.2924     H
H       0.7612   0.8531   0.3014     H
C        0.765    0.798    0.569     C
C        0.766    0.481    0.367     C
C        0.768    0.032    0.591     C
H       0.7721   0.0986   0.4514     H
H       0.7726   0.9894   0.2416     H
C        0.785    0.828    0.477     C
H       0.7865   0.6759   0.2277     H
H       0.7899   0.7949   0.6448     H
C        0.792    0.274    0.451     C
N        0.802    0.147    0.978     N
H       0.8049   0.0446   0.6384     H
N        0.805    0.205    0.897     N
H       0.8051   0.2543   0.3894     H
C        0.806    0.546    0.592     C
C        0.807    0.014    0.246     C
N        0.809    0.309    0.657     N
N        0.809    0.497    0.959     N
N         0.81    0.587    0.154     N
N        0.812    0.452    0.887     N
N        0.814    0.058    0.151     N
C        0.816    0.639    0.236     C
H       0.8188   0.5679   0.6665     H
N        0.821    0.463    0.438     N
H        0.823   0.8443   0.4902     H
C        0.829    0.279    0.564     C
C        0.841    0.495     0.55     C
H       0.8489   0.9763   0.4096     H
C        0.852    0.488    0.054     C
C        0.853    0.006    0.346     C
C        0.856    0.142    0.062     C
C        0.857     0.54    0.162     C
N         0.86     0.42    0.923     N
N        0.861    0.237    0.929     N
H       0.8617   0.6773   0.3975     H
C        0.862    0.643    0.337     C
C        0.866    0.095    0.157     C
Cu      0.8789   0.3214   0.8349    Cu
Cl       0.879     0.32   0.2457    Cl
N        0.887    0.438    0.031     N
Cu        0.89    0.402    0.388    Cu
Cu       0.892    0.244    0.393    Cu
C        0.892    0.258    0.607     C
N        0.893    0.198    0.031     N
C        0.899    0.468    0.611     C
C        0.904    0.542    0.246     C
C        0.905    0.043    0.353     C
C        0.908    0.596    0.345     C
C        0.912    0.087    0.258     C
N         0.92    0.265    0.722     N
N        0.923    0.473    0.728     N
N         0.93     0.22    0.549     N
H       0.9348   0.5101    0.245     H
H       0.9359   0.0374   0.4199     H
N        0.936    0.425    0.554     N
H       0.9401    0.598   0.4097     H
Cu      0.9414    0.382    0.388    Cu
H       0.9467   0.1115   0.2622     H
Cu      0.9467    0.255    0.389    Cu
Cu      0.9641    0.408    0.122    Cu
Cu      0.9673   0.2252    0.115    Cu
N       0.9755    0.246    0.732     N
N        0.978    0.217    0.629     N
N        0.978    0.436    0.735     N
N        0.983     0.41    0.635     N
