data_I
_chemical_name_common  '/home/zhangsd/repos/MofS-CGCNN/ML/data/TSD/clean_cifs/DAXHIV_clean'
_cell_length_a 12.07800
_cell_length_b 12.08700
_cell_length_c 13.68460
_cell_angle_alpha 98.88210
_cell_angle_beta  116.18700
_cell_angle_gamma 69.52000
_space_group_name_H-M_alt      'P 1'


loop_
_space_group_symop_operation_xyz
  'x, y, z' 

loop_
_atom_site_label
_atom_site_fract_x
_atom_site_fract_y
_atom_site_fract_z
_atom_site_type_symbol
Fe         0.0      0.0      0.0    Fe
O      0.00288   0.5979  0.10936     O
N      0.01944   0.9793  0.78188     N
C       0.0224   0.0193     0.61     C
C       0.0306      0.5   0.0612     C
C       0.0394   0.0423   0.7228     C
N      0.04046    0.037  0.87712     N
C       0.0572   0.0482   0.4578     C
N      0.07386   0.1262  0.87552     N
N        0.076   0.1326   0.7798     N
C       0.0766    0.067   0.5628     C
N       0.0796   0.7353     -0.0     N
H       0.0978   0.0809   0.4292     H
Fe     0.10439  0.25846     -0.0    Fe
O      0.10648   0.4021  0.10936     O
N       0.1139   0.8254     -0.0     N
H       0.1291   0.1146    0.606     H
N      0.16334    0.037  0.12288     N
N       0.1687   0.6372     -0.0     N
N      0.19834   0.1262  0.12448     N
N       0.2327   0.7849     -0.0     N
N      0.23756   0.9793  0.21812     N
C       0.2642   0.6678     -0.0     C
N       0.2962   0.1326   0.2202     N
C       0.3166   0.0423   0.2772     C
H       0.3314   0.9191   0.4292     H
H       0.3366   0.4396     -0.0     H
C       0.3836   0.5828     -0.0     C
C       0.4006   0.9518   0.4578     C
C       0.4034   0.4638     -0.0     C
C       0.4124   0.0193     0.39     C
H       0.4717   0.7074      0.0     H
H       0.4769   0.8854    0.606     H
C       0.4826   0.6256     -0.0     C
C       0.4862    0.933   0.5628     C
C       0.5138    0.067   0.4372     C
C       0.5174   0.3744     -0.0     C
H       0.5231   0.1146    0.394     H
H       0.5283   0.2926     -0.0     H
C       0.5876   0.9807     0.61     C
C       0.5966   0.5362     -0.0     C
C       0.5994   0.0482   0.5422     C
C       0.6164   0.4172     -0.0     C
H       0.6634   0.5604     -0.0     H
H       0.6686   0.0809   0.5708     H
C       0.6834   0.9577   0.7228     C
N       0.7038   0.8674   0.7798     N
C       0.7358   0.3322     -0.0     C
N      0.76244   0.0207  0.78188     N
N       0.7673   0.2151     -0.0     N
N      0.80166   0.8738  0.87552     N
N       0.8313   0.3628     -0.0     N
N      0.83666    0.963  0.87712     N
H       0.8709   0.8854    0.394     H
N       0.8861   0.1746     -0.0     N
O      0.89352   0.5979  0.89064     O
Fe     0.89561  0.74154     -0.0    Fe
H       0.9022   0.9191   0.5708     H
N       0.9204   0.2647     -0.0     N
C       0.9234    0.933   0.4372     C
N        0.924   0.8674   0.2202     N
N      0.92614   0.8738  0.12448     N
C       0.9428   0.9518   0.5422     C
N      0.95954    0.963  0.12288     N
C       0.9606   0.9577   0.2772     C
C       0.9694      0.5   0.9388     C
C       0.9776   0.9807     0.39     C
N      0.98056   0.0207  0.21812     N
O      0.99712   0.4021  0.89064     O
