data_I
_chemical_name_common  '/home/zhangsd/repos/MofS-CGCNN/ML/data/TSD/clean_cifs/DAXHIV01_clean'
_cell_length_a 12.01150
_cell_length_b 12.10200
_cell_length_c 13.67880
_cell_angle_alpha 98.68330
_cell_angle_beta  116.04400
_cell_angle_gamma 69.88790
_space_group_name_H-M_alt      'P 1'


loop_
_space_group_symop_operation_xyz
  'x, y, z' 

loop_
_atom_site_label
_atom_site_fract_x
_atom_site_fract_y
_atom_site_fract_z
_atom_site_type_symbol
Fe         0.0      0.0      0.0    Fe
O      0.00303  0.59639  0.10968     O
N      0.02139   0.9802  0.78198     N
C      0.02258   0.0193  0.60936     C
C      0.03136      0.5  0.06272     C
N      0.04248   0.0363  0.87716     N
C      0.04409   0.0424  0.72418     C
C      0.05585   0.0468   0.4551     C
N       0.0761   0.7369     -0.0     N
N      0.07694   0.1283  0.87528     N
N      0.07874   0.1351  0.77968     N
C      0.07931   0.0662  0.56402     C
H       0.0948   0.0799   0.4246     H
Fe     0.10664  0.25873      0.0    Fe
O      0.10665  0.40361  0.10968     O
N       0.1138   0.8263      0.0     N
H       0.1345   0.1117   0.6076     H
N      0.16532   0.0363  0.12284     N
N       0.1685   0.6359     -0.0     N
N      0.20166   0.1283  0.12472     N
N       0.2335   0.7873      0.0     N
N      0.23941   0.9802  0.21802     N
C       0.2635   0.6694      0.0     C
N      0.29906   0.1351  0.22032     N
C      0.31991   0.0424  0.27582     C
H       0.3298   0.9201   0.4246     H
H       0.3354   0.4408      1.0     H
C       0.3855   0.5827      1.0     C
C      0.39925   0.9532   0.4551     C
C       0.4021   0.4661     -0.0     C
C      0.41322   0.0193  0.39064     C
H       0.4722   0.6991      0.0     H
H       0.4731   0.8883   0.6076     H
C       0.4828   0.6177      0.0     C
C      0.48471   0.9338  0.56402     C
C      0.51529   0.0662  0.43598     C
C       0.5172   0.3823      0.0     C
H       0.5269   0.1117   0.3924     H
H       0.5278   0.3009      0.0     H
C      0.58678   0.9807  0.60936     C
C       0.5979   0.5339      0.0     C
C      0.60075   0.0468   0.5449     C
C       0.6145   0.4173      0.0     C
H       0.6646   0.5592     -0.0     H
H       0.6702   0.0799   0.5754     H
C      0.68009   0.9576  0.72418     C
N      0.70094   0.8649  0.77968     N
C       0.7365   0.3306      0.0     C
N      0.76059   0.0198  0.78198     N
N       0.7665   0.2127     -0.0     N
N      0.79834   0.8717  0.87528     N
N       0.8315   0.3641     -0.0     N
N      0.83468   0.9637  0.87716     N
H       0.8655   0.8883   0.3924     H
N       0.8862   0.1737      0.0     N
O      0.89335  0.59639  0.89032     O
Fe     0.89336  0.74127      0.0    Fe
H       0.9052   0.9201   0.5754     H
C      0.92069   0.9338  0.43598     C
N      0.92126   0.8649  0.22032     N
N      0.92306   0.8717  0.12472     N
N       0.9239   0.2631      0.0     N
C      0.94415   0.9532   0.5449     C
C      0.95591   0.9576  0.27582     C
N      0.95752   0.9637  0.12284     N
C      0.96864      0.5  0.93728     C
C      0.97742   0.9807  0.39064     C
N      0.97861   0.0198  0.21802     N
O      0.99697  0.40361  0.89032     O
