data_I
_chemical_name_common  '/home/zhangsd/repos/MofS-CGCNN/ML/data/TSD/clean_cifs/DAXHUH01_clean'
_cell_length_a 11.95000
_cell_length_b 12.11400
_cell_length_c 13.66830
_cell_angle_alpha 63.69550
_cell_angle_beta  81.17130
_cell_angle_gamma 69.73590
_space_group_name_H-M_alt      'P 1'


loop_
_space_group_symop_operation_xyz
  'x, y, z' 

loop_
_atom_site_label
_atom_site_fract_x
_atom_site_fract_y
_atom_site_fract_z
_atom_site_type_symbol
Fe         0.0      0.0      0.0    Fe
C       0.0184    0.023     0.39     C
C       0.0184    0.413     0.61     C
N       0.0206  0.76197  0.21806     N
N       0.0206  0.98003  0.78194     N
N       0.0341  0.04124  0.12412     N
N       0.0341  0.16536  0.87588     N
C       0.0434   0.0393    0.277     C
C       0.0434   0.3163    0.723     C
C       0.0496   0.0522   0.5448     C
C       0.0496    0.597   0.4552     C
C       0.0667    0.078    0.436     C
C       0.0667    0.514    0.564     C
H       0.0855   0.0871   0.5748     H
H       0.0855   0.6619   0.4252     H
H       0.1109   0.1328    0.393     H
H       0.1109   0.5258    0.607     H
N       0.1324   0.0691   0.1258     N
N       0.1324   0.1949   0.8742     N
N       0.1382  0.07172  0.22096     N
N       0.1382  0.29268  0.77904     N
N       0.1779   0.8832     -0.0     N
N       0.2135   0.7684      0.0     N
Fe     0.26032  0.10522      0.0    Fe
N       0.2672    0.921     -0.0     N
H       0.3004   0.5329      0.0     H
C       0.3359   0.7365      0.0     C
N       0.3685   0.8296     -0.0     N
C       0.3813   0.5221      0.0     C
O       0.4038  0.10334  0.89092     O
O       0.4038  0.99426  0.10908     O
C       0.4172   0.6166     -0.0     C
H       0.4429   0.3398      0.0     H
C       0.4695   0.4035      0.0     C
C          0.5   0.0313   0.9374     C
C          0.5   0.9687   0.0626     C
C       0.5305   0.5965     -0.0     C
H       0.5571   0.6602     -0.0     H
C       0.5828   0.3834     -0.0     C
O       0.5962  0.00574  0.89092     O
O       0.5962  0.89666  0.10908     O
C       0.6187   0.4779      0.0     C
N       0.6315   0.1704     -0.0     N
C       0.6641   0.2635      0.0     C
H       0.6996   0.4671      0.0     H
N       0.7328    0.079      0.0     N
Fe     0.73968  0.89478      0.0    Fe
N       0.7865   0.2316      1.0     N
N       0.8221   0.1168      0.0     N
N       0.8618  0.70732  0.22096     N
N       0.8618  0.92828  0.77904     N
N       0.8676   0.8051   0.1258     N
N       0.8676   0.9309   0.8742     N
H       0.8891   0.4742    0.393     H
H       0.8891   0.8672    0.607     H
H       0.9145   0.3381   0.5748     H
H       0.9145   0.9129   0.4252     H
C       0.9333    0.486    0.436     C
C       0.9333    0.922    0.564     C
C       0.9504    0.403   0.5448     C
C       0.9504   0.9478   0.4552     C
C       0.9566   0.6837    0.277     C
C       0.9566   0.9607    0.723     C
N       0.9659  0.83464  0.12412     N
N       0.9659  0.95876  0.87588     N
N       0.9794  0.01997  0.21806     N
N       0.9794  0.23803  0.78194     N
C       0.9816    0.587     0.39     C
C       0.9816    0.977     0.61     C
