data_I
_chemical_name_common  '/home/zhangsd/repos/MofS-CGCNN/ML/data/TSD/clean_cifs/DAXHUH_clean'
_cell_length_a 12.10600
_cell_length_b 12.11800
_cell_length_c 13.72080
_cell_angle_alpha 98.96280
_cell_angle_beta  116.17800
_cell_angle_gamma 69.32000
_space_group_name_H-M_alt      'P 1'


loop_
_space_group_symop_operation_xyz
  'x, y, z' 

loop_
_atom_site_label
_atom_site_fract_x
_atom_site_fract_y
_atom_site_fract_z
_atom_site_type_symbol
Fe         0.0      0.0      0.0    Fe
O      0.00471   0.5972  0.11082     O
C       0.0179   0.0183   0.6088     C
N       0.0184   0.9799   0.7804     N
C       0.0318      0.5   0.0636     C
C       0.0393   0.0433   0.7222     C
N      0.04078   0.0358  0.87716     N
C       0.0527   0.0523   0.4568     C
C       0.0701   0.0741    0.562     C
N       0.0746   0.1354     0.78     N
N        0.077   0.1251   0.8756     N
N       0.0786   0.7352      0.0     N
H       0.0908   0.0874    0.428     H
Fe     0.10403  0.25705      0.0    Fe
O      0.10611   0.4028  0.11082     O
N       0.1124   0.8243      0.0     N
H       0.1169    0.126   0.6046     H
N      0.16362   0.0358  0.12284     N
N       0.1704   0.6355      0.0     N
N       0.2014   0.1251   0.1244     N
N       0.2306    0.788      0.0     N
N        0.238   0.9799   0.2196     N
C       0.2634   0.6676      0.0     C
N       0.2946   0.1354     0.22     N
C       0.3171   0.0433   0.2778     C
H       0.3371   0.4417      0.0     H
H       0.3372   0.9126    0.428     H
C       0.3856   0.5854      0.0     C
C       0.4029   0.4671      0.0     C
C       0.4041   0.9477   0.4568     C
C       0.4091   0.0183   0.3912     C
H       0.4705   0.6982      0.0     H
C       0.4811   0.6167      0.0     C
H       0.4877    0.874   0.6046     H
C       0.4919   0.9259    0.562     C
C       0.5081   0.0741    0.438     C
H       0.5123    0.126   0.3954     H
C       0.5189   0.3833      0.0     C
H       0.5295   0.3018      0.0     H
C       0.5909   0.9817   0.6088     C
C       0.5959   0.0523   0.5432     C
C       0.5971   0.5329      0.0     C
C       0.6144   0.4146      0.0     C
H       0.6628   0.0874    0.572     H
H       0.6629   0.5583      0.0     H
C       0.6829   0.9567   0.7222     C
N       0.7054   0.8646     0.78     N
C       0.7366   0.3324      0.0     C
N        0.762   0.0201   0.7804     N
N       0.7694    0.212      0.0     N
N       0.7986   0.8749   0.8756     N
N       0.8296   0.3645      0.0     N
N      0.83638   0.9642  0.87716     N
H       0.8831    0.874   0.3954     H
N       0.8876   0.1757      0.0     N
O      0.89389   0.5972  0.88918     O
Fe     0.89597  0.74295      1.0    Fe
H       0.9092   0.9126    0.572     H
N       0.9214   0.2648      0.0     N
N        0.923   0.8749   0.1244     N
N       0.9254   0.8646     0.22     N
C       0.9299   0.9259    0.438     C
C       0.9473   0.9477   0.5432     C
N      0.95922   0.9642  0.12284     N
C       0.9607   0.9567   0.2778     C
C       0.9682      0.5   0.9364     C
N       0.9816   0.0201   0.2196     N
C       0.9821   0.9817   0.3912     C
O      0.99529   0.4028  0.88918     O
