data_I
_chemical_name_common  '/home/zhangsd/repos/MofS-CGCNN/ML/data/TSD/clean_cifs/DAXJET01_clean'
_cell_length_a 22.64760
_cell_length_b 22.64760
_cell_length_c  7.44710
_cell_angle_alpha 90.00000
_cell_angle_beta  90.00000
_cell_angle_gamma 120.00000
_space_group_name_H-M_alt      'P 1'


loop_
_space_group_symop_operation_xyz
  'x, y, z' 

loop_
_atom_site_label
_atom_site_fract_x
_atom_site_fract_y
_atom_site_fract_z
_atom_site_type_symbol
Fe         0.0      0.0      0.0    Fe
Fe         0.0      0.0      0.5    Fe
C      0.02787  0.48243  0.85853     C
C      0.02787  0.54543  0.85853     C
C      0.04137  0.49093  0.11663     C
C      0.04137  0.55043  0.11663     C
N       0.0415  0.08301  0.35317     N
N       0.0415   0.9585  0.35317     N
N        0.044  0.08801  0.17617     N
N        0.044    0.956  0.17617     N
H      0.04687  0.47023  0.75973     H
H      0.04687  0.57663  0.75973     H
H      0.07047  0.48443  0.19813     H
H      0.07047  0.58603  0.19813     H
C      0.07053  0.53526  0.97473     C
N      0.07255  0.14511  0.42637     N
N      0.07255  0.92745  0.42637     N
N       0.0767  0.15341  0.12947     N
N       0.0767   0.9233  0.12947     N
H        0.078    0.156   0.5437     H
H        0.078    0.922   0.5437     H
H      0.08063  0.26287  0.53147     H
H      0.08063  0.81777  0.53147     H
N      0.08301   0.0415  0.64683     N
H      0.08545   0.1709   0.0177     H
H      0.08545  0.91455   0.0177     H
N      0.08801    0.044  0.82383     N
H      0.09003  0.28647  0.09307     H
H      0.09003  0.80357  0.09307     H
C       0.0939  0.18781  0.28507     C
C       0.0939   0.9061  0.28507     C
C      0.11623  0.29197  0.44997     C
C      0.11623  0.82427  0.44997     C
C      0.12123  0.30547  0.19187     C
C      0.12123  0.81577  0.19187     C
C       0.1314  0.26281  0.30807     C
C       0.1314   0.8686  0.30807     C
H       0.1369   0.3802   0.5736     H
H       0.1369   0.7567   0.5736     H
N      0.14511  0.07255  0.57363     N
C      0.14553  0.57276  0.95173     C
C       0.1491   0.3612   0.4748     C
C       0.1491   0.7879   0.4748     C
H       0.1511   0.4038   0.1352     H
H       0.1511   0.7473   0.1352     H
N      0.15341   0.0767  0.87053     N
H        0.156    0.078   0.4563     H
C       0.1576   0.3747   0.2167     C
C       0.1576   0.7829   0.2167     C
H      0.16243  0.58122  0.68437     H
H       0.1709  0.08545   0.9823     H
C      0.17573  0.29197  0.44997     C
C      0.17573  0.88377  0.44997     C
H      0.17733  0.58867  0.21037     H
N      0.17993  0.58996  0.79613     N
H      0.18223  0.26287  0.53147     H
H      0.18223  0.91937  0.53147     H
C      0.18423  0.30547  0.19187     C
C      0.18423  0.87877  0.19187     C
C      0.18781   0.0939  0.71493     C
N      0.18823  0.59411  0.09303     N
H      0.19643  0.28647  0.09307     H
H      0.19643  0.90997  0.09307     H
C      0.20193  0.40386   0.3586     C
C      0.20193  0.79807   0.3586     C
C       0.2121   0.3612   0.4748     C
C       0.2121   0.8509   0.4748     C
C       0.2171   0.3747   0.2167     C
C       0.2171   0.8424   0.2167     C
C      0.23943  0.47886   0.3816     C
C      0.23943  0.76057   0.3816     C
H       0.2433   0.3802   0.5736     H
H       0.2433   0.8631   0.5736     H
N      0.24533  0.62266  0.84283     N
H      0.24788  0.49577  0.64897     H
H      0.24788  0.75212  0.64897     H
N      0.25033  0.62516  0.01983     N
H       0.2527   0.4038   0.1352     H
H       0.2527   0.8489   0.1352     H
H      0.25533  0.51067  0.12297     H
H      0.25533  0.74467  0.12297     H
N      0.25663  0.51326   0.5372     N
N      0.25663  0.74337   0.5372     N
N      0.26078  0.52156   0.2403     N
N      0.26078  0.73922   0.2403     N
C      0.26281   0.1314  0.69193     C
H      0.26287  0.08063  0.46853     H
H      0.26287  0.18223  0.46853     H
H      0.28647  0.09003  0.90693     H
H      0.28647  0.19643  0.90693     H
N      0.28933  0.57866   0.4905     N
N      0.28933  0.71067   0.4905     N
N      0.29183  0.58366   0.3135     N
N      0.29183  0.70817   0.3135     N
C      0.29197  0.11623  0.55003     C
C      0.29197  0.17573  0.55003     C
C      0.30547  0.12123  0.80813     C
C      0.30547  0.18423  0.80813     C
Fe     0.33333  0.66667  0.16667    Fe
Fe     0.33333  0.66667  0.66667    Fe
C       0.3612   0.1491   0.5252     C
C       0.3612   0.2121   0.5252     C
C       0.3747   0.1576   0.7833     C
C       0.3747   0.2171   0.7833     C
N      0.37484  0.62516  0.01983     N
N      0.37484  0.74967  0.01983     N
N      0.37734  0.62266  0.84283     N
N      0.37734  0.75467  0.84283     N
H       0.3802   0.1369   0.4264     H
H       0.3802   0.2433   0.4264     H
H       0.4038   0.1511   0.8648     H
H       0.4038   0.2527   0.8648     H
C      0.40386  0.20193   0.6414     C
N      0.40589  0.59411  0.09303     N
N      0.40589  0.81177  0.09303     N
N      0.41004  0.58996  0.79613     N
N      0.41004  0.82007  0.79613     N
H      0.41133  0.58867  0.21037     H
H      0.41133  0.82267  0.21037     H
H      0.41397  0.48443  0.19813     H
H      0.41397  0.92953  0.19813     H
N      0.41634  0.70817   0.3135     N
H      0.41878  0.58122  0.68437     H
H      0.41878  0.83757  0.68437     H
N      0.42134  0.71067   0.4905     N
H      0.42337  0.47023  0.75973     H
H      0.42337  0.95313  0.75973     H
C      0.42724  0.57276  0.95173     C
C      0.42724  0.85447  0.95173     C
C      0.44957  0.49093  0.11663     C
C      0.44957  0.95863  0.11663     C
C      0.45457  0.48243  0.85853     C
C      0.45457  0.97213  0.85853     C
C      0.46474  0.53526  0.97473     C
C      0.46474  0.92947  0.97473     C
H      0.47023  0.04687  0.24027     H
H      0.47023  0.42337  0.24027     H
N      0.47844  0.73922   0.2403     N
C      0.47886  0.23943   0.6184     C
C      0.48243  0.02787  0.14147     C
C      0.48243  0.45457  0.14147     C
H      0.48443  0.07047  0.80187     H
H      0.48443  0.41397  0.80187     H
N      0.48674  0.74337   0.5372     N
H      0.48933  0.74467  0.12297     H
C      0.49093  0.04137  0.88337     C
C      0.49093  0.44957  0.88337     C
H      0.49577  0.24788  0.35103     H
H      0.50423  0.75212  0.64897     H
C      0.50907  0.55043  0.11663     C
C      0.50907  0.95863  0.11663     C
H      0.51067  0.25533  0.87703     H
N      0.51326  0.25663   0.4628     N
H      0.51557  0.58603  0.19813     H
H      0.51557  0.92953  0.19813     H
C      0.51757  0.54543  0.85853     C
C      0.51757  0.97213  0.85853     C
C      0.52114  0.76057   0.3816     C
N      0.52156  0.26078   0.7597     N
H      0.52977  0.57663  0.75973     H
H      0.52977  0.95313  0.75973     H
C      0.53526  0.07053  0.02527     C
C      0.53526  0.46474  0.02527     C
C      0.54543  0.02787  0.14147     C
C      0.54543  0.51757  0.14147     C
C      0.55043  0.04137  0.88337     C
C      0.55043  0.50907  0.88337     C
C      0.57276  0.14553  0.04827     C
C      0.57276  0.42724  0.04827     C
H      0.57663  0.04687  0.24027     H
H      0.57663  0.52977  0.24027     H
N      0.57866  0.28933   0.5095     N
H      0.58122  0.16243  0.31563     H
H      0.58122  0.41878  0.31563     H
N      0.58366  0.29183   0.6865     N
H      0.58603  0.07047  0.80187     H
H      0.58603  0.51557  0.80187     H
H      0.58867  0.17733  0.78963     H
H      0.58867  0.41133  0.78963     H
N      0.58996  0.17993  0.20387     N
N      0.58996  0.41004  0.20387     N
N      0.59411  0.18823  0.90697     N
N      0.59411  0.40589  0.90697     N
C      0.59614  0.79807   0.3586     C
H       0.5962   0.7473   0.1352     H
H       0.5962   0.8489   0.1352     H
H       0.6198   0.7567   0.5736     H
H       0.6198   0.8631   0.5736     H
N      0.62266  0.24533  0.15717     N
N      0.62266  0.37734  0.15717     N
N      0.62516  0.25033  0.98017     N
N      0.62516  0.37484  0.98017     N
C       0.6253   0.7829   0.2167     C
C       0.6253   0.8424   0.2167     C
C       0.6388   0.7879   0.4748     C
C       0.6388   0.8509   0.4748     C
Fe     0.66667  0.33333  0.33333    Fe
Fe     0.66667  0.33333  0.83333    Fe
C      0.69453  0.81577  0.19187     C
C      0.69453  0.87877  0.19187     C
C      0.70803  0.82427  0.44997     C
C      0.70803  0.88377  0.44997     C
N      0.70817  0.29183   0.6865     N
N      0.70817  0.41634   0.6865     N
N      0.71067  0.28933   0.5095     N
N      0.71067  0.42134   0.5095     N
H      0.71353  0.80357  0.09307     H
H      0.71353  0.90997  0.09307     H
H      0.73713  0.81777  0.53147     H
H      0.73713  0.91937  0.53147     H
C      0.73719   0.8686  0.30807     C
N      0.73922  0.26078   0.7597     N
N      0.73922  0.47844   0.7597     N
N      0.74337  0.25663   0.4628     N
N      0.74337  0.48674   0.4628     N
H      0.74467  0.25533  0.87703     H
H      0.74467  0.48933  0.87703     H
H       0.7473   0.1511   0.8648     H
H       0.7473   0.5962   0.8648     H
N      0.74967  0.37484  0.98017     N
H      0.75212  0.24788  0.35103     H
H      0.75212  0.50423  0.35103     H
N      0.75467  0.37734  0.15717     N
H       0.7567   0.1369   0.4264     H
H       0.7567   0.6198   0.4264     H
C      0.76057  0.23943   0.6184     C
C      0.76057  0.52114   0.6184     C
C       0.7829   0.1576   0.7833     C
C       0.7829   0.6253   0.7833     C
C       0.7879   0.1491   0.5252     C
C       0.7879   0.6388   0.5252     C
C      0.79807  0.20193   0.6414     C
C      0.79807  0.59614   0.6414     C
H      0.80357  0.09003  0.90693     H
H      0.80357  0.71353  0.90693     H
N      0.81177  0.40589  0.90697     N
C      0.81219   0.9061  0.28507     C
C      0.81577  0.12123  0.80813     C
C      0.81577  0.69453  0.80813     C
H      0.81777  0.08063  0.46853     H
H      0.81777  0.73713  0.46853     H
N      0.82007  0.41004  0.20387     N
H      0.82267  0.41133  0.78963     H
C      0.82427  0.11623  0.55003     C
C      0.82427  0.70803  0.55003     C
H       0.8291  0.91455   0.0177     H
H      0.83757  0.41878  0.31563     H
C       0.8424   0.2171   0.7833     C
C       0.8424   0.6253   0.7833     C
H        0.844    0.922   0.5437     H
N      0.84659   0.9233  0.12947     N
H       0.8489   0.2527   0.8648     H
H       0.8489   0.5962   0.8648     H
C       0.8509   0.2121   0.5252     C
C       0.8509   0.6388   0.5252     C
C      0.85447  0.42724  0.04827     C
N      0.85489  0.92745  0.42637     N
H       0.8631   0.2433   0.4264     H
H       0.8631   0.6198   0.4264     H
C       0.8686   0.1314  0.69193     C
C       0.8686  0.73719  0.69193     C
C      0.87877  0.18423  0.80813     C
C      0.87877  0.69453  0.80813     C
C      0.88377  0.17573  0.55003     C
C      0.88377  0.70803  0.55003     C
C       0.9061   0.0939  0.71493     C
C       0.9061  0.81219  0.71493     C
H      0.90997  0.19643  0.90693     H
H      0.90997  0.71353  0.90693     H
N      0.91199    0.956  0.17617     N
H      0.91455  0.08545   0.9823     H
H      0.91455   0.8291   0.9823     H
N      0.91699   0.9585  0.35317     N
H      0.91937  0.18223  0.46853     H
H      0.91937  0.73713  0.46853     H
H        0.922    0.078   0.4563     H
H        0.922    0.844   0.4563     H
N       0.9233   0.0767  0.87053     N
N       0.9233  0.84659  0.87053     N
N      0.92745  0.07255  0.57363     N
N      0.92745  0.85489  0.57363     N
C      0.92947  0.46474  0.02527     C
H      0.92953  0.41397  0.80187     H
H      0.92953  0.51557  0.80187     H
H      0.95313  0.42337  0.24027     H
H      0.95313  0.52977  0.24027     H
N        0.956    0.044  0.82383     N
N        0.956  0.91199  0.82383     N
N       0.9585   0.0415  0.64683     N
N       0.9585  0.91699  0.64683     N
C      0.95863  0.44957  0.88337     C
C      0.95863  0.50907  0.88337     C
C      0.97213  0.45457  0.14147     C
C      0.97213  0.51757  0.14147     C
