data_I
_chemical_name_common  '/home/zhangsd/repos/MofS-CGCNN/ML/data/TSD/clean_cifs/DEXDER_clean'
_cell_length_a  9.36110
_cell_length_b  9.92100
_cell_length_c 10.01500
_cell_angle_alpha 85.03000
_cell_angle_beta  85.81000
_cell_angle_gamma 65.09000
_space_group_name_H-M_alt      'P 1'


loop_
_space_group_symop_operation_xyz
  'x, y, z' 

loop_
_atom_site_label
_atom_site_fract_x
_atom_site_fract_y
_atom_site_fract_z
_atom_site_type_symbol
K          0.0      0.5      0.5     K
Ru     0.05276  0.54466  0.91174    Ru
O       0.0792   0.4985   0.2173     O
O       0.1234   0.2518   0.0633     O
O       0.1312   0.6714   0.7459     O
C       0.1735   0.5564   0.1663     C
O       0.1847   0.5849   0.0388     O
O       0.2296   0.3404   0.8882     O
O       0.2319   0.6062    0.542     O
C       0.2355   0.2326   0.9723     C
C         0.25   0.6183   0.6667     C
O       0.2565   0.5894   0.2411     O
O       0.3475   0.1041   0.9688     O
O       0.3536   0.8046   0.0875     O
H       0.3867   0.7928   0.0062     H
H       0.3894   0.7209   0.1318     H
O       0.3907   0.5758   0.7113     O
O       0.4145    0.317   0.4656     O
Ru     0.41975  0.51738  0.41548    Ru
O       0.4256   0.7167   0.3655     O
Cd     0.43973  0.96054  0.17638    Cd
O       0.4557   0.1338   0.6238     O
C       0.4817   0.2444   0.5753     C
K          0.5      0.5      0.0     K
C       0.5183   0.7556   0.4247     C
O       0.5443   0.8662   0.3762     O
Cd     0.56027  0.03946  0.82362    Cd
O       0.5744   0.2833   0.6345     O
Ru     0.58025  0.48262  0.58452    Ru
O       0.5855    0.683   0.5344     O
O       0.6093   0.4242   0.2887     O
H       0.6106   0.2791   0.8682     H
H       0.6133   0.2072   0.9938     H
O       0.6464   0.1954   0.9125     O
O       0.6525   0.8959   0.0312     O
O       0.7435   0.4106   0.7589     O
C         0.75   0.3817   0.3333     C
C       0.7645   0.7674   0.0277     C
O       0.7681   0.3938    0.458     O
O       0.7704   0.6596   0.1118     O
O       0.8153   0.4151   0.9612     O
C       0.8265   0.4436   0.8337     C
O       0.8688   0.3286   0.2541     O
O       0.8766   0.7482   0.9367     O
O       0.9208   0.5015   0.7827     O
Ru     0.94724  0.45534  0.08826    Ru
