data_I
_chemical_name_common  '/home/zhangsd/repos/MofS-CGCNN/ML/data/TSD/clean_cifs/DEYJIC_clean'
_cell_length_a  7.70860
_cell_length_b 11.40070
_cell_length_c 13.49900
_cell_angle_alpha 96.39500
_cell_angle_beta  105.61900
_cell_angle_gamma 99.33900
_space_group_name_H-M_alt      'P 1'


loop_
_space_group_symop_operation_xyz
  'x, y, z' 

loop_
_atom_site_label
_atom_site_fract_x
_atom_site_fract_y
_atom_site_fract_z
_atom_site_type_symbol
Ni         0.0      0.0      0.0    Ni
O      0.00041   0.3683  0.91582     O
C       0.0054  0.53273  0.54529     C
C        0.017  0.95947  0.46642     C
C       0.0172  0.97319  0.35957     C
N       0.0206  0.99313  0.15505     N
H       0.0427   0.8883   0.4889     H
C       0.0457  0.92856  0.79082     C
C       0.0494  0.93448  0.68963     C
O      0.05915  0.18331    0.033     O
H       0.0614   0.4061   0.4574     H
H       0.0841   0.6726   0.7253     H
C       0.0856  0.89185  0.30295     C
C       0.0872  0.90583  0.20227     C
H       0.0914   0.8672   0.8229     H
H       0.0956   0.8778   0.6547     H
C       0.1136  0.51703  0.64924     C
H       0.1298   0.8286   0.3324     H
H       0.1367   0.8523   0.1662     H
C       0.1393  0.60633  0.73429     C
V      0.14293  0.32289  0.02534     V
O      0.15249  0.41966  0.14222     O
H       0.1795   0.3547   0.6159     H
C       0.1947  0.41758  0.66963     C
V      0.20598   0.5796  0.14078     V
C       0.2472  0.59645  0.83234     C
H       0.2645    0.658   0.8875     H
C       0.2977  0.41307  0.77008     C
N      0.32764  0.50207  0.85094     N
O      0.34701  0.59564  0.06755     O
H       0.3485   0.3455   0.7822     H
O      0.35308  0.33542   0.0109     O
Ni         0.5      0.5      1.0    Ni
O      0.64692  0.66458   0.9891     O
H       0.6515   0.6545   0.2178     H
O      0.65299  0.40436  0.93245     O
N      0.67236  0.49793  0.14906     N
C       0.7023  0.58693  0.22992     C
H       0.7355    0.342   0.1125     H
C       0.7528  0.40355  0.16766     C
V      0.79402   0.4204  0.85922     V
C       0.8053  0.58242  0.33037     C
H       0.8205   0.6453   0.3841     H
O      0.84751  0.58034  0.85778     O
V      0.85707  0.67711  0.97466     V
C       0.8607  0.39367  0.26571     C
H       0.8633   0.1477   0.8338     H
H       0.8702   0.1714   0.6676     H
C       0.8864  0.48297  0.35076     C
H       0.9044   0.1222   0.3453     H
H       0.9086   0.1328   0.1771     H
C       0.9128  0.09417  0.79773     C
C       0.9144  0.10815  0.69705     C
H       0.9159   0.3274   0.2747     H
H       0.9386   0.5939   0.5426     H
O      0.94085  0.81669    0.967     O
C       0.9506  0.06552  0.31037     C
C       0.9543  0.07144  0.20918     C
H       0.9573   0.1117   0.5111     H
N       0.9794  0.00687  0.84495     N
C       0.9828  0.02681  0.64043     C
C        0.983  0.04053  0.53358     C
C       0.9946  0.46727  0.45471     C
O      0.99959   0.6317  0.08418     O
