data_I
_chemical_name_common  '/home/zhangsd/repos/MofS-CGCNN/ML/data/TSD/clean_cifs/DIBJEF_clean'
_cell_length_a  9.14960
_cell_length_b 23.42600
_cell_length_c 26.84800
_cell_angle_alpha 76.75360
_cell_angle_beta  80.18910
_cell_angle_gamma 78.73850
_space_group_name_H-M_alt      'P 1'


loop_
_space_group_symop_operation_xyz
  'x, y, z' 

loop_
_atom_site_label
_atom_site_fract_x
_atom_site_fract_y
_atom_site_fract_z
_atom_site_type_symbol
C      0.00013  0.10408  0.96046     C
C      0.00152  0.88054  0.95122     C
C      0.00204  0.31308  0.50504     C
H       0.0033   0.6173   0.7147     H
S       0.0067  0.99105  0.61799     S
O      0.00718  0.10409  0.48795     O
C      0.00748  0.98115  0.23949     C
C      0.00785  0.26472  0.54678     C
H       0.0137   0.1357   0.1623     H
C       0.0151  0.42076  0.61744     C
C      0.01589  0.61639  0.41023     C
C      0.01981  0.12385  0.13033     C
O       0.0204  0.51151  0.06429     O
H       0.0245   0.5777   0.3477     H
O      0.02461  0.64613  0.07505     O
H       0.0285   0.5916   0.6342     H
C      0.02861  0.02306  0.70752     C
C      0.03389  0.84322   0.9128     C
C      0.03588  0.01112  0.31532     C
H       0.0366   0.0416   0.7772     H
H       0.0367   0.8194   0.4262     H
O      0.04079  0.43104  0.16618     O
C      0.04251  0.88361  0.08977     C
C      0.04306  0.78674  0.45454     C
H       0.0474   0.2672   0.5766     H
H       0.0501   0.0777   0.8477     H
C       0.0533  0.07924  0.88256     C
C      0.05523  0.57936  0.70978     C
C      0.05677  0.86509  0.99937     C
O      0.05831  0.35071  0.83507     O
C      0.06467  0.39592  0.53954     C
C      0.07125   0.5641   0.6618     C
O      0.07217  0.04493  0.59453     O
C      0.07235  0.68988  0.53522     C
C      0.07877  0.36509  0.49937     C
H       0.0801   0.6454    0.398     H
N      0.08079  0.06566  0.06816     N
H       0.0835   0.8031   0.9173     H
C      0.08851  0.06674  0.11824     C
H       0.0906   0.6556   0.5618     H
H       0.0955   0.0487   0.6877     H
S      0.10335    0.349  0.88408     S
C      0.10373  0.79018  0.49776     C
C      0.10678  0.01799  0.21045     C
H       0.1088   0.7672   0.0766     H
O       0.1103  0.39404  0.99796     O
O      0.11081  0.93653  0.61245     O
S      0.11411  0.56289  0.80841     S
C      0.11515  0.53909  0.75021     C
C      0.11648  0.45704   0.5854     C
C      0.12071  0.74193  0.53725     C
N      0.12185  0.05853  0.96177     N
H       0.1235   0.8546    0.102     H
C      0.13103  0.04874   0.2876     C
H       0.1326   0.2342   0.8576     H
O      0.13417  0.00869  0.40037     O
Eu      0.1358   0.4195  0.07562    Eu
O      0.13722  0.57484  0.93072     O
S      0.14121  0.85957  0.50305     S
N      0.14215  0.44147  0.53823     N
H       0.1446   0.5416   0.2772     H
Eu     0.14691  0.57855  0.01851    Eu
C      0.14929  0.50871  0.65371     C
C      0.14941  0.01747  0.15411     C
C      0.15892  0.04296   0.9146     C
H       0.1655   0.7439   0.5661     H
C      0.16672  0.38054  0.45122     C
H       0.1681   0.5487   0.1877     H
C      0.16833  0.05129  0.23405     C
H       0.1684   0.0421   0.9889     H
O       0.1689  0.61886  0.79474     O
H       0.1714   0.0729   0.3041     H
C      0.17984  0.81308  0.00504     C
C      0.18065  0.76472  0.04678     C
C      0.18384  0.48236  0.74356     C
C        0.184  0.49951  0.59929     C
H       0.1961   0.3031   0.4173     H
C      0.19896  0.46848   0.6952     C
H       0.1994   0.4579   0.5111     H
C      0.20006  0.22968    0.882     C
O      0.20306  0.39185  0.88263     O
C      0.21009  0.34322   0.4128     C
C      0.21214  0.27817  0.90335     C
O      0.21325  0.51595  0.83815     O
N      0.21461  0.43434  0.43184     N
H         0.22   0.4536   0.7718     H
H       0.2244   0.2658   0.6424     H
O      0.22492  0.84868  0.54708     O
O      0.22576  0.88392  0.45436     O
Eu     0.22638  0.46758  0.92716    Eu
C      0.22812  0.51885  0.26051     C
O      0.23116  0.98297  0.50651     O
H       0.2367   0.0764   0.2144     H
C      0.24081  0.52306  0.20752     C
O      0.24409  0.14929  0.66493     O
C      0.24417  0.96783  0.14223     C
H       0.2454   0.4297   0.6909     H
O      0.25421  0.14613  0.57505     O
H       0.2543   0.9084   0.8658     H
Eu     0.25603  0.07855  0.51851    Eu
C      0.27349  0.43326  0.38176     C
C      0.27399  0.37615  0.36967     C
C      0.27872  0.53535  0.56621     C
O      0.27936  0.48297  0.00651     O
H       0.2815   0.1415   0.8843     H
H       0.2823   0.6806   0.0738     H
C       0.2828  0.00049  0.90071     C
C      0.28434  0.71326  0.04546     C
H       0.2849   0.9839   0.0649     H
H       0.2857   0.9111   0.2141     H
O      0.28837  0.54493  0.09453     O
C      0.28974  0.17492   0.8976     C
C      0.29715   0.9359   0.8382     C
C      0.29745  0.81012  0.96478     C
N      0.30646  0.54367  0.51301     N
C      0.30653  0.27084   0.9385     C
N       0.3066  0.95947  0.09373     N
C      0.30688  0.91766  0.17758     C
H       0.3073   0.3585   0.6157     H
H        0.308   0.8444   0.9382     H
H       0.3117   0.3643   0.3377     H
C      0.31171  0.99129  0.84629     C
C      0.31174  0.27032    0.618     C
H       0.3118   0.3032   0.9536     H
C      0.32099  0.48253  0.34589     C
H       0.3298   0.1319   0.0405     H
H       0.3337   0.5161   0.4351     H
C      0.33522  0.48201  0.28955     C
H       0.3353   0.8827   0.7853     H
S      0.33643    0.151  0.61592     S
O      0.34021  0.43653  0.11245     O
C      0.34437  0.92064  0.79022     C
H       0.3471   0.7122   0.4774     H
C      0.35423  0.53217  0.35777     C
O      0.35722  0.07484  0.43072     O
N       0.3598  0.54053  0.40627     N
C      0.35981  0.57348   0.5839     C
H       0.3608    0.576   0.6186     H
O      0.36199  0.93104  0.66618     O
C      0.36226  0.32508   0.6024     C
C      0.36232  0.48888  0.18468     C
C      0.36264  0.03152   0.8048     C
N      0.36314  0.95633  0.98699     N
H        0.366   0.0703   0.8091     H
Eu     0.36908   0.9195  0.57562    Eu
Eu     0.37888  0.96758  0.42716    Eu
O      0.37932  0.34868  0.04708     O
C      0.38028  0.96465  0.93379     C
S      0.38426  0.49105  0.11799     S
C      0.39167  0.70982  0.00224     C
C      0.39365   0.1685   0.9334     C
C      0.39366  0.22183  0.59665     C
C      0.39512  0.58789  0.49687     C
C      0.39675   0.2161   0.9528     C
C      0.39989  0.75807  0.96275     C
O      0.40078  0.60409  0.98795     O
C      0.40212  0.58234  0.32242     C
C      0.40332  0.88051  0.14945     C
O       0.4038  0.01151  0.56429     O
C      0.40445  0.96091  0.74979     C
C      0.40787  0.90736   0.0965     C
C      0.40976  0.01764  0.75644     C
H       0.4109   0.5889   0.2859     H
C      0.41173  0.59264   0.4035     C
O       0.4175  0.11886  0.29474     O
C       0.4212  0.10438  0.04122     C
H       0.4314   0.8032   0.4536     H
O      0.43265  0.01595  0.33815     O
C       0.4332  0.60438  0.54122     C
C      0.43328  0.61949  0.35055     C
C      0.43435   0.7161   0.4528     C
O      0.43596  0.38392  0.95436     O
C      0.43902  0.61249  0.44587     C
H       0.4446    0.076   0.1186     H
H       0.4454   0.0464   0.7282     H
H       0.4516   0.5729   0.8041     H
C      0.45367  0.44871  0.26595     C
O      0.45677  0.50869  0.90037     O
H       0.4581   0.8429   0.1633     H
H       0.4633   0.2122   0.9774     H
H       0.4643   0.6571   0.3367     H
C      0.46737  0.45126   0.2124     C
H       0.4725   0.5764   0.7144     H
H       0.4755   0.7561   0.9339     H
O      0.47754  0.10815  0.61737     O
C      0.47988  0.91211  0.00313     C
C      0.48281  0.07348   0.0839     C
C      0.48413  0.77084   0.4385     C
S      0.48541  0.93711  0.69159     S
C      0.49555   0.3315   0.5666     C
S      0.49617  0.35957  0.00305     S
C      0.49738  0.88751  0.05413     C
O       0.4977  0.89404  0.49796     O
H       0.4978   0.6319   0.5405     H
H       0.5022   0.3681   0.4595     H
O       0.5023  0.10596  0.50204     O
C      0.50262  0.11249  0.94587     C
S      0.50383  0.64043  0.99695     S
C      0.50445   0.6685   0.4334     C
S      0.51459  0.06289  0.30841     S
C      0.51587  0.22916   0.5615     C
C      0.51719  0.92652   0.9161     C
C      0.52012  0.08789  0.99687     C
O      0.52246  0.89185  0.38263     O
H       0.5245   0.2439   0.0661     H
H       0.5275   0.4236   0.2856     H
C      0.53263  0.54874   0.7876     C
H       0.5357   0.3429   0.6633     H
H       0.5367   0.7878   0.0226     H
H       0.5419   0.1571   0.8367     H
O      0.54323  0.49131  0.09963     O
C      0.54633  0.55129  0.73405     C
H       0.5484   0.4271   0.1959     H
H       0.5546   0.9536   0.2718     H
H       0.5554    0.924   0.8814     H
C      0.56098  0.38751  0.55413     C
O      0.56404  0.61608  0.04564     O
C      0.56565   0.2839   0.5472     C
C      0.56672  0.38051  0.64945     C
C       0.5668  0.39562  0.45878     C
O      0.56735  0.98405  0.66185     O
H       0.5686   0.1968   0.5464     H
C       0.5788  0.89562  0.95878     C
O       0.5825  0.88114  0.70526     O
C      0.58827  0.40736   0.5965     C
H       0.5891   0.4111   0.7141     H
C      0.59024  0.98236  0.24356     C
C      0.59213  0.09264   0.9035     C
C      0.59555  0.03909  0.25021     C
O       0.5962  0.98849  0.43571     O
C      0.59668  0.11949  0.85055     C
C      0.59788  0.41766  0.67758     C
O      0.59922  0.39591  0.01205     O
C      0.60011  0.24193  0.03725     C
C      0.60325   0.7839   0.0472     C
C      0.60488  0.41211  0.50313     C
C      0.60634  0.77817  0.40335     C
C      0.60635   0.8315   0.0666     C
C      0.60833  0.29018  0.99776     C
S      0.61574  0.50895  0.88201     S
C      0.61972  0.03535  0.06621     C
O      0.62068  0.65132  0.95292     O
Eu     0.62112  0.03242  0.57284    Eu
Eu     0.63092   0.0805  0.42438    Eu
H        0.634   0.9297   0.1909     H
N      0.63686  0.04367  0.01301     N
C      0.63736  0.96848   0.1952     C
C      0.63768  0.51112  0.81532     C
C      0.63774  0.67492   0.3976     C
O      0.63801  0.06896  0.33382     O
H       0.6392    0.424   0.3814     H
C      0.64019  0.42652   0.4161     C
N       0.6402  0.45947  0.59373     N
O      0.64278  0.92516  0.56928     O
C      0.64577  0.46783  0.64223     C
H       0.6529   0.2878   0.5226     H
C      0.65563  0.07936  0.20978     C
O      0.65979  0.56347  0.88755     O
S      0.66357    0.849  0.38408     S
H       0.6647   0.1173   0.2147     H
C      0.66478  0.51799  0.71045     C
H       0.6663   0.4839   0.5649     H
H       0.6702   0.8681   0.9595     H
C      0.67901  0.51747  0.65411     C
H       0.6882   0.6968   0.0464     H
C      0.68826  0.72968    0.382     C
C      0.68829  0.00871  0.15371     C
H       0.6883   0.6357   0.6623     H
H        0.692   0.1556   0.0618     H
H       0.6927   0.6415   0.3843     H
C      0.69312  0.08234  0.82242     C
N       0.6934  0.04053  0.90627     N
C      0.69347  0.72916   0.0615     C
N      0.69354  0.45633  0.48699     N
C      0.70255  0.18988  0.03522     C
C      0.70285   0.0641   0.1618     C
C      0.71026  0.82508   0.1024     C
O      0.71163  0.45507  0.90547     O
H       0.7143   0.0889   0.7859     H
H       0.7151   0.0161   0.9351     H
C      0.71566  0.28674  0.95454     C
C       0.7172  0.99951  0.09929     C
H       0.7177   0.3194   0.9262     H
H       0.7185   0.8585   0.1157     H
O      0.72064  0.51703  0.99349     O
C      0.72128  0.46465  0.43379     C
C      0.72601  0.62385  0.63033     C
C      0.72651  0.56674  0.61824     C
Eu     0.74397  0.92145  0.48149    Eu
H       0.7457   0.0916   0.1342     H
O      0.74579  0.85387  0.42495     O
H       0.7546   0.5703   0.3091     H
C      0.75583  0.03217  0.85777     C
O      0.75591  0.85071  0.33507     O
C      0.75919  0.47694  0.79248     C
H       0.7633   0.9236   0.7856     H
O      0.76884  0.01703  0.49349     O
C      0.77188  0.48115  0.73949     C
Eu     0.77362  0.53242  0.07284    Eu
O      0.77424  0.11608  0.54564     O
O      0.77508  0.15132  0.45292     O
H       0.7756   0.7342   0.3576     H
H         0.78   0.5464   0.2282     H
N      0.78539  0.56566  0.56816     N
O      0.78675  0.48405  0.16185     O
C      0.78786  0.72183  0.09665     C
C      0.78991  0.65678   0.5872     C
O      0.79694  0.60815  0.11737     O
C      0.79994  0.77032    0.118     C
H       0.8006   0.5421   0.4889     H
C      0.80104  0.53152   0.3048     C
H       0.8039   0.6969   0.5827     H
C        0.816  0.50049  0.40071     C
C      0.81616  0.51764  0.25644     C
C      0.81935  0.23528  0.95322     C
C      0.82016  0.18692  0.99496     C
H       0.8286   0.9271   0.6959     H
O       0.8311  0.38114  0.20526     O
H       0.8316   0.9579   0.0111     H
C      0.83167  0.94871  0.76595     C
H       0.8319   0.4513   0.8123     H
C      0.83328  0.61946  0.54878     C
H       0.8345   0.2561   0.4339     H
C      0.84108  0.95704   0.0854     C
C      0.85059  0.98253  0.84589     C
C      0.85071  0.49129  0.34629     C
Eu     0.85309  0.42145  0.98149    Eu
H       0.8554   0.4584   0.7228     H
N      0.85785  0.55853  0.46177     N
S      0.85879  0.14043  0.49695     S
O      0.86278  0.42516  0.06928     O
Eu      0.8642   0.5805  0.92438    Eu
O      0.86583  0.99131  0.59963     O
H       0.8674   0.7658   0.1424     H
C      0.86897  0.95126   0.7124     C
H       0.8765   0.1454    0.898     H
N      0.87815  0.94147  0.03823     N
C      0.87929  0.25807  0.46275     C
C      0.88352  0.54296   0.4146     C
C      0.88485  0.46091  0.24979     C
S      0.88589  0.43711  0.19159     S
O      0.88919  0.06347  0.38755     O
O       0.8897  0.60596  0.00204     O
H       0.8912   0.2328   0.9234     H
C      0.89322  0.98201  0.78955     C
C      0.89627  0.20982  0.50224     C
S      0.89665    0.651  0.11592     S
H       0.9045   0.9513   0.3123     H
H       0.9094   0.3444   0.4382     H
C      0.91149  0.93326  0.88176     C
H       0.9165   0.1969   0.0827     H
N      0.91921  0.93434  0.93184     N
H       0.9199   0.3546    0.602     H
C      0.92123  0.63491  0.50063     C
C      0.92765  0.31012  0.46478     C
O      0.92783  0.95507  0.40547     O
C      0.92875   0.4359   0.3382     C
C      0.93533  0.60408  0.46046     C
O      0.94169  0.64929  0.16493     O
C      0.94323  0.13491  0.00063     C
C      0.94477  0.42064  0.29022     C
C       0.9467  0.92076  0.11744     C
H       0.9499   0.9223   0.1523     H
H       0.9526   0.7328   0.4234     H
C      0.95694  0.21326  0.54546     C
C      0.95749  0.11639  0.91023     C
O      0.95921  0.56896  0.83382     O
H       0.9633   0.1806   0.5738     H
H       0.9634   0.9584   0.2228     H
C      0.96412  0.98888  0.68468     C
C      0.96611  0.15678   0.0872     C
C      0.97139  0.97694  0.29248     C
H       0.9715   0.4084   0.3658     H
O      0.97539  0.35387  0.92495     O
H       0.9755   0.4223   0.6523     H
O       0.9796  0.48849  0.93571     O
C      0.98019  0.87615  0.86967     C
C      0.98411  0.38361  0.58977     C
C       0.9849  0.57924  0.38256     C
H       0.9863   0.8643   0.8377     H
C      0.99215  0.73528  0.45322     C
C      0.99252  0.01885  0.76051     C
O      0.99282  0.89591  0.51205     O
S       0.9933  0.00895  0.38201     S
H       0.9967   0.3827   0.2853     H
C      0.99796  0.68692  0.49496     C
C      0.99848  0.11946  0.04878     C
C      0.99987  0.89592  0.03954     C
