data_I
_chemical_name_common  '/home/zhangsd/repos/MofS-CGCNN/ML/data/TSD/clean_cifs/DIBJIJ_clean'
_cell_length_a 10.99440
_cell_length_b 24.20690
_cell_length_c 26.64990
_cell_angle_alpha 67.57800
_cell_angle_beta  78.09590
_cell_angle_gamma 76.87410
_space_group_name_H-M_alt      'P 1'


loop_
_space_group_symop_operation_xyz
  'x, y, z' 

loop_
_atom_site_label
_atom_site_fract_x
_atom_site_fract_y
_atom_site_fract_z
_atom_site_type_symbol
O          0.0      0.0      0.5     O
S      0.00018  0.07221  0.29561     S
C      0.00471  0.18186  0.98132     C
C      0.00486  0.56805  0.38643     C
H       0.0054   0.8716     0.62     H
C      0.00622  0.62788  0.53548     C
O      0.00636  0.95977  0.42091     O
H       0.0066   0.0442   0.6082     H
H       0.0079   0.4369   0.6457     H
O      0.01116  0.86231  0.73217     O
C      0.01167  0.22827  0.93059     C
H       0.0133   0.5394   0.8114     H
H       0.0181    0.775    0.099     H
C      0.01813  0.40203  0.54071     C
O      0.01851   0.9051  0.59148     O
Eu     0.01952  0.88695  0.50972    Eu
C      0.02197  0.32968  0.43518     C
C      0.02325  0.95114  0.84296     C
C      0.02475  0.04202  0.24288     C
H       0.0328   0.5242   0.7288     H
O      0.03418  0.38447  0.98137     O
C      0.03913  0.90203  0.04071     C
O      0.03955  0.80653  0.39317     O
C      0.04066  0.06805  0.88643     C
O      0.04412  0.63006   0.8593     O
C      0.04848  0.64678  0.60626     C
H       0.0495    0.664   0.6328     H
C      0.05166  0.93237  0.79811     C
C      0.05773  0.36713  0.50701     C
C      0.05913  0.10275  0.91359     C
C      0.05987  0.18467  0.02279     C
C      0.06129  0.27902   0.9226     C
H       0.0619   0.1517   0.0567     H
H       0.0636   0.3109   0.8881     H
C      0.06779  0.95961  0.08461     C
C      0.06813  0.86713  0.00701     C
C      0.07547  0.39725  0.58641     C
H       0.0756    0.934   0.8712     H
H       0.0791   0.2925   0.4437     H
C      0.08037  0.00533  0.15313     C
C      0.08283  0.55064   0.7841     C
H       0.0905   0.0631   0.8543     H
N      0.09187  0.55781  0.46005     N
C       0.0941   0.5423   0.7347     C
N      0.09793  0.58092  0.55822     N
H       0.1079    0.275    0.599     H
C      0.10796  0.28279  0.96589     C
N      0.10973  0.94219  0.03995     N
C       0.1118  0.23498  0.01522     C
C      0.11201  0.54039  0.41539     C
O      0.11227  0.04633  0.32313     O
O      0.11563  0.94488  0.66886     O
H       0.1192    0.434   0.3712     H
C      0.12248   0.5903  0.60274     C
H       0.1226   0.9024   0.7956     H
C      0.12363  0.99594    0.241     C
H       0.1251   0.1258    0.904     H
C      0.12716  0.99533  0.09975     C
H       0.1412   0.5456   0.4828     H
O      0.14502  0.83123  0.45113     O
S      0.14927  0.35155  0.95983     S
H       0.1496   0.2364   0.0436     H
H       0.1498   0.6974    0.412     H
C      0.15088  0.97713  0.19651     C
O      0.15174  0.52747  0.90045     O
H       0.1549   0.3742    0.596     H
S      0.15671  0.81835  0.40069     S
S      0.15782  0.58603  0.85645     S
Eu     0.16172  0.01607  0.41763    Eu
C      0.16789  0.31814  0.51868     C
C      0.16958  0.87212  0.96452     C
H       0.1696   0.9544   0.0172     H
C      0.17053  0.27173  0.56941     C
C      0.17245  0.57523  0.79327     C
H       0.1731   0.9771   0.2703     H
Eu     0.17408  0.96881  0.56286    Eu
H       0.1794   0.4024   0.2956     H
C      0.18265  0.45114  0.34296     C
O      0.18404   0.3834  0.90172     O
H       0.1847   0.7925   0.9437     H
O      0.19045  0.05767  0.48163     O
C       0.1924   0.5598   0.6938     C
H       0.2007   0.5689   0.9711     H
C      0.20182  0.55008  0.64088     C
O      0.20821  0.86546  0.35352     O
O      0.21236    0.927  0.49228     O
C      0.21317  0.82968  0.93518     C
C      0.21786  0.43237  0.29811     C
H        0.218   0.9449   0.1955     H
C      0.22224  0.50467  0.40025     C
C      0.22737  0.02518  0.06808     C
C      0.23398  0.69824    0.415     C
N      0.23707  0.91908  0.94178     N
C      0.23883  0.49467  0.34687     C
O      0.23925  0.69347  0.10683     O
O      0.24974  0.33617  0.99255     O
H       0.2592   0.8026    0.088     H
H       0.2593   0.0689   0.4711     H
H       0.2626   0.1891   0.6119     H
C      0.26291  0.22098   0.5774     C
H        0.263   0.0702   0.1186     H
O      0.26413  0.10735  0.35619     O
C      0.26733  0.31533  0.47721     C
C        0.268  0.75092  0.40988     C
H       0.2682   0.5027   0.5613     H
O      0.27025  0.55767  0.98163     O
H       0.2703   0.3483   0.4433     H
H       0.2703    0.899   0.4894     H
O      0.27063  0.44488  0.16886     O
C      0.27084  0.59387  0.75345     C
O      0.27233  0.60735  0.85619     O
N      0.27783   0.0282  0.01574     N
C      0.28068   0.5861  0.70334     C
C      0.28071  0.06482  0.08416     C
C      0.28566  0.49975  0.63473     C
H       0.2858   0.9758   0.7712     H
Eu     0.29425  0.46881  0.06286    Eu
H       0.2966   0.1119   0.2599     H
H       0.3009   0.6086   0.4276     H
C      0.30152  0.85322  0.89374     C
C      0.30965  0.45798  0.25712     C
N      0.31045  0.48502  0.58828     N
H       0.3114   0.2023   0.9239     H
C      0.31552   0.9097  0.89726     C
C      0.32063  0.47482  0.43192     C
N      0.32177   0.4718  0.48426     N
C      0.32386  0.64548   0.4246     C
C      0.32452  0.52287  0.30349     C
H       0.3316   0.6119   0.7599     H
H       0.3322   0.9973   0.9387     H
H       0.3371   0.8914   0.0724     H
H        0.341   0.5442   0.1082     H
H       0.3413    0.399   0.9894     H
H       0.3463    0.836   0.8672     H
C      0.34722  0.80176    0.085     C
H       0.3484    0.599   0.6756     H
C      0.35664  0.21721  0.53411     C
C      0.35695  0.06986  0.99764     C
H       0.3584   0.5551   0.3045     H
C      0.36013  0.09218  0.04056     C
C      0.36057  0.50406    0.259     C
C        0.362  0.26502  0.48478     C
C      0.36318  0.45616  0.67288     C
H       0.3641   0.9606   0.6886     H
H        0.365   0.4548   0.7088     H
S        0.368  0.42779  0.20439     S
O      0.36836    0.427  0.99228     O
C       0.3711   0.9577   0.7653     C
S      0.37575  0.68165  0.09931     S
H        0.377    0.099   0.1756     H
C      0.38184  0.09387  0.25345     C
N      0.38375  0.01498  0.91172     N
O      0.38704  0.54023  0.07909     O
H       0.3884   0.2907   0.9067     H
C      0.39011  0.75328   0.4121     C
C      0.39278  0.94992  0.85912     C
C      0.39394  0.85452   0.0754     C
O      0.39436  0.36231  0.23217     O
C      0.39927  0.20066   0.9222     C
S       0.3997  0.08603  0.35645     S
O      0.40002  0.11553  0.51863     O
C      0.40238  0.43484   0.5954     C
Eu     0.40458  0.51606  0.91764    Eu
H       0.4092   0.1209   0.0383     H
H       0.4142   0.7907   0.4067     H
Eu     0.41619  0.61305  0.99028    Eu
C      0.41757  0.94936   0.7159     C
C      0.42014  0.00025  0.86527     C
O      0.42034  0.02747  0.40045     O
H       0.4205   0.5229   0.2297     H
O      0.42154  0.83617  0.49255     O
C      0.42243  0.09067  0.94487     C
C      0.42445  0.43014  0.50236     C
O      0.42719  0.63454  0.14648     O
O      0.42738  0.66877  0.04887     O
C       0.4288  0.74908  0.09012     C
H       0.4296   0.2636   0.4564     H
C      0.42969  0.43518  0.41584     C
C      0.42988   0.0861  0.20334     C
H       0.4316   0.6209   0.5383     H
C      0.43262  0.06516   0.9046     C
C      0.43481  0.41635  0.64903     C
H       0.4376   0.2977   0.5761     H
C      0.44451  0.25328   0.9121     C
C      0.44544  0.64636  0.42976     C
C        0.446   0.9402   0.8062     C
H       0.4518   0.4298   0.3814     H
H       0.4568   0.8825   0.1653     H
C      0.45797  0.40933  0.55513     C
C      0.45905  0.07523  0.29327     C
S      0.46065  0.14845  0.54017     S
O      0.46652  0.13006   0.3593     O
O      0.46916   0.1166  0.59828     O
H       0.4714   0.9548   0.2088     H
C      0.47787  0.70066   0.4222     C
C      0.47844  0.14636  0.92976     C
O      0.48173  0.45367  0.17687     O
O      0.48491   0.4051  0.09148     O
C      0.49222  0.04384  0.82712     C
C      0.49287  0.40782  0.45944     C
H       0.4954   0.3825   0.6653     H
H        0.497   0.6284     0.88     H
C      0.49981  0.91635  0.14903     C
O          0.5      0.5      1.0     O
C      0.50019  0.08365  0.85097     C
H        0.503   0.3716     0.12     H
H       0.5046   0.6175   0.3347     H
C      0.50713  0.59218  0.54056     C
C      0.50778  0.95616  0.17288     C
O      0.51509   0.5949  0.90852     O
O      0.51827  0.54633  0.82313     O
C      0.52156  0.85364  0.07024     C
C      0.52213  0.29934   0.5778     C
H       0.5286   0.0452   0.7912     H
O      0.53084   0.8834  0.40172     O
O      0.53348  0.86994   0.6407     O
S      0.53935  0.85155  0.45983     S
C      0.54095  0.92477  0.70673     C
C      0.54203  0.59067  0.44487     C
H       0.5432   0.1175   0.8347     H
H       0.5482   0.5702   0.6186     H
C        0.554   0.0598   0.1938     C
C      0.55456  0.35364  0.57024     C
C      0.55549  0.74672   0.0879     C
H       0.5624   0.7023   0.4239     H
C      0.56519  0.58365  0.35097     C
C      0.56738  0.93484   0.0954     C
H       0.5684   0.3791   0.4617     H
C      0.57012   0.9139  0.79666     C
C      0.57031  0.56482  0.58416     C
H       0.5704   0.7364   0.5436     H
C       0.5712  0.25092  0.90988     C
O      0.57262  0.33123  0.95113     O
O      0.57281  0.36546  0.85352     O
C      0.57555  0.56986  0.49764     C
C      0.57757  0.90933  0.05513     C
O      0.57846  0.16383  0.50745     O
H       0.5795   0.4771   0.7703     H
O      0.57966  0.97253  0.59955     O
C      0.57986  0.99975  0.13473     C
C      0.58243  0.05064   0.2841     C
Eu     0.58381  0.38695  0.00972    Eu
H       0.5858   0.2093   0.5933     H
H       0.5908   0.8791   0.9617     H
Eu     0.59542  0.48393  0.08237    Eu
C      0.59762  0.56516   0.4046     C
O      0.59998  0.88447  0.48137     O
S       0.6003  0.91397  0.64355     S
C      0.60073  0.79934   0.0778     C
O      0.60564  0.63769  0.76783     O
C      0.60606  0.14548   0.9246     C
C      0.60722  0.05008  0.14088     C
C      0.60989  0.24672   0.5879     C
H       0.6116   0.7093   0.0933     H
O      0.61296  0.45977  0.92091     O
N      0.61625  0.98502  0.08828     N
C      0.61816  0.90613  0.74655     C
H        0.623    0.901   0.8244     H
S      0.62425  0.31835  0.90069     S
C       0.6289   0.0423   0.2347     C
O      0.63164    0.573  0.00772     O
S        0.632  0.57221  0.79561     S
H        0.635   0.5452   0.2912     H
H       0.6359   0.0394   0.3114     H
C      0.63682  0.54384  0.32712     C
C        0.638  0.73498  0.51522     C
C      0.63943  0.49594    0.741     C
C      0.63987  0.90782  0.95944     C
H       0.6416   0.4449   0.6955     H
C      0.64305  0.93014  0.00236     C
C      0.64336  0.78279  0.46589     C
H       0.6516    0.401   0.3244     H
C      0.65278  0.19824    0.915     C
H       0.6537    0.164   0.1328     H
H       0.6587    0.601   0.0106     H
H        0.659   0.4558   0.8918     H
H       0.6629   0.1086   0.9276     H
H       0.6678   0.0027   0.0613     H
H       0.6684   0.3881   0.2401     H
C      0.67548  0.47713  0.69651     C
C      0.67614  0.35452   0.5754     C
N      0.67823   0.5282  0.51574     N
C      0.67937  0.52518  0.56808     C
C      0.68448   0.0903  0.10274     C
H       0.6886   0.7977   0.0761     H
N      0.68955  0.51498  0.41172     N
C      0.69035  0.54202  0.74288     C
C      0.69848  0.14678  0.10626     C
H       0.6991   0.3914   0.5724     H
H       0.7034   0.8881   0.7401     H
Eu     0.70575  0.53119  0.93714    Eu
H       0.7142   0.0242   0.2288     H
C      0.71434  0.50025  0.36527     C
C      0.71929  0.93518  0.91584     C
C      0.71932   0.4139  0.29666     C
N      0.72217   0.9718  0.98426     N
O      0.72767  0.39265  0.14381     O
C      0.72916  0.40613  0.24655     C
O      0.72937  0.55512  0.83114     O
H       0.7297    0.101   0.5106     H
H       0.7297   0.6517   0.5567     H
O      0.72975  0.44233  0.01837     O
H       0.7318   0.4973   0.4387     H
C        0.732  0.24908  0.59012     C
C      0.73267  0.68467  0.52279     C
O      0.73587  0.89265  0.64381     O
H        0.737   0.9298   0.8814     H
C      0.73709  0.77902   0.4226     C
H       0.7374   0.8109   0.3881     H
H       0.7407   0.9311   0.5289     H
H       0.7408   0.1974    0.912     H
O      0.75026  0.66383  0.00745     O
O      0.76075  0.30653  0.89317     O
C      0.76117  0.50533  0.65313     C
N      0.76293  0.08092  0.05822     N
C      0.76602  0.30176    0.585     C
C      0.77263  0.97482  0.93192     C
C      0.77776  0.49533  0.59975     C
H        0.782   0.0551   0.8045     H
C      0.78214  0.56763  0.70189     C
C      0.78683  0.17032  0.06482     C
O      0.78764    0.073  0.50772     O
O      0.79179  0.13454  0.64648     O
C      0.79818  0.44992  0.35912     C
H       0.7993   0.4311   0.0289     H
C       0.8076   0.4402   0.3062     C
O      0.80955  0.94233  0.51837     O
H       0.8153   0.2075   0.0563     H
O      0.81596   0.6166  0.09828     O
C      0.81735  0.54886  0.65704     C
H       0.8206   0.5976   0.7044     H
Eu     0.82592  0.03119  0.43714    Eu
H       0.8269   0.0229   0.7297     H
C      0.82755  0.42477  0.20673     C
C      0.82947  0.72827  0.43059     C
H       0.8304   0.0456   0.9828     H
C      0.83042  0.12788  0.03548     C
C      0.83211  0.68186  0.48132     C
Eu     0.83828  0.98393  0.58237    Eu
S      0.84218  0.41397  0.14355     S
S      0.84329  0.18165  0.59931     S
H       0.8451   0.6258    0.404     H
O      0.84826  0.47253  0.09955     O
C      0.84912  0.02287  0.80349     C
H       0.8502   0.3026    0.588     H
H       0.8504   0.7636   0.9564     H
S      0.85073  0.64845  0.04017     S
O      0.85498  0.16877  0.54887     O
H       0.8588   0.4544   0.5172     H
C      0.87284  0.00467  0.90025     C
H       0.8749   0.8742    0.096     H
C      0.87637  0.00406    0.759     C
H       0.8774   0.0976   0.2044     H
C      0.87752   0.4097  0.39726     C
H       0.8808    0.566   0.6288     H
O      0.88437  0.05512  0.33114     O
O      0.88773  0.95367  0.67687     O
C      0.88799  0.45961  0.58461     C
C       0.8882  0.76502  0.98478     C
N      0.89027  0.05781  0.96005     N
C      0.89204  0.71721  0.03411     C
H       0.8921    0.725    0.401     H
N      0.90207  0.41908  0.44178     N
C       0.9059   0.4577   0.2653     C
N      0.90813  0.44219  0.53995     N
H       0.9095   0.9369   0.1457     H
C      0.91717  0.44936   0.2159     C
C      0.91963  0.99467  0.84687     C
H       0.9209   0.7075   0.5563     H
H       0.9244    0.066   0.1288     H
C      0.92453  0.60275  0.41359     C
C      0.93187  0.13287  0.99299     C
C      0.93221  0.04039  0.91539     C
H       0.9364   0.6891   0.1119     H
H       0.9381   0.8483   0.9433     H
C      0.93871  0.72098   0.0774     C
C      0.94013  0.81533  0.97721     C
C      0.94087  0.89725  0.08641     C
C      0.94227  0.63287  0.49299     C
C      0.94834  0.06763  0.20189     C
H       0.9505    0.336   0.3672     H
C      0.95152  0.35322  0.39374     C
O      0.95588  0.36994   0.1407     O
C      0.95934  0.93195  0.11357     C
O      0.96045  0.19347  0.60683     O
C      0.96087  0.09797  0.95929     C
O      0.96582  0.61553  0.01863     O
H       0.9672   0.4758   0.2712     H
C      0.97525  0.95798  0.75712     C
C      0.97675  0.04886  0.15704     C
C      0.97803  0.67032  0.56482     C
Eu     0.98048  0.11305  0.49028    Eu
O      0.98149   0.0949  0.40852     O
C      0.98187  0.59797  0.45929     C
H       0.9819    0.225    0.901     H
H       0.9867   0.4606   0.1886     H
C      0.98833  0.77173  0.06941     C
O      0.98884  0.13769  0.26783     O
H       0.9921   0.5631   0.3543     H
H       0.9934   0.9558   0.3918     H
O      0.99364  0.04023  0.57909     O
C      0.99378  0.37212  0.46452     C
H       0.9946   0.1284     0.38     H
C      0.99514  0.43195  0.61357     C
C      0.99529  0.81814  0.01868     C
S      0.99982  0.92779  0.70439     S
