data_I
_chemical_name_common  '/home/zhangsd/repos/MofS-CGCNN/ML/data/TSD/clean_cifs/DIBXOD_clean'
_cell_length_a 10.67610
_cell_length_b 10.73560
_cell_length_c 11.96370
_cell_angle_alpha 69.99100
_cell_angle_beta  77.56200
_cell_angle_gamma 60.84120
_space_group_name_H-M_alt      'P 1'


loop_
_space_group_symop_operation_xyz
  'x, y, z' 

loop_
_atom_site_label
_atom_site_fract_x
_atom_site_fract_y
_atom_site_fract_z
_atom_site_type_symbol
Cu         0.0      0.0      0.0    Cu
Cu         0.0      0.0      0.5    Cu
H       0.0005   0.2817   0.8152     H
H       0.0106   0.2722   0.5147     H
N       0.0209   0.0214   0.7402     N
N       0.0471   0.9918   0.1553     N
C       0.0558   0.6858   0.5428     C
N       0.0594   0.9783   0.3372     N
C       0.0777   0.6795   0.1334     C
H       0.0887   0.4787   0.5699     H
N       0.0907   0.7733   0.5719     N
N       0.1123   0.7726    0.037     N
C       0.1144    0.536   0.5945     C
H       0.1328   0.4652   0.2197     H
C        0.158   0.5286   0.1549     C
C       0.1716   0.9881   0.1639     C
C       0.1778   0.9787   0.2832     C
C        0.183    0.708   0.6567     C
H       0.2081   0.7672   0.6791     H
C       0.2118    0.467   0.6833     C
O       0.2214   0.0145   0.9581     O
C       0.2299   0.7164   0.9681     C
O       0.2356   0.9929   0.4558     O
C        0.244    0.559    0.714     C
H       0.2557   0.7816   0.9056     H
O       0.2628   0.2179   0.7063     O
C       0.2656   0.0044   0.0562     C
C        0.276   0.4712   0.0802     C
C       0.2767   0.3043   0.7459     C
C       0.2826   0.9653   0.3568     C
H       0.3074   0.5203    0.773     H
C       0.3141   0.5674   0.9853     C
O       0.3335   0.2183   0.1921     O
O       0.3546   0.2582    0.829     O
C       0.3714   0.3035   0.1082     C
O       0.3826   0.0065    0.055     O
H       0.3948   0.5314    0.935     H
O       0.4141   0.9256   0.3149     O
Dy     0.45137  0.00163  0.83855    Dy
O       0.4875   0.2517   0.0446     O
O       0.5125   0.7483   0.9554     O
Dy     0.54863  0.99837  0.16145    Dy
O       0.5859   0.0744   0.6851     O
H       0.6052   0.4686    0.065     H
O       0.6174   0.9935    0.945     O
C       0.6286   0.6965   0.8918     C
O       0.6454   0.7418    0.171     O
O       0.6665   0.7817   0.8079     O
C       0.6859   0.4326   0.0147     C
H       0.6926   0.4797    0.227     H
C       0.7174   0.0347   0.6432     C
C       0.7233   0.6957   0.2541     C
C        0.724   0.5288   0.9198     C
C       0.7344   0.9956   0.9438     C
O       0.7372   0.7821   0.2937     O
H       0.7443   0.2184   0.0944     H
C        0.756    0.441    0.286     C
O       0.7644   0.0071   0.5442     O
C       0.7701   0.2836   0.0319     C
O       0.7786   0.9855   0.0419     O
C       0.7882    0.533   0.3167     C
H       0.7919   0.2328   0.3209     H
C        0.817    0.292   0.3433     C
C       0.8222   0.0213   0.7168     C
C       0.8284   0.0119   0.8361     C
C        0.842   0.4714   0.8451     C
H       0.8672   0.5348   0.7803     H
C       0.8856    0.464   0.4055     C
N       0.8877   0.2274    0.963     N
N       0.9093   0.2267   0.4281     N
H       0.9113   0.5213   0.4301     H
C       0.9223   0.3205   0.8666     C
N       0.9406   0.0217   0.6628     N
C       0.9442   0.3142   0.4572     C
N       0.9529   0.0082   0.8447     N
N       0.9791   0.9786   0.2598     N
H       0.9894   0.7278   0.4853     H
H       0.9995   0.7183   0.1848     H
