data_I
_chemical_name_common  '/home/zhangsd/repos/MofS-CGCNN/ML/data/TSD/clean_cifs/DIBXIX_clean'
_cell_length_a 10.74910
_cell_length_b 10.75850
_cell_length_c 11.89010
_cell_angle_alpha 70.14600
_cell_angle_beta  78.01600
_cell_angle_gamma 61.03000
_space_group_name_H-M_alt      'P 1'


loop_
_space_group_symop_operation_xyz
  'x, y, z' 

loop_
_atom_site_label
_atom_site_fract_x
_atom_site_fract_y
_atom_site_fract_z
_atom_site_type_symbol
Cu         0.0      0.0      0.0    Cu
Cu         0.0      0.0      0.5    Cu
H       0.0023   0.2783   0.8219     H
H       0.0045   0.2707   0.5213     H
N       0.0225    0.018   0.7389     N
N       0.0492   0.9892   0.1556     N
N       0.0555    0.976   0.3375     N
C       0.0589   0.6868    0.539     C
C       0.0774   0.6827   0.1287     C
N       0.0906   0.7739   0.5721     N
H       0.0915   0.4794   0.5638     H
N       0.1104   0.7753   0.0362     N
C       0.1158   0.5365   0.5901     C
H        0.129   0.4699   0.2194     H
C       0.1562   0.5314   0.1546     C
C        0.173   0.9884   0.1655     C
C       0.1779   0.9775   0.2832     C
C       0.1823     0.71   0.6575     C
H       0.2076   0.7691   0.6801     H
C       0.2088   0.4706   0.6801     C
O       0.2233   0.0129   0.9589     O
C       0.2259    0.718   0.9664     C
O       0.2329   0.9915   0.4581     O
C       0.2415   0.5613   0.7139     C
H       0.2494    0.782   0.9011     H
O       0.2615   0.2203   0.7015     O
C        0.265   0.0019   0.0547     C
C       0.2758   0.3071   0.7408     C
C        0.277   0.4716   0.0827     C
C       0.2823   0.9655   0.3593     C
H       0.3035   0.5218   0.7748     H
C       0.3109   0.5688   0.9873     C
O       0.3313   0.2219   0.1923     O
O        0.348   0.2606     0.83     O
C       0.3695    0.307   0.1087     C
O       0.3811   0.0021   0.0571     O
H       0.3912   0.5332   0.9374     H
O       0.4106   0.9243   0.3205     O
Eu     0.45094  0.00069  0.83559    Eu
O       0.4848   0.2591   0.0483     O
O       0.5152   0.7409   0.9517     O
Eu     0.54906  0.99931  0.16441    Eu
O       0.5894   0.0757   0.6795     O
H       0.6088   0.4668   0.0626     H
O       0.6189   0.9979   0.9429     O
C       0.6305    0.693   0.8913     C
O        0.652   0.7394     0.17     O
O       0.6687   0.7781   0.8077     O
C       0.6891   0.4312   0.0127     C
H       0.6965   0.4782   0.2252     H
C       0.7177   0.0345   0.6407     C
C        0.723   0.5284   0.9173     C
C       0.7242   0.6929   0.2592     C
C        0.735   0.9981   0.9453     C
O       0.7385   0.7797   0.2985     O
H       0.7506    0.218   0.0989     H
C       0.7585   0.4387   0.2861     C
O       0.7671   0.0085   0.5419     O
C       0.7741    0.282   0.0336     C
O       0.7767   0.9871   0.0411     O
C       0.7912   0.5294   0.3199     C
H       0.7924   0.2309   0.3199     H
C       0.8177     0.29   0.3425     C
C       0.8221   0.0225   0.7168     C
C        0.827   0.0116   0.8345     C
C       0.8438   0.4686   0.8454     C
H        0.871   0.5301   0.7806     H
C       0.8842   0.4635   0.4099     C
N       0.8896   0.2247   0.9638     N
H       0.9085   0.5206   0.4362     H
N       0.9094   0.2261   0.4279     N
C       0.9226   0.3173   0.8713     C
C       0.9411   0.3132    0.461     C
N       0.9445    0.024   0.6625     N
N       0.9508   0.0108   0.8444     N
N       0.9775    0.982   0.2611     N
H       0.9955   0.7293   0.4787     H
H       0.9977   0.7217   0.1781     H
