data_I
_chemical_name_common  '/home/zhangsd/repos/MofS-CGCNN/ML/data/TSD/clean_cifs/DILXED_clean'
_cell_length_a 12.25490
_cell_length_b 13.56990
_cell_length_c 38.23200
_cell_angle_alpha 97.44300
_cell_angle_beta  90.00000
_cell_angle_gamma 90.00000
_space_group_name_H-M_alt      'P 1'


loop_
_space_group_symop_operation_xyz
  'x, y, z' 

loop_
_atom_site_label
_atom_site_fract_x
_atom_site_fract_y
_atom_site_fract_z
_atom_site_type_symbol
C       0.0016   0.6471   0.6463     C
H       0.0016   0.8378   0.4813     H
N       0.0044   0.2753  0.96746     N
C       0.0063   0.3241   0.0001     C
C       0.0067   0.8782   0.1293     C
H       0.0068   0.2993   0.1138     H
C       0.0081   0.5519   0.6535     C
C       0.0081   0.5986    0.843     C
C       0.0085   0.8768   0.4621     C
H       0.0092   0.9055   0.3307     H
C       0.0099   0.6483   0.4408     C
N       0.0103   0.1855  0.89972     N
N       0.0136   0.0376   0.3148     N
H       0.0202   0.7843   0.3794     H
H       0.0216   0.5283   0.1923     H
H       0.0292   0.0612    0.532     H
C       0.0323   0.9402   0.3126     C
H       0.0345   0.1519   0.2897     H
C       0.0364   0.6759   0.8172     C
H       0.0373   0.4971   0.3577     H
O       0.0389   0.5938   0.4156     O
C        0.041   0.1796    0.571     C
C       0.0474    0.084   0.2884     C
C       0.0478   0.3558   0.1243     C
O       0.0479   0.6376   0.4683     O
C       0.0481   0.8146   0.4017     C
C       0.0506   0.1243   0.8363     C
H        0.053   0.4037    0.108     H
O       0.0534   0.9691   0.5906     O
H       0.0551   0.6406    0.794     H
H       0.0551    0.976   0.8222     H
H       0.0562   0.6659   0.9511     H
C       0.0567   0.8509   0.0767     C
O       0.0573   0.1692   0.1694     O
C       0.0588   0.7016   0.9735     C
C       0.0595   0.2545   0.1865     C
C       0.0619   0.8047     0.04     C
H       0.0631   0.2721    0.838     H
C       0.0645   0.4862   0.1755     C
N       0.0692   0.7176  0.66123     N
O       0.0721   0.4235  0.88195     O
C       0.0737   0.0368   0.8151     C
H       0.0737   0.8804   0.3995     H
C       0.0779   0.3152   0.3778     C
C       0.0791   0.2118   0.8246     C
C       0.0801   0.2733    0.561     C
Cd     0.08027  0.87271  0.63643    Cd
N       0.0806   0.9479   0.1242     N
C       0.0829   0.5303   0.6776     C
H       0.0842   0.8894   0.4581     H
N       0.0848   0.2161   0.3812     N
C       0.0859   0.8897   0.2836     C
H       0.0865   0.4658   0.6833     H
C       0.0875   0.4059   0.0042     C
H       0.0932   0.5246   0.1582     H
H       0.0965   0.8215   0.2826     H
H        0.098   0.7915   0.5524     H
C       0.1002   0.0382   0.2591     C
Cd     0.10439  0.33146   0.9231    Cd
H       0.1074   0.7755   0.4089     H
H       0.1077   0.4623   0.8144     H
N        0.108   0.4676   0.0338     N
N       0.1125   0.9311   0.0898     N
H       0.1176   0.7877   0.8489     H
H       0.1197   0.3349   0.1301     H
H       0.1206   0.0742   0.2411     H
C       0.1207   0.0351   0.6013     C
C       0.1231   0.5618   0.8524     C
C       0.1231    0.936   0.2569     C
H       0.1236   0.4582   0.1874     H
H       0.1245   0.3516   0.6129     H
C       0.1246   0.0411   0.7835     C
C       0.1261   0.5053   0.8838     C
C       0.1281   0.8352   0.0146     C
C       0.1284   0.7815   0.9808     C
C       0.1313   0.2096   0.7928     C
O       0.1325   0.2843    0.207     O
C       0.1379   0.7272    0.834     C
H       0.1395   0.3237   0.5204     H
H       0.1398   0.9817   0.7694     H
C       0.1411   0.1225   0.5813     C
C       0.1437   0.6951   0.6844     C
N       0.1478   0.4216  0.97681     N
H       0.1493   0.5809   0.0897     H
C       0.1493   0.7487   0.5601     C
H       0.1522   0.2697   0.7856     H
C       0.1527   0.6002   0.6937     C
N       0.1538   0.1262   0.7717     N
N       0.1552   0.3684   0.3965     N
H       0.1582   0.0449   0.9783     H
C       0.1627   0.3114    0.594     C
C       0.1642   0.2853   0.5383     C
H       0.1647   0.6654   0.5126     H
C        0.165      0.5    0.827     C
N       0.1673   0.9609   0.9333     N
O       0.1686     0.03  0.63029     O
Cd     0.17127  0.51294  0.44111    Cd
C       0.1713   0.2126    0.402     C
H       0.1722   0.8909   0.0197     H
H        0.175   0.7993   0.9635     H
O       0.1786   0.5402  0.91025     O
N       0.1805   0.7644   0.5936     N
Cd     0.18221  0.05141  0.16389    Cd
H       0.1827   0.2087   0.6299     H
C       0.1841   0.0426   0.9553     C
H       0.1853   0.1013   0.5603     H
C       0.1853   0.8856   0.2271     C
H       0.1868   0.7446   0.8158     H
H       0.1886   0.2214   0.5274     H
C       0.1886   0.5242   0.0225     C
C       0.1889   0.6723   0.5359     C
C       0.1941   0.6568   0.8556     C
H       0.1996   0.6862     0.88     H
C       0.2006   0.2109   0.6053     C
C       0.2011   0.6224   0.0815     C
H       0.2022   0.0328   0.3668     H
H       0.2038   0.5848   0.7102     H
H       0.2041   0.5365   0.8111     H
H       0.2046   0.9006   0.8863     H
C       0.2118    0.959   0.9017     C
H       0.2142   0.4557   0.8367     H
C       0.2148   0.7817   0.6977     C
N       0.2149   0.9258  0.19844     N
N       0.2153   0.5007  0.98838     N
N       0.2167   0.2994   0.4117     N
C         0.22   0.1214   0.4131     C
H       0.2209   0.2041   0.1026     H
N       0.2209   0.8582  0.67915     N
H       0.2219   0.7097   0.1269     H
H       0.2235   0.3193   0.5511     H
H       0.2237   0.3488   0.5863     H
N       0.2273   0.7933  0.22752     N
C       0.2308   0.0377   0.3895     C
H        0.233   0.6413   0.3466     H
C       0.2364   0.1227   0.9464     C
C       0.2364    0.607   0.0463     C
H       0.2433   0.1793   0.9628     H
C       0.2452   0.7004   0.1035     C
C       0.2548   0.7004   0.6035     C
H       0.2567   0.1793   0.4628     H
C       0.2636   0.1227   0.4464     C
C       0.2636    0.607   0.5463     C
H        0.267   0.6413   0.8466     H
C       0.2692   0.0377   0.8895     C
N       0.2727   0.7933  0.72752     N
H       0.2763   0.3488   0.0863     H
H       0.2765   0.3193   0.0511     H
H       0.2781   0.7097   0.6269     H
H       0.2791   0.2041   0.6026     H
N       0.2791   0.8582  0.17915     N
C         0.28   0.1214   0.9131     C
N       0.2833   0.2994   0.9117     N
N       0.2847   0.5007  0.48838     N
N       0.2851   0.9258  0.69844     N
C       0.2852   0.7817   0.1977     C
H       0.2858   0.4557   0.3367     H
C       0.2882    0.959   0.4017     C
H       0.2954   0.9006   0.3863     H
H       0.2959   0.5365   0.3111     H
H       0.2962   0.5848   0.2102     H
H       0.2978   0.0328   0.8668     H
C       0.2989   0.6224   0.5815     C
C       0.2994   0.2109   0.1053     C
H       0.3004   0.6862     0.38     H
C       0.3059   0.6568   0.3556     C
C       0.3111   0.6723   0.0359     C
H       0.3114   0.2214   0.0274     H
C       0.3114   0.5242   0.5225     C
H       0.3132   0.7446   0.3158     H
H       0.3147   0.1013   0.0603     H
C       0.3147   0.8856   0.7271     C
C       0.3159   0.0426   0.4553     C
H       0.3173   0.2087   0.1299     H
Cd     0.31779  0.05141  0.66389    Cd
N       0.3195   0.7644   0.0936     N
O       0.3214   0.5402  0.41025     O
H        0.325   0.7993   0.4635     H
H       0.3278   0.8909   0.5197     H
C       0.3287   0.2126    0.902     C
Cd     0.32873  0.51294  0.94111    Cd
O       0.3314     0.03  0.13029     O
N       0.3327   0.9609   0.4333     N
C        0.335      0.5    0.327     C
H       0.3353   0.6654   0.0126     H
C       0.3358   0.2853   0.0383     C
C       0.3373   0.3114    0.094     C
H       0.3418   0.0449   0.4783     H
N       0.3448   0.3684   0.8965     N
N       0.3462   0.1262   0.2717     N
C       0.3473   0.6002   0.1937     C
H       0.3478   0.2697   0.2856     H
H       0.3507   0.5809   0.5897     H
C       0.3507   0.7487   0.0601     C
N       0.3522   0.4216  0.47681     N
C       0.3563   0.6951   0.1844     C
C       0.3589   0.1225   0.0813     C
H       0.3602   0.9817   0.2694     H
H       0.3605   0.3237   0.0204     H
C       0.3621   0.7272    0.334     C
O       0.3675   0.2843    0.707     O
C       0.3687   0.2096   0.2928     C
C       0.3716   0.7815   0.4808     C
C       0.3719   0.8352   0.5146     C
C       0.3739   0.5053   0.3838     C
C       0.3754   0.0411   0.2835     C
H       0.3755   0.3516   0.1129     H
H       0.3764   0.4582   0.6874     H
C       0.3769   0.5618   0.3524     C
C       0.3769    0.936   0.7569     C
C       0.3793   0.0351   0.1013     C
H       0.3794   0.0742   0.7411     H
H       0.3803   0.3349   0.6301     H
H       0.3824   0.7877   0.3489     H
N       0.3875   0.9311   0.5898     N
N        0.392   0.4676   0.5338     N
H       0.3923   0.4623   0.3144     H
H       0.3926   0.7755   0.9089     H
Cd     0.39561  0.33146   0.4231    Cd
C       0.3998   0.0382   0.7591     C
H        0.402   0.7915   0.0524     H
H       0.4035   0.8215   0.7826     H
H       0.4068   0.5246   0.6582     H
C       0.4125   0.4059   0.5042     C
H       0.4135   0.4658   0.1833     H
C       0.4141   0.8897   0.7836     C
N       0.4152   0.2161   0.8812     N
H       0.4158   0.8894   0.9581     H
C       0.4171   0.5303   0.1776     C
N       0.4194   0.9479   0.6242     N
Cd     0.41973  0.87271  0.13643    Cd
C       0.4199   0.2733    0.061     C
C       0.4209   0.2118   0.3246     C
C       0.4221   0.3152   0.8778     C
C       0.4263   0.0368   0.3151     C
H       0.4263   0.8804   0.8995     H
O       0.4279   0.4235  0.38195     O
N       0.4308   0.7176  0.16123     N
C       0.4355   0.4862   0.6755     C
H       0.4369   0.2721    0.338     H
C       0.4381   0.8047     0.54     C
C       0.4405   0.2545   0.6865     C
C       0.4412   0.7016   0.4735     C
O       0.4427   0.1692   0.6694     O
C       0.4433   0.8509   0.5767     C
H       0.4438   0.6659   0.4511     H
H       0.4449   0.6406    0.294     H
H       0.4449    0.976   0.3222     H
O       0.4466   0.9691   0.0906     O
H        0.447   0.4037    0.608     H
C       0.4494   0.1243   0.3363     C
C       0.4519   0.8146   0.9017     C
O       0.4521   0.6376   0.9683     O
C       0.4522   0.3558   0.6243     C
C       0.4526    0.084   0.7884     C
C        0.459   0.1796    0.071     C
O       0.4611   0.5938   0.9156     O
H       0.4627   0.4971   0.8577     H
C       0.4636   0.6759   0.3172     C
H       0.4655   0.1519   0.7897     H
C       0.4677   0.9402   0.8126     C
H       0.4708   0.0612    0.032     H
H       0.4784   0.5283   0.6923     H
H       0.4798   0.7843   0.8794     H
N       0.4864   0.0376   0.8148     N
N       0.4897   0.1855  0.39972     N
C       0.4901   0.6483   0.9408     C
H       0.4908   0.9055   0.8307     H
C       0.4915   0.8768   0.9621     C
C       0.4919   0.5519   0.1535     C
C       0.4919   0.5986    0.343     C
H       0.4932   0.2993   0.6138     H
C       0.4933   0.8782   0.6293     C
C       0.4937   0.3241   0.5001     C
N       0.4956   0.2753  0.46746     N
C       0.4984   0.6471   0.1463     C
H       0.4984   0.8378   0.9813     H
H       0.5016   0.1622   0.0187     H
C       0.5016   0.3529   0.8537     C
N       0.5044   0.7247  0.53254     N
C       0.5063   0.6759   0.4999     C
C       0.5067   0.1218   0.3707     C
H       0.5068   0.7007   0.3862     H
C       0.5081   0.4014    0.657     C
C       0.5081   0.4481   0.8465     C
C       0.5085   0.1232   0.0379     C
H       0.5092   0.0945   0.1693     H
C       0.5099   0.3517   0.0592     C
N       0.5103   0.8145  0.60028     N
N       0.5136   0.9624   0.1852     N
H       0.5202   0.2157   0.1206     H
H       0.5216   0.4717   0.3077     H
H       0.5292   0.9388    0.968     H
C       0.5323   0.0598   0.1874     C
H       0.5345   0.8481   0.2103     H
C       0.5364   0.3241   0.6828     C
H       0.5373   0.5029   0.1423     H
O       0.5389   0.4062   0.0844     O
C        0.541   0.8204    0.929     C
C       0.5474    0.916   0.2116     C
C       0.5478   0.6442   0.3757     C
O       0.5479   0.3624   0.0317     O
C       0.5481   0.1854   0.0983     C
C       0.5506   0.8757   0.6637     C
H        0.553   0.5963    0.392     H
O       0.5534   0.0309   0.9094     O
H       0.5551    0.024   0.6778     H
H       0.5551   0.3594    0.706     H
H       0.5562   0.3341   0.5489     H
C       0.5567   0.1491   0.4233     C
O       0.5573   0.8308   0.3306     O
C       0.5588   0.2984   0.5265     C
C       0.5595   0.7455   0.3135     C
C       0.5619   0.1953     0.46     C
H       0.5631   0.7279    0.662     H
C       0.5645   0.5138   0.3245     C
N       0.5692   0.2824  0.83877     N
O       0.5721   0.5765  0.61805     O
H       0.5737   0.1196   0.1005     H
C       0.5737   0.9632   0.6849     C
C       0.5779   0.6848   0.1222     C
C       0.5791   0.7882   0.6754     C
C       0.5801   0.7267    0.939     C
Cd     0.58027  0.12729  0.86357    Cd
N       0.5806   0.0521   0.3758     N
C       0.5829   0.4697   0.8224     C
H       0.5842   0.1106   0.0419     H
N       0.5848   0.7839   0.1188     N
C       0.5859   0.1103   0.2164     C
H       0.5865   0.5342   0.8167     H
C       0.5875   0.5941   0.4958     C
H       0.5932   0.4754   0.3418     H
H       0.5965   0.1785   0.2174     H
H        0.598   0.2085   0.9476     H
C       0.6002   0.9618   0.2409     C
Cd     0.60439  0.66854   0.5769    Cd
H       0.6074   0.2245   0.0911     H
H       0.6077   0.5377   0.6856     H
N        0.608   0.5324   0.4662     N
N       0.6125   0.0689   0.4102     N
H       0.6176   0.2123   0.6511     H
H       0.6197   0.6651   0.3699     H
H       0.6206   0.9258   0.2589     H
C       0.6207   0.9649   0.8987     C
C       0.6231    0.064   0.2431     C
C       0.6231   0.4382   0.6476     C
H       0.6236   0.5418   0.3126     H
H       0.6245   0.6484   0.8871     H
C       0.6246   0.9589   0.7165     C
C       0.6261   0.4947   0.6162     C
C       0.6281   0.1648   0.4854     C
C       0.6284   0.2185   0.5192     C
C       0.6313   0.7904   0.7072     C
O       0.6325   0.7157    0.293     O
C       0.6379   0.2728    0.666     C
H       0.6395   0.6763   0.9796     H
H       0.6398   0.0183   0.7306     H
C       0.6411   0.8775   0.9187     C
C       0.6437   0.3049   0.8156     C
N       0.6478   0.5784  0.52319     N
C       0.6493   0.2513   0.9399     C
H       0.6493   0.4191   0.4103     H
H       0.6522   0.7303   0.7144     H
C       0.6527   0.3998   0.8063     C
N       0.6538   0.8738   0.7283     N
N       0.6552   0.6316   0.1035     N
H       0.6582   0.9551   0.5217     H
C       0.6627   0.6886    0.906     C
C       0.6642   0.7147   0.9617     C
H       0.6647   0.3346   0.9874     H
C        0.665      0.5    0.673     C
N       0.6673   0.0391   0.5667     N
O       0.6686     0.97  0.86971     O
Cd     0.67127  0.48706  0.05889    Cd
C       0.6713   0.7874    0.098     C
H       0.6722   0.1091   0.4803     H
H        0.675   0.2007   0.5365     H
O       0.6786   0.4598  0.58975     O
N       0.6805   0.2356   0.9064     N
Cd     0.68221  0.94859  0.33611    Cd
H       0.6827   0.7913   0.8701     H
C       0.6841   0.9574   0.5447     C
C       0.6853   0.1144   0.2729     C
H       0.6853   0.8987   0.9397     H
H       0.6868   0.2554   0.6842     H
C       0.6886   0.4758   0.4775     C
H       0.6886   0.7786   0.9726     H
C       0.6889   0.3277   0.9641     C
C       0.6941   0.3432   0.6444     C
H       0.6996   0.3138     0.62     H
C       0.7006   0.7891   0.8947     C
C       0.7011   0.3776   0.4185     C
H       0.7022   0.9672   0.1332     H
H       0.7038   0.4152   0.7898     H
H       0.7041   0.4635   0.6889     H
H       0.7046   0.0994   0.6137     H
C       0.7118    0.041   0.5983     C
H       0.7142   0.5443   0.6633     H
C       0.7148   0.2183   0.8023     C
N       0.7149   0.0742  0.30156     N
N       0.7153   0.4993  0.51162     N
N       0.7167   0.7006   0.0883     N
C         0.72   0.8786   0.0869     C
N       0.7209   0.1418  0.82085     N
H       0.7209   0.7959   0.3974     H
H       0.7219   0.2903   0.3731     H
H       0.7235   0.6807   0.9489     H
H       0.7237   0.6512   0.9137     H
N       0.7273   0.2067  0.27248     N
C       0.7308   0.9623   0.1105     C
H        0.733   0.3587   0.1534     H
C       0.7364    0.393   0.4537     C
C       0.7364   0.8773   0.5536     C
H       0.7433   0.8207   0.5372     H
C       0.7452   0.2996   0.3965     C
C       0.7548   0.2996   0.8965     C
H       0.7567   0.8207   0.0372     H
C       0.7636    0.393   0.9537     C
C       0.7636   0.8773   0.0536     C
H        0.767   0.3587   0.6534     H
C       0.7692   0.9623   0.6105     C
N       0.7727   0.2067  0.77248     N
H       0.7763   0.6512   0.4137     H
H       0.7765   0.6807   0.4489     H
H       0.7781   0.2903   0.8731     H
N       0.7791   0.1418  0.32085     N
H       0.7791   0.7959   0.8974     H
C         0.78   0.8786   0.5869     C
N       0.7833   0.7006   0.5883     N
N       0.7847   0.4993  0.01162     N
N       0.7851   0.0742  0.80156     N
C       0.7852   0.2183   0.3023     C
H       0.7858   0.5443   0.1633     H
C       0.7882    0.041   0.0983     C
H       0.7954   0.0994   0.1137     H
H       0.7959   0.4635   0.1889     H
H       0.7962   0.4152   0.2898     H
H       0.7978   0.9672   0.6332     H
C       0.7989   0.3776   0.9185     C
C       0.7994   0.7891   0.3947     C
H       0.8004   0.3138     0.12     H
C       0.8059   0.3432   0.1444     C
C       0.8111   0.3277   0.4641     C
C       0.8114   0.4758   0.9775     C
H       0.8114   0.7786   0.4726     H
H       0.8132   0.2554   0.1842     H
C       0.8147   0.1144   0.7729     C
H       0.8147   0.8987   0.4397     H
C       0.8159   0.9574   0.0447     C
H       0.8173   0.7913   0.3701     H
Cd     0.81779  0.94859  0.83611    Cd
N       0.8195   0.2356   0.4064     N
O       0.8214   0.4598  0.08975     O
H        0.825   0.2007   0.0365     H
H       0.8278   0.1091   0.9803     H
C       0.8287   0.7874    0.598     C
Cd     0.82873  0.48706  0.55889    Cd
O       0.8314     0.97  0.36971     O
N       0.8327   0.0391   0.0667     N
C        0.835      0.5    0.173     C
H       0.8353   0.3346   0.4874     H
C       0.8358   0.7147   0.4617     C
C       0.8373   0.6886    0.406     C
H       0.8418   0.9551   0.0217     H
N       0.8448   0.6316   0.6035     N
N       0.8462   0.8738   0.2283     N
C       0.8473   0.3998   0.3063     C
H       0.8478   0.7303   0.2144     H
C       0.8507   0.2513   0.4399     C
H       0.8507   0.4191   0.9103     H
N       0.8522   0.5784  0.02319     N
C       0.8563   0.3049   0.3156     C
C       0.8589   0.8775   0.4187     C
H       0.8602   0.0183   0.2306     H
H       0.8605   0.6763   0.4796     H
C       0.8621   0.2728    0.166     C
O       0.8675   0.7157    0.793     O
C       0.8687   0.7904   0.2072     C
C       0.8716   0.2185   0.0192     C
C       0.8719   0.1648   0.9854     C
C       0.8739   0.4947   0.1162     C
C       0.8754   0.9589   0.2165     C
H       0.8755   0.6484   0.3871     H
H       0.8764   0.5418   0.8126     H
C       0.8769    0.064   0.7431     C
C       0.8769   0.4382   0.1476     C
C       0.8793   0.9649   0.3987     C
H       0.8794   0.9258   0.7589     H
H       0.8803   0.6651   0.8699     H
H       0.8824   0.2123   0.1511     H
N       0.8875   0.0689   0.9102     N
N        0.892   0.5324   0.9662     N
H       0.8923   0.5377   0.1856     H
H       0.8926   0.2245   0.5911     H
Cd     0.89561  0.66854   0.0769    Cd
C       0.8998   0.9618   0.7409     C
H        0.902   0.2085   0.4476     H
H       0.9035   0.1785   0.7174     H
H       0.9068   0.4754   0.8418     H
C       0.9125   0.5941   0.9958     C
H       0.9135   0.5342   0.3167     H
C       0.9141   0.1103   0.7164     C
N       0.9152   0.7839   0.6188     N
H       0.9158   0.1106   0.5419     H
C       0.9171   0.4697   0.3224     C
N       0.9194   0.0521   0.8758     N
Cd     0.91973  0.12729  0.36356    Cd
C       0.9199   0.7267    0.439     C
C       0.9209   0.7882   0.1754     C
C       0.9221   0.6848   0.6222     C
H       0.9263   0.1196   0.6005     H
C       0.9263   0.9632   0.1849     C
O       0.9279   0.5765  0.11805     O
N       0.9308   0.2824  0.33877     N
C       0.9355   0.5138   0.8245     C
H       0.9369   0.7279    0.162     H
C       0.9381   0.1953     0.96     C
C       0.9405   0.7455   0.8135     C
C       0.9412   0.2984   0.0265     C
O       0.9427   0.8308   0.8306     O
C       0.9433   0.1491   0.9233     C
H       0.9438   0.3341   0.0489     H
H       0.9449    0.024   0.1778     H
H       0.9449   0.3594    0.206     H
O       0.9466   0.0309   0.4094     O
H        0.947   0.5963    0.892     H
C       0.9494   0.8757   0.1637     C
C       0.9519   0.1854   0.5983     C
O       0.9521   0.3624   0.5317     O
C       0.9522   0.6442   0.8757     C
C       0.9526    0.916   0.7116     C
C        0.959   0.8204    0.429     C
O       0.9611   0.4062   0.5844     O
H       0.9627   0.5029   0.6423     H
C       0.9636   0.3241   0.1828     C
H       0.9655   0.8481   0.7103     H
C       0.9677   0.0598   0.6874     C
H       0.9708   0.9388    0.468     H
H       0.9784   0.4717   0.8077     H
H       0.9798   0.2157   0.6206     H
N       0.9864   0.9624   0.6852     N
N       0.9897   0.8145  0.10028     N
C       0.9901   0.3517   0.5592     C
H       0.9908   0.0945   0.6693     H
C       0.9915   0.1232   0.5379     C
C       0.9919   0.4014    0.157     C
C       0.9919   0.4481   0.3465     C
H       0.9932   0.7007   0.8862     H
C       0.9933   0.1218   0.8707     C
C       0.9937   0.6759   0.9999     C
N       0.9956   0.7247  0.03254     N
H       0.9984   0.1622   0.5187     H
C       0.9984   0.3529   0.3537     C
