data_I
_chemical_name_common  '/home/zhangsd/repos/MofS-CGCNN/ML/data/TSD/clean_cifs/DIMKIV_clean'
_cell_length_a 24.19080
_cell_length_b  9.14720
_cell_length_c 18.95670
_cell_angle_alpha 90.00000
_cell_angle_beta  114.25200
_cell_angle_gamma 90.00000
_space_group_name_H-M_alt      'P 1'


loop_
_space_group_symop_operation_xyz
  'x, y, z' 

loop_
_atom_site_label
_atom_site_fract_x
_atom_site_fract_y
_atom_site_fract_z
_atom_site_type_symbol
O      0.04097   0.3028   0.4824     O
O      0.04097   0.6972   0.9824     O
Eu     0.04162  0.19428   0.9943    Eu
Eu     0.04162  0.80572   0.4943    Eu
O       0.0472   0.0658  0.49616     O
O       0.0472   0.9342  0.99616     O
C        0.066   0.1848   0.4804     C
C        0.066   0.8152   0.9804     C
O      0.07637   0.1336   0.1212     O
O      0.07637   0.8664   0.6212     O
O      0.10761   0.3772   0.0537     O
O      0.10761   0.6228   0.5537     O
O      0.11555   0.1488   0.9579     O
O      0.11555   0.8512   0.4579     O
C       0.1176   0.1859   0.4563     C
C       0.1176   0.8141   0.9563     C
O      0.12039   0.0424   0.2388     O
O      0.12039   0.9576   0.7388     O
C       0.1217   0.1213   0.1859     C
C       0.1217   0.8787   0.6859     C
H       0.1327   0.4048   0.4612     H
H       0.1327   0.5952   0.9612     H
H       0.1392   0.3236   0.6856     H
H       0.1392   0.6764   0.1856     H
C        0.141    0.078   0.9225     C
C        0.141    0.922   0.4225     C
N        0.142   0.3186   0.4485     N
N        0.142   0.6814   0.9485     N
C       0.1451   0.0834   0.4298     C
C       0.1451   0.9166   0.9298     C
H       0.1463   0.1597   0.6666     H
H       0.1463   0.8403   0.1666     H
C       0.1636   0.2558   0.6721     C
C       0.1636   0.7442   0.1721     C
C       0.1644   0.3909   0.0912     C
C       0.1644   0.6091   0.5912     C
O      0.16468   0.1353   0.8823     O
O      0.16468   0.8647   0.3823     O
H       0.1649    0.285   0.6242     H
H       0.1649    0.715   0.1242     H
C       0.1791   0.1985   0.2005     C
C       0.1791   0.8015   0.7005     C
C       0.1824   0.2927    0.418     C
C       0.1824   0.7073    0.918     C
N      0.18457   0.1511   0.4044     N
N      0.18457   0.8489   0.9044     N
O      0.19546   0.4821  0.07317     O
O      0.19546   0.5179  0.57317     O
C       0.1966   0.3032   0.1616     C
C       0.1966   0.6968   0.6616     C
H       0.2006   0.4291   0.3465     H
H       0.2006   0.5709   0.8465     H
Zn     0.21222  0.00981  0.33624    Zn
Zn     0.21222  0.99019  0.83624    Zn
H       0.2161   0.4975   0.4282     H
H       0.2161   0.5025   0.9282     H
C       0.2177   0.4101   0.4011     C
C       0.2177   0.5899   0.9011     C
C       0.2261   0.2542   0.7341     C
C       0.2261   0.7458   0.2341     C
N      0.22832   0.1639   0.2669     N
N      0.22832   0.8361   0.7669     N
H       0.2409   0.1205   0.5824     H
H       0.2409   0.8795   0.0824     H
N      0.24324   0.1677   0.7964     N
N      0.24324   0.8323   0.2964     N
N      0.25676   0.3323   0.2036     N
N      0.25676   0.6677   0.7036     N
H       0.2591   0.3795   0.4176     H
H       0.2591   0.6205   0.9176     H
N      0.27168   0.3361   0.7331     N
N      0.27168   0.6639   0.2331     N
C       0.2739   0.2458   0.2659     C
C       0.2739   0.7542   0.7659     C
C       0.2823   0.0899   0.5989     C
C       0.2823   0.9101   0.0989     C
H       0.2839   0.0025   0.5718     H
H       0.2839   0.9975   0.0718     H
Zn     0.28778  0.49019  0.66376    Zn
Zn     0.28778  0.50981  0.16376    Zn
H       0.2994   0.0709   0.6535     H
H       0.2994   0.9291   0.1535     H
C       0.3034   0.1968   0.8384     C
C       0.3034   0.8032   0.3384     C
O      0.30454   0.0179  0.92683     O
O      0.30454   0.9821  0.42683     O
N      0.31543   0.3489   0.5956     N
N      0.31543   0.6511   0.0956     N
C       0.3176   0.2073    0.582     C
C       0.3176   0.7927    0.082     C
C       0.3209   0.3015   0.7995     C
C       0.3209   0.6985   0.2995     C
H       0.3351    0.215   0.3758     H
H       0.3351    0.785   0.8758     H
O      0.33532   0.3647   0.1177     O
O      0.33532   0.6353   0.6177     O
C       0.3356   0.1091   0.9088     C
C       0.3356   0.8909   0.4088     C
C       0.3364   0.2442   0.3279     C
C       0.3364   0.7558   0.8279     C
H       0.3537   0.3403   0.3334     H
H       0.3537   0.6597   0.8334     H
C       0.3549   0.4166   0.5702     C
C       0.3549   0.5834   0.0702     C
N        0.358   0.1814   0.5515     N
N        0.358   0.8186   0.0515     N
C        0.359    0.422   0.0775     C
C        0.359    0.578   0.5775     C
H       0.3608   0.1764   0.3144     H
H       0.3608   0.8236   0.8144     H
H       0.3673   0.0952   0.5388     H
H       0.3673   0.9048   0.0388     H
C       0.3783   0.3787   0.8141     C
C       0.3783   0.6213   0.3141     C
O      0.37961   0.4576   0.7612     O
O      0.37961   0.5424   0.2612     O
C       0.3824   0.3141   0.5437     C
C       0.3824   0.6859   0.0437     C
O      0.38445   0.3512   0.0421     O
O      0.38445   0.6488   0.5421     O
O      0.39239   0.1228   0.9463     O
O      0.39239   0.8772   0.4463     O
O      0.42363   0.3664   0.8788     O
O      0.42363   0.6336   0.3788     O
C        0.434   0.3152   0.5196     C
C        0.434   0.6848   0.0196     C
O       0.4528   0.4342  0.50384     O
O       0.4528   0.5658  0.00384     O
Eu     0.45838  0.30572   0.0057    Eu
Eu     0.45838  0.69428   0.5057    Eu
O      0.45903   0.1972   0.5176     O
O      0.45903   0.8028   0.0176     O
O      0.54097   0.1972   0.9824     O
O      0.54097   0.8028   0.4824     O
Eu     0.54162  0.30572   0.4943    Eu
Eu     0.54162  0.69428   0.9943    Eu
O       0.5472   0.4342  0.99616     O
O       0.5472   0.5658  0.49616     O
C        0.566   0.3152   0.9804     C
C        0.566   0.6848   0.4804     C
O      0.57637   0.3664   0.6212     O
O      0.57637   0.6336   0.1212     O
O      0.60761   0.1228   0.5537     O
O      0.60761   0.8772   0.0537     O
O      0.61555   0.3512   0.4579     O
O      0.61555   0.6488   0.9579     O
C       0.6176   0.3141   0.9563     C
C       0.6176   0.6859   0.4563     C
O      0.62039   0.4576   0.7388     O
O      0.62039   0.5424   0.2388     O
C       0.6217   0.3787   0.6859     C
C       0.6217   0.6213   0.1859     C
H       0.6327   0.0952   0.9612     H
H       0.6327   0.9048   0.4612     H
H       0.6392   0.1764   0.1856     H
H       0.6392   0.8236   0.6856     H
C        0.641    0.422   0.4225     C
C        0.641    0.578   0.9225     C
N        0.642   0.1814   0.9485     N
N        0.642   0.8186   0.4485     N
C       0.6451   0.4166   0.9298     C
C       0.6451   0.5834   0.4298     C
H       0.6463   0.3403   0.1666     H
H       0.6463   0.6597   0.6666     H
C       0.6636   0.2442   0.1721     C
C       0.6636   0.7558   0.6721     C
C       0.6644   0.1091   0.5912     C
C       0.6644   0.8909   0.0912     C
O      0.66468   0.3647   0.3823     O
O      0.66468   0.6353   0.8823     O
H       0.6649    0.215   0.1242     H
H       0.6649    0.785   0.6242     H
C       0.6791   0.3015   0.7005     C
C       0.6791   0.6985   0.2005     C
C       0.6824   0.2073    0.918     C
C       0.6824   0.7927    0.418     C
N      0.68457   0.3489   0.9044     N
N      0.68457   0.6511   0.4044     N
O      0.69546   0.0179  0.57317     O
O      0.69546   0.9821  0.07317     O
C       0.6966   0.1968   0.6616     C
C       0.6966   0.8032   0.1616     C
H       0.7006   0.0709   0.8465     H
H       0.7006   0.9291   0.3465     H
Zn     0.71222  0.49019  0.83624    Zn
Zn     0.71222  0.50981  0.33624    Zn
H       0.7161   0.0025   0.9282     H
H       0.7161   0.9975   0.4282     H
C       0.7177   0.0899   0.9011     C
C       0.7177   0.9101   0.4011     C
C       0.7261   0.2458   0.2341     C
C       0.7261   0.7542   0.7341     C
N      0.72832   0.3361   0.7669     N
N      0.72832   0.6639   0.2669     N
H       0.7409   0.3795   0.0824     H
H       0.7409   0.6205   0.5824     H
N      0.74324   0.3323   0.2964     N
N      0.74324   0.6677   0.7964     N
N      0.75676   0.1677   0.7036     N
N      0.75676   0.8323   0.2036     N
H       0.7591   0.1205   0.9176     H
H       0.7591   0.8795   0.4176     H
N      0.77168   0.1639   0.2331     N
N      0.77168   0.8361   0.7331     N
C       0.7739   0.2542   0.7659     C
C       0.7739   0.7458   0.2659     C
C       0.7823   0.4101   0.0989     C
C       0.7823   0.5899   0.5989     C
H       0.7839   0.4975   0.0718     H
H       0.7839   0.5025   0.5718     H
Zn     0.78778  0.00981  0.16376    Zn
Zn     0.78778  0.99019  0.66376    Zn
H       0.7994   0.4291   0.1535     H
H       0.7994   0.5709   0.6535     H
C       0.8034   0.3032   0.3384     C
C       0.8034   0.6968   0.8384     C
O      0.80454   0.4821  0.42683     O
O      0.80454   0.5179  0.92683     O
N      0.81543   0.1511   0.0956     N
N      0.81543   0.8489   0.5956     N
C       0.8176   0.2927    0.082     C
C       0.8176   0.7073    0.582     C
C       0.8209   0.1985   0.2995     C
C       0.8209   0.8015   0.7995     C
H       0.8351    0.285   0.8758     H
H       0.8351    0.715   0.3758     H
O      0.83532   0.1353   0.6177     O
O      0.83532   0.8647   0.1177     O
C       0.8356   0.3909   0.4088     C
C       0.8356   0.6091   0.9088     C
C       0.8364   0.2558   0.8279     C
C       0.8364   0.7442   0.3279     C
H       0.8537   0.1597   0.8334     H
H       0.8537   0.8403   0.3334     H
C       0.8549   0.0834   0.0702     C
C       0.8549   0.9166   0.5702     C
N        0.858   0.3186   0.0515     N
N        0.858   0.6814   0.5515     N
C        0.859    0.078   0.5775     C
C        0.859    0.922   0.0775     C
H       0.8608   0.3236   0.8144     H
H       0.8608   0.6764   0.3144     H
H       0.8673   0.4048   0.0388     H
H       0.8673   0.5952   0.5388     H
C       0.8783   0.1213   0.3141     C
C       0.8783   0.8787   0.8141     C
O      0.87961   0.0424   0.2612     O
O      0.87961   0.9576   0.7612     O
C       0.8824   0.1859   0.0437     C
C       0.8824   0.8141   0.5437     C
O      0.88445   0.1488   0.5421     O
O      0.88445   0.8512   0.0421     O
O      0.89239   0.3772   0.4463     O
O      0.89239   0.6228   0.9463     O
O      0.92363   0.1336   0.3788     O
O      0.92363   0.8664   0.8788     O
C        0.934   0.1848   0.0196     C
C        0.934   0.8152   0.5196     C
O       0.9528   0.0658  0.00384     O
O       0.9528   0.9342  0.50384     O
Eu     0.95838  0.19428   0.5057    Eu
Eu     0.95838  0.80572   0.0057    Eu
O      0.95903   0.3028   0.0176     O
O      0.95903   0.6972   0.5176     O
