data_I
_chemical_name_common  '/home/zhangsd/repos/MofS-CGCNN/ML/data/TSD/clean_cifs/DISSUU_clean'
_cell_length_a  8.45520
_cell_length_b 10.06140
_cell_length_c 12.82180
_cell_angle_alpha 109.01200
_cell_angle_beta  90.92200
_cell_angle_gamma 91.29800
_space_group_name_H-M_alt      'P 1'


loop_
_space_group_symop_operation_xyz
  'x, y, z' 

loop_
_atom_site_label
_atom_site_fract_x
_atom_site_fract_y
_atom_site_fract_z
_atom_site_type_symbol
H       0.0091   0.7192   0.3614     H
O       0.0137   0.3831   0.1941     O
P      0.01905  0.48974  0.30993     P
O       0.0263   0.6401   0.2939     O
O       0.0493   0.2208  0.47667     O
Zn     0.05299  0.18217  0.15604    Zn
P      0.06043  0.08686  0.37536     P
O       0.1071   0.9845  0.65469     O
H       0.1219   0.0825   0.7932     H
O       0.1228    0.131   0.8662     O
O       0.1257   0.1223  0.27649     O
O       0.1285   0.5228  0.62644     O
O       0.1564   0.9004   0.9012     O
O       0.1708   0.4796   0.3752     O
O       0.1739   0.9823  0.40046     O
Zn     0.18587  0.38327  0.48538    Zn
O        0.219   0.1365  0.05098     O
P      0.22787  0.05194  0.92913     P
Zn     0.25982  0.99832  0.54517    Zn
H       0.3294   0.5965   0.3639     H
O       0.3855    0.173   0.6079     O
O       0.3975   0.0412   0.8918     O
O       0.4009   0.6528   0.3483     O
O       0.4042   0.8449   0.5354     O
O       0.4066   0.3453   0.4979     O
P       0.4917  0.25216   0.5511     P
P       0.5083  0.74784   0.4489     P
O       0.5934   0.6547   0.5021     O
O       0.5958   0.1551   0.4646     O
O       0.5991   0.3472   0.6517     O
O       0.6025   0.9588   0.1082     O
O       0.6145    0.827   0.3921     O
H       0.6706   0.4035   0.6361     H
Zn     0.74018  0.00168  0.45483    Zn
P      0.77213  0.94806  0.07087     P
O        0.781   0.8635  0.94902     O
Zn     0.81413  0.61673  0.51462    Zn
O       0.8261   0.0177  0.59954     O
O       0.8292   0.5204   0.6248     O
O       0.8436   0.0996   0.0988     O
O       0.8715   0.4772  0.37356     O
O       0.8743   0.8777  0.72351     O
O       0.8772    0.869   0.1338     O
H       0.8781   0.9175   0.2068     H
O       0.8929   0.0155  0.34531     O
P      0.93957  0.91314  0.62464     P
Zn     0.94701  0.81783  0.84396    Zn
O       0.9507   0.7792  0.52333     O
O       0.9737   0.3599   0.7061     O
P      0.98095  0.51026  0.69007     P
O       0.9863   0.6169   0.8059     O
H       0.9909   0.2808   0.6386     H
