data_I
_chemical_name_common  '/home/zhangsd/repos/MofS-CGCNN/ML/data/TSD/clean_cifs/DIVMUR_clean'
_cell_length_a  8.75400
_cell_length_b 15.87300
_cell_length_c  9.46600
_cell_angle_alpha 90.00000
_cell_angle_beta  99.88700
_cell_angle_gamma 90.00000
_space_group_name_H-M_alt      'P 1'


loop_
_space_group_symop_operation_xyz
  'x, y, z' 

loop_
_atom_site_label
_atom_site_fract_x
_atom_site_fract_y
_atom_site_fract_z
_atom_site_type_symbol
Er     0.02832  0.19529  0.52451    Er
C       0.0675   0.9992   0.4585     C
O        0.076   0.2586   0.0978     O
O       0.0959  0.93063   0.4032     O
O       0.1115  0.68976   0.5918     O
O       0.1174   0.7727   0.3026     O
O       0.1395  0.06748   0.4543     O
O       0.1478  0.84997   0.6745     O
O       0.1695  0.31096   0.6404     O
O       0.1969   0.2338   0.3748     O
C       0.2075    0.704    0.702     C
O       0.2103  0.14987   0.7209     O
Se     0.22203  0.22128  0.20871    Se
C        0.231   0.7963    0.751     C
O       0.2413  0.12204   0.1741     O
O       0.2587  0.62204   0.3259     O
C        0.269   0.2963    0.749     C
Se     0.27797  0.72128  0.29129    Se
O       0.2897  0.64987   0.7791     O
C       0.2925    0.204    0.798     C
O       0.3031   0.7338   0.1252     O
O       0.3305  0.81096   0.8596     O
O       0.3522  0.34997   0.8255     O
O       0.3605  0.56748   0.0457     O
O       0.3826   0.2727   0.1974     O
O       0.3885  0.18976   0.9082     O
O       0.4041  0.43063   0.0968     O
O        0.424   0.7586   0.4022     O
C       0.4325   0.4992   0.0415     C
Er     0.47168  0.69529  0.97549    Er
Er     0.52832  0.30471  0.02451    Er
C       0.5675   0.5008   0.9585     C
O        0.576   0.2414   0.5978     O
O       0.5959  0.56937   0.9032     O
O       0.6115  0.81024   0.0918     O
O       0.6174   0.7273   0.8026     O
O       0.6395  0.43252   0.9543     O
O       0.6478  0.65003   0.1745     O
O       0.6695  0.18904   0.1404     O
O       0.6969   0.2662   0.8748     O
C       0.7075    0.796    0.202     C
O       0.7103  0.35013   0.2209     O
Se     0.72203  0.27872  0.70871    Se
C        0.731   0.7037    0.251     C
O       0.7413  0.37796   0.6741     O
O       0.7587  0.87796   0.8259     O
C        0.769   0.2037    0.249     C
Se     0.77797  0.77872  0.79129    Se
O       0.7897  0.85013   0.2791     O
C       0.7925    0.296    0.298     C
O       0.8031   0.7662   0.6252     O
O       0.8305  0.68904   0.3596     O
O       0.8522  0.15003   0.3255     O
O       0.8605  0.93252   0.5457     O
O       0.8826   0.2273   0.6974     O
O       0.8885  0.31024   0.4082     O
O       0.9041  0.06937   0.5968     O
O        0.924   0.7414   0.9022     O
C       0.9325   0.0008   0.5415     C
Er     0.97168  0.80471  0.47549    Er
