data_I
_chemical_name_common  '/home/zhangsd/repos/MofS-CGCNN/ML/data/TSD/clean_cifs/DIVNAY_clean'
_cell_length_a  8.77490
_cell_length_b 15.88030
_cell_length_c  9.50770
_cell_angle_alpha 90.00000
_cell_angle_beta  99.85500
_cell_angle_gamma 90.00000
_space_group_name_H-M_alt      'P 1'


loop_
_space_group_symop_operation_xyz
  'x, y, z' 

loop_
_atom_site_label
_atom_site_fract_x
_atom_site_fract_y
_atom_site_fract_z
_atom_site_type_symbol
Y      0.02877  0.19556  0.52519     Y
C       0.0682   0.9988   0.4589     C
O       0.0756   0.2591   0.0982     O
O       0.0957  0.93097   0.4026     O
O       0.1124  0.68955   0.5918     O
O       0.1179  0.77174   0.3034     O
O       0.1401  0.06716   0.4555     O
O       0.1467  0.84959    0.674     O
O       0.1708  0.31079   0.6417     O
O       0.1969   0.2336   0.3753     O
C       0.2076   0.7043   0.7015     C
O       0.2105  0.15031   0.7218     O
Se     0.22186  0.22121  0.20901    Se
C       0.2304   0.7965     0.75     C
O       0.2401   0.1221   0.1735     O
O       0.2599   0.6221   0.3265     O
C       0.2696   0.2965     0.75     C
Se     0.27814  0.72121  0.29099    Se
O       0.2895  0.65031   0.7782     O
C       0.2924   0.2043   0.7985     C
O       0.3031   0.7336   0.1247     O
O       0.3292  0.81079   0.8583     O
O       0.3533  0.34959    0.826     O
O       0.3599  0.56716   0.0445     O
O       0.3821  0.27174   0.1966     O
O       0.3876  0.18955   0.9082     O
O       0.4043  0.43097   0.0974     O
O       0.4244   0.7591   0.4018     O
C       0.4318   0.4988   0.0411     C
Y      0.47123  0.69556  0.97481     Y
Y      0.52877  0.30444  0.02519     Y
C       0.5682   0.5012   0.9589     C
O       0.5756   0.2409   0.5982     O
O       0.5957  0.56903   0.9026     O
O       0.6124  0.81045   0.0918     O
O       0.6179  0.72826   0.8034     O
O       0.6401  0.43284   0.9555     O
O       0.6467  0.65041    0.174     O
O       0.6708  0.18921   0.1417     O
O       0.6969   0.2664   0.8753     O
C       0.7076   0.7957   0.2015     C
O       0.7105  0.34969   0.2218     O
Se     0.72186  0.27879  0.70901    Se
C       0.7304   0.7035     0.25     C
O       0.7401   0.3779   0.6735     O
O       0.7599   0.8779   0.8265     O
C       0.7696   0.2035     0.25     C
Se     0.77814  0.77879  0.79099    Se
O       0.7895  0.84969   0.2782     O
C       0.7924   0.2957   0.2985     C
O       0.8031   0.7664   0.6247     O
O       0.8292  0.68921   0.3583     O
O       0.8533  0.15041    0.326     O
O       0.8599  0.93284   0.5445     O
O       0.8821  0.22826   0.6966     O
O       0.8876  0.31045   0.4082     O
O       0.9043  0.06903   0.5974     O
O       0.9244   0.7409   0.9018     O
C       0.9318   0.0012   0.5411     C
Y      0.97123  0.80444  0.47481     Y
