data_I
_chemical_name_common  '/home/zhangsd/repos/MofS-CGCNN/ML/data/TSD/clean_cifs/DIVPUU_clean'
_cell_length_a 10.81610
_cell_length_b 10.81610
_cell_length_c  9.74820
_cell_angle_alpha 90.00000
_cell_angle_beta  90.00000
_cell_angle_gamma 120.00000
_space_group_name_H-M_alt      'P 1'


loop_
_space_group_symop_operation_xyz
  'x, y, z' 

loop_
_atom_site_label
_atom_site_fract_x
_atom_site_fract_y
_atom_site_fract_z
_atom_site_type_symbol
Ag         0.0  0.48498  0.66667    Ag
C       0.0091   0.3923  0.35287     C
C       0.0447   0.3699  0.10357     C
N        0.072   0.4328  0.86697     N
H       0.1051   0.4621  0.35807     H
H       0.1722   0.7743  0.85273     H
C       0.1862   0.4075  0.10477     C
N       0.1879   0.7304  0.65963     N
C       0.2067   0.4668  0.87947     C
C       0.2213   0.8138  0.77143     C
H       0.2257   0.3979  0.18607     H
H       0.2373   0.7367  0.46793     H
C       0.2601   0.7933  0.54613     C
H       0.2633   0.5006  0.80127     H
N       0.2696   0.4575  0.99297     N
C       0.3252   0.9553  0.77023     C
H        0.357   0.8949  0.02473     H
N       0.3608    0.928  0.53363     N
C       0.3699   0.0447  0.89643     C
C       0.3832   0.9909  0.01953     C
C       0.3923   0.0091  0.64713     C
H       0.3979   0.2257  0.81393     H
C       0.4075   0.1862  0.89523     C
N       0.4328    0.072  0.13303     N
N       0.4575   0.2696  0.00703     N
H       0.4621   0.1051  0.64193     H
C       0.4668   0.2067  0.12053     C
Ag     0.48498      0.0  0.33333    Ag
H       0.4994   0.7627   0.1346     H
H       0.5006   0.2633  0.19873     H
Ag     0.51502  0.51502      0.0    Ag
C       0.5332   0.7399   0.2128     C
H       0.5379    0.643   0.6914     H
N       0.5425   0.8121   0.3263     N
N       0.5672   0.6392   0.2003     N
C       0.5925   0.7787   0.4381     C
H       0.6021   0.8278   0.5194     H
C       0.6077   0.6168   0.6862     C
C       0.6168   0.6077   0.3138     C
C       0.6301   0.6748   0.4369     C
N       0.6392   0.5672   0.7997     N
H        0.643   0.5379   0.3086     H
C       0.6748   0.6301   0.5631     C
N       0.7304   0.1879  0.34037     N
H       0.7367   0.2373  0.53207     H
C       0.7399   0.5332   0.7872     C
H       0.7627   0.4994   0.8654     H
H       0.7743   0.1722  0.14727     H
C       0.7787   0.5925   0.5619     C
C       0.7933   0.2601  0.45387     C
N       0.8121   0.5425   0.6737     N
C       0.8138   0.2213  0.22857     C
H       0.8278   0.6021   0.4806     H
H       0.8949    0.357  0.97527     H
N        0.928   0.3608  0.46637     N
C       0.9553   0.3252  0.22977     C
C       0.9909   0.3832  0.98047     C
