data_I
_chemical_name_common  '/home/zhangsd/repos/MofS-CGCNN/ML/data/TSD/clean_cifs/DIYKED_clean'
_cell_length_a  6.71190
_cell_length_b 24.87600
_cell_length_c 14.06470
_cell_angle_alpha 90.00000
_cell_angle_beta  90.00000
_cell_angle_gamma 90.00000
_space_group_name_H-M_alt      'P 1'


loop_
_space_group_symop_operation_xyz
  'x, y, z' 

loop_
_atom_site_label
_atom_site_fract_x
_atom_site_fract_y
_atom_site_fract_z
_atom_site_type_symbol
N          0.0   0.0194   0.9745     N
H          0.0   0.0416   0.1622     H
C          0.0   0.0703   0.0255     C
C          0.0   0.0732   0.1244     C
H          0.0   0.1142   0.9062     H
C          0.0   0.1159   0.9737     C
C          0.0   0.1247   0.1667     C
H          0.0   0.1277    0.234     H
O          0.0   0.1449   0.7607     O
N          0.0   0.1511    0.678     N
C          0.0   0.1646   0.0187     C
N          0.0   0.1698   0.1131     N
H          0.0   0.1704   0.5064     H
H          0.0   0.1963   0.9809     H
C          0.0   0.2025   0.6391     C
C          0.0   0.2035   0.5401     C
O          0.0   0.2057   0.3411     O
Cd         0.0     0.25  0.19228    Cd
C          0.0     0.25   0.3836     C
C          0.0     0.25   0.4904     C
C          0.0     0.25   0.6904     C
C          0.0     0.25   0.7988     C
O          0.0   0.2943   0.3411     O
C          0.0   0.2965   0.5401     C
C          0.0   0.2975   0.6391     C
H          0.0   0.3037   0.9809     H
H          0.0   0.3296   0.5064     H
N          0.0   0.3302   0.1131     N
C          0.0   0.3354   0.0187     C
N          0.0   0.3489    0.678     N
O          0.0   0.3551   0.7607     O
H          0.0   0.3723    0.234     H
C          0.0   0.3753   0.1667     C
C          0.0   0.3841   0.9737     C
H          0.0   0.3858   0.9062     H
C          0.0   0.4268   0.1244     C
C          0.0   0.4297   0.0255     C
H          0.0   0.4584   0.1622     H
N          0.0   0.4806   0.9745     N
N          0.0   0.5194   0.0255     N
H          0.0   0.5416   0.8378     H
C          0.0   0.5703   0.9745     C
C          0.0   0.5732   0.8756     C
H          0.0   0.6142   0.0938     H
C          0.0   0.6159   0.0263     C
C          0.0   0.6247   0.8333     C
H          0.0   0.6277    0.766     H
O          0.0   0.6449   0.2393     O
N          0.0   0.6511    0.322     N
C          0.0   0.6646   0.9813     C
N          0.0   0.6698   0.8869     N
H          0.0   0.6704   0.4936     H
H          0.0   0.6963   0.0191     H
C          0.0   0.7025   0.3609     C
C          0.0   0.7035   0.4599     C
O          0.0   0.7057   0.6589     O
C          0.0     0.75   0.2012     C
C          0.0     0.75   0.3096     C
C          0.0     0.75   0.5096     C
C          0.0     0.75   0.6164     C
Cd         0.0     0.75  0.80772    Cd
O          0.0   0.7943   0.6589     O
C          0.0   0.7965   0.4599     C
C          0.0   0.7975   0.3609     C
H          0.0   0.8037   0.0191     H
H          0.0   0.8296   0.4936     H
N          0.0   0.8302   0.8869     N
C          0.0   0.8354   0.9813     C
N          0.0   0.8489    0.322     N
O          0.0   0.8551   0.2393     O
H          0.0   0.8723    0.766     H
C          0.0   0.8753   0.8333     C
C          0.0   0.8841   0.0263     C
H          0.0   0.8858   0.0938     H
C          0.0   0.9268   0.8756     C
C          0.0   0.9297   0.9745     C
H          0.0   0.9584   0.8378     H
N          0.0   0.9806   0.0255     N
O        0.113    0.116    0.636     O
O        0.113    0.384    0.636     O
O        0.113    0.616    0.364     O
O        0.113    0.884    0.364     O
O       0.1606     0.25   0.8396     O
O       0.1606     0.75   0.1604     O
O       0.3394     0.25   0.1604     O
O       0.3394     0.75   0.8396     O
O        0.387    0.116    0.364     O
O        0.387    0.384    0.364     O
O        0.387    0.616    0.636     O
O        0.387    0.884    0.636     O
N          0.5   0.0194   0.0255     N
H          0.5   0.0416   0.8378     H
C          0.5   0.0703   0.9745     C
C          0.5   0.0732   0.8756     C
H          0.5   0.1142   0.0938     H
C          0.5   0.1159   0.0263     C
C          0.5   0.1247   0.8333     C
H          0.5   0.1277    0.766     H
O          0.5   0.1449   0.2393     O
N          0.5   0.1511    0.322     N
C          0.5   0.1646   0.9813     C
N          0.5   0.1698   0.8869     N
H          0.5   0.1704   0.4936     H
H          0.5   0.1963   0.0191     H
C          0.5   0.2025   0.3609     C
C          0.5   0.2035   0.4599     C
O          0.5   0.2057   0.6589     O
C          0.5     0.25   0.2012     C
C          0.5     0.25   0.3096     C
C          0.5     0.25   0.5096     C
C          0.5     0.25   0.6164     C
Cd         0.5     0.25  0.80772    Cd
O          0.5   0.2943   0.6589     O
C          0.5   0.2965   0.4599     C
C          0.5   0.2975   0.3609     C
H          0.5   0.3037   0.0191     H
H          0.5   0.3296   0.4936     H
N          0.5   0.3302   0.8869     N
C          0.5   0.3354   0.9813     C
N          0.5   0.3489    0.322     N
O          0.5   0.3551   0.2393     O
H          0.5   0.3723    0.766     H
C          0.5   0.3753   0.8333     C
C          0.5   0.3841   0.0263     C
H          0.5   0.3858   0.0938     H
C          0.5   0.4268   0.8756     C
C          0.5   0.4297   0.9745     C
H          0.5   0.4584   0.8378     H
N          0.5   0.4806   0.0255     N
N          0.5   0.5194   0.9745     N
H          0.5   0.5416   0.1622     H
C          0.5   0.5703   0.0255     C
C          0.5   0.5732   0.1244     C
H          0.5   0.6142   0.9062     H
C          0.5   0.6159   0.9737     C
C          0.5   0.6247   0.1667     C
H          0.5   0.6277    0.234     H
O          0.5   0.6449   0.7607     O
N          0.5   0.6511    0.678     N
C          0.5   0.6646   0.0187     C
N          0.5   0.6698   0.1131     N
H          0.5   0.6704   0.5064     H
H          0.5   0.6963   0.9809     H
C          0.5   0.7025   0.6391     C
C          0.5   0.7035   0.5401     C
O          0.5   0.7057   0.3411     O
Cd         0.5     0.75  0.19228    Cd
C          0.5     0.75   0.3836     C
C          0.5     0.75   0.4904     C
C          0.5     0.75   0.6904     C
C          0.5     0.75   0.7988     C
O          0.5   0.7943   0.3411     O
C          0.5   0.7965   0.5401     C
C          0.5   0.7975   0.6391     C
H          0.5   0.8037   0.9809     H
H          0.5   0.8296   0.5064     H
N          0.5   0.8302   0.1131     N
C          0.5   0.8354   0.0187     C
N          0.5   0.8489    0.678     N
O          0.5   0.8551   0.7607     O
H          0.5   0.8723    0.234     H
C          0.5   0.8753   0.1667     C
C          0.5   0.8841   0.9737     C
H          0.5   0.8858   0.9062     H
C          0.5   0.9268   0.1244     C
C          0.5   0.9297   0.0255     C
H          0.5   0.9584   0.1622     H
N          0.5   0.9806   0.9745     N
O        0.613    0.116    0.364     O
O        0.613    0.384    0.364     O
O        0.613    0.616    0.636     O
O        0.613    0.884    0.636     O
O       0.6606     0.25   0.1604     O
O       0.6606     0.75   0.8396     O
O       0.8394     0.25   0.8396     O
O       0.8394     0.75   0.1604     O
O        0.887    0.116    0.636     O
O        0.887    0.384    0.636     O
O        0.887    0.616    0.364     O
O        0.887    0.884    0.364     O
