data_I
_chemical_name_common  '/home/zhangsd/repos/MofS-CGCNN/ML/data/TSD/clean_cifs/DIYKAZ_clean'
_cell_length_a 16.35520
_cell_length_b 16.00350
_cell_length_c 12.10240
_cell_angle_alpha 90.00000
_cell_angle_beta  111.39900
_cell_angle_gamma 90.00000
_space_group_name_H-M_alt      'P 1'


loop_
_space_group_symop_operation_xyz
  'x, y, z' 

loop_
_atom_site_label
_atom_site_fract_x
_atom_site_fract_y
_atom_site_fract_z
_atom_site_type_symbol
Cd     0.01191   0.3194  0.40821    Cd
Cd     0.01191   0.6806  0.90821    Cd
H       0.0453   0.3766   0.6675     H
H       0.0453   0.6234   0.1675     H
O      0.07105   0.4209  0.00888     O
O      0.07105   0.5791  0.50888     O
N      0.07359   0.2748      0.6     N
N      0.07359   0.7252      0.1     N
O      0.07618  0.21291   0.1649     O
O      0.07618  0.78709   0.6649     O
C       0.0765   0.3268   0.6873     C
C       0.0765   0.6732   0.1873     C
H       0.0859   0.4786    0.424     H
H       0.0859   0.5214    0.924     H
O      0.09741  0.41175   0.1993     O
O      0.09741  0.58825   0.6993     O
C       0.1124  0.44387   0.1138     C
C       0.1124  0.55613   0.6138     C
N      0.11496  0.42962   0.4367     N
N      0.11496  0.57038   0.9367     N
O      0.11605  0.24859   0.3565     O
O      0.11605  0.75141   0.8565     O
H       0.1181   0.1663   0.5713     H
H       0.1181   0.8337   0.0713     H
C        0.119   0.2037   0.6306     C
C        0.119   0.7963   0.1306     C
C       0.1216   0.2049   0.2736     C
C       0.1216   0.7951   0.7736     C
C       0.1232   0.3105   0.8052     C
C       0.1232   0.6895   0.3052     C
H       0.1235   0.3491   0.8628     H
H       0.1235   0.6509   0.3628     H
H         0.14   0.4248    0.382     H
H         0.14   0.5752    0.882     H
H       0.1534   0.0862   0.1396     H
H       0.1534   0.9138   0.6396     H
C       0.1673   0.1836   0.7479     C
C       0.1673   0.8164   0.2479     C
C       0.1694   0.2374    0.838     C
C       0.1694   0.7626    0.338     C
H       0.1779   0.2088   0.0066     H
H       0.1779   0.7912   0.5066     H
C       0.1804  0.48873   0.6391     C
C       0.1804  0.51127   0.1391     C
C       0.1828   0.4318   0.5517     C
C       0.1828   0.5682   0.0517     C
C       0.1904   0.1365   0.3047     C
C       0.1904   0.8635   0.8047     C
C       0.1938   0.0815   0.2168     C
C       0.1938   0.9185   0.7168     C
H       0.1984   0.1336   0.7659     H
H       0.1984   0.8664   0.2659     H
C       0.2198   0.2181    0.968     C
C       0.2198   0.7819    0.468     C
H       0.2407   0.4838   0.3136     H
H       0.2407   0.5162   0.8136     H
C       0.2425   0.4798   0.7547     C
C       0.2425   0.5202   0.2547     C
H       0.2479   0.3335   0.0267     H
H       0.2479   0.6665   0.5267     H
C       0.2481   0.3708     0.58     C
C       0.2481   0.6292     0.08     C
H       0.2493   0.1655   0.4786     H
H       0.2493   0.8345   0.9786     H
H       0.2507   0.3345   0.5214     H
H       0.2507   0.6655   0.0214     H
C       0.2519   0.1292     0.42     C
C       0.2519   0.8708     0.92     C
H       0.2521   0.1665   0.9733     H
H       0.2521   0.8335   0.4733     H
C       0.2575   0.0202   0.2453     C
C       0.2575   0.9798   0.7453     C
H       0.2593   0.0162   0.6864     H
H       0.2593   0.9838   0.1864     H
C       0.2802   0.2819    0.032     C
C       0.2802   0.7181    0.532     C
H       0.3016   0.3664   0.2341     H
H       0.3016   0.6336   0.7341     H
C       0.3062   0.4185   0.7832     C
C       0.3062   0.5815   0.2832     C
C       0.3096   0.3635   0.6953     C
C       0.3096   0.6365   0.1953     C
C       0.3172   0.0682   0.4483     C
C       0.3172   0.9318   0.9483     C
C       0.3196  0.01127   0.3609     C
C       0.3196  0.98873   0.8609     C
H       0.3221   0.2912   0.9934     H
H       0.3221   0.7088   0.4934     H
C       0.3306   0.2626    0.162     C
C       0.3306   0.7374    0.662     C
C       0.3327   0.3164   0.2521     C
C       0.3327   0.6836   0.7521     C
H       0.3466   0.4138   0.8604     H
H       0.3466   0.5862   0.3604     H
H         0.36   0.0752    0.618     H
H         0.36   0.9248    0.118     H
H       0.3765   0.1509   0.1372     H
H       0.3765   0.8491   0.6372     H
C       0.3768   0.1895   0.1948     C
C       0.3768   0.8105   0.6948     C
C       0.3784   0.2951   0.7264     C
C       0.3784   0.7049   0.2264     C
C        0.381   0.2963   0.3694     C
C        0.381   0.7037   0.8694     C
H       0.3819   0.3337   0.4287     H
H       0.3819   0.6663   0.9287     H
O      0.38395  0.25141   0.6435     O
O      0.38395  0.74859   0.1435     O
N      0.38504  0.07038   0.5633     N
N      0.38504  0.92962   0.0633     N
C       0.3876  0.05613   0.8862     C
C       0.3876  0.94387   0.3862     C
O      0.40259  0.08825   0.8007     O
O      0.40259  0.91175   0.3007     O
H       0.4141   0.0214    0.576     H
H       0.4141   0.9786    0.076     H
C       0.4235   0.1732   0.3127     C
C       0.4235   0.8268   0.8127     C
O      0.42382  0.28709   0.8351     O
O      0.42382  0.71291   0.3351     O
N      0.42641   0.2252      0.4     N
N      0.42641   0.7748      0.9     N
O      0.42895   0.0791  0.99112     O
O      0.42895   0.9209  0.49112     O
H       0.4547   0.1234   0.3325     H
H       0.4547   0.8766   0.8325     H
Cd     0.48809   0.1806  0.59179    Cd
Cd     0.48809   0.8194  0.09179    Cd
Cd     0.51191   0.1806  0.90821    Cd
Cd     0.51191   0.8194  0.40821    Cd
H       0.5453   0.1234   0.1675     H
H       0.5453   0.8766   0.6675     H
O      0.57105   0.0791  0.50888     O
O      0.57105   0.9209  0.00888     O
N      0.57359   0.2252      0.1     N
N      0.57359   0.7748      0.6     N
O      0.57618  0.28709   0.6649     O
O      0.57618  0.71291   0.1649     O
C       0.5765   0.1732   0.1873     C
C       0.5765   0.8268   0.6873     C
H       0.5859   0.0214    0.924     H
H       0.5859   0.9786    0.424     H
O      0.59741  0.08825   0.6993     O
O      0.59741  0.91175   0.1993     O
C       0.6124  0.05613   0.6138     C
C       0.6124  0.94387   0.1138     C
N      0.61496  0.07038   0.9367     N
N      0.61496  0.92962   0.4367     N
O      0.61605  0.25141   0.8565     O
O      0.61605  0.74859   0.3565     O
H       0.6181   0.3337   0.0713     H
H       0.6181   0.6663   0.5713     H
C        0.619   0.2963   0.1306     C
C        0.619   0.7037   0.6306     C
C       0.6216   0.2951   0.7736     C
C       0.6216   0.7049   0.2736     C
C       0.6232   0.1895   0.3052     C
C       0.6232   0.8105   0.8052     C
H       0.6235   0.1509   0.3628     H
H       0.6235   0.8491   0.8628     H
H         0.64   0.0752    0.882     H
H         0.64   0.9248    0.382     H
H       0.6534   0.4138   0.6396     H
H       0.6534   0.5862   0.1396     H
C       0.6673   0.3164   0.2479     C
C       0.6673   0.6836   0.7479     C
C       0.6694   0.2626    0.338     C
C       0.6694   0.7374    0.838     C
H       0.6779   0.2912   0.5066     H
H       0.6779   0.7088   0.0066     H
C       0.6804  0.01127   0.1391     C
C       0.6804  0.98873   0.6391     C
C       0.6828   0.0682   0.0517     C
C       0.6828   0.9318   0.5517     C
C       0.6904   0.3635   0.8047     C
C       0.6904   0.6365   0.3047     C
C       0.6938   0.4185   0.7168     C
C       0.6938   0.5815   0.2168     C
H       0.6984   0.3664   0.2659     H
H       0.6984   0.6336   0.7659     H
C       0.7198   0.2819    0.468     C
C       0.7198   0.7181    0.968     C
H       0.7407   0.0162   0.8136     H
H       0.7407   0.9838   0.3136     H
C       0.7425   0.0202   0.2547     C
C       0.7425   0.9798   0.7547     C
H       0.7479   0.1665   0.5267     H
H       0.7479   0.8335   0.0267     H
C       0.7481   0.1292     0.08     C
C       0.7481   0.8708     0.58     C
H       0.7493   0.3345   0.9786     H
H       0.7493   0.6655   0.4786     H
H       0.7507   0.1655   0.0214     H
H       0.7507   0.8345   0.5214     H
C       0.7519   0.3708     0.92     C
C       0.7519   0.6292     0.42     C
H       0.7521   0.3335   0.4733     H
H       0.7521   0.6665   0.9733     H
C       0.7575   0.4798   0.7453     C
C       0.7575   0.5202   0.2453     C
H       0.7593   0.4838   0.1864     H
H       0.7593   0.5162   0.6864     H
C       0.7802   0.2181    0.532     C
C       0.7802   0.7819    0.032     C
H       0.8016   0.1336   0.7341     H
H       0.8016   0.8664   0.2341     H
C       0.8062   0.0815   0.2832     C
C       0.8062   0.9185   0.7832     C
C       0.8096   0.1365   0.1953     C
C       0.8096   0.8635   0.6953     C
C       0.8172   0.4318   0.9483     C
C       0.8172   0.5682   0.4483     C
C       0.8196  0.48873   0.8609     C
C       0.8196  0.51127   0.3609     C
H       0.8221   0.2088   0.4934     H
H       0.8221   0.7912   0.9934     H
C       0.8306   0.2374    0.662     C
C       0.8306   0.7626    0.162     C
C       0.8327   0.1836   0.7521     C
C       0.8327   0.8164   0.2521     C
H       0.8466   0.0862   0.3604     H
H       0.8466   0.9138   0.8604     H
H         0.86   0.4248    0.118     H
H         0.86   0.5752    0.618     H
H       0.8765   0.3491   0.6372     H
H       0.8765   0.6509   0.1372     H
C       0.8768   0.3105   0.6948     C
C       0.8768   0.6895   0.1948     C
C       0.8784   0.2049   0.2264     C
C       0.8784   0.7951   0.7264     C
C        0.881   0.2037   0.8694     C
C        0.881   0.7963   0.3694     C
H       0.8819   0.1663   0.9287     H
H       0.8819   0.8337   0.4287     H
O      0.88395  0.24859   0.1435     O
O      0.88395  0.75141   0.6435     O
N      0.88504  0.42962   0.0633     N
N      0.88504  0.57038   0.5633     N
C       0.8876  0.44387   0.3862     C
C       0.8876  0.55613   0.8862     C
O      0.90259  0.41175   0.3007     O
O      0.90259  0.58825   0.8007     O
H       0.9141   0.4786    0.076     H
H       0.9141   0.5214    0.576     H
C       0.9235   0.3268   0.8127     C
C       0.9235   0.6732   0.3127     C
O      0.92382  0.21291   0.3351     O
O      0.92382  0.78709   0.8351     O
N      0.92641   0.2748      0.9     N
N      0.92641   0.7252      0.4     N
O      0.92895   0.4209  0.49112     O
O      0.92895   0.5791  0.99112     O
H       0.9547   0.3766   0.8325     H
H       0.9547   0.6234   0.3325     H
Cd     0.98809   0.3194  0.09179    Cd
Cd     0.98809   0.6806  0.59179    Cd
