data_I
_chemical_name_common  '/home/zhangsd/repos/MofS-CGCNN/ML/data/TSD/clean_cifs/DOGZIJ_clean'
_cell_length_a  8.47300
_cell_length_b 10.15400
_cell_length_c 13.39700
_cell_angle_alpha 68.21000
_cell_angle_beta  78.64000
_cell_angle_gamma 77.46000
_space_group_name_H-M_alt      'P 1'


loop_
_space_group_symop_operation_xyz
  'x, y, z' 

loop_
_atom_site_label
_atom_site_fract_x
_atom_site_fract_y
_atom_site_fract_z
_atom_site_type_symbol
C       0.0061  0.86516  0.99596     C
C       0.0135  0.71804  0.99246     C
C       0.0418   0.1114  0.90555     C
C       0.0463  0.97632  0.90227     C
Zn     0.05663  0.56485  0.84178    Zn
H       0.0704   0.1859   0.8428     H
O      0.07341  0.36352  0.93383     O
H       0.0764     0.96   0.8367     H
O      0.10287  0.68771  0.91435     O
O        0.104  0.46161  0.67306     O
N       0.1657  0.34247  0.19489     N
H        0.193   0.3739   0.3306     H
C       0.2278   0.5116  0.66656     C
C       0.2385   0.3321   0.2782     C
O      0.24455  0.57106  0.73216     O
H       0.2477   0.4674   0.4811     H
H       0.2552   0.2523   0.0825     H
C       0.2735   0.2662   0.1438     C
H       0.3077   0.7112   0.1276     H
H       0.3445   0.8118   0.2498     H
C       0.3491   0.4807    0.489     C
H       0.3612   0.8136   0.8855     H
C       0.3685   0.5065  0.57965     C
C       0.3872   0.2522   0.2748     C
H        0.402     0.95   0.7891     H
N       0.4083    0.212  0.18763     N
C       0.4135   0.7113   0.0857     C
H       0.4137   0.6786    0.027     H
H       0.4331   0.9187   0.2696     H
C       0.4434   0.8738   0.8504     C
C       0.4435   0.8514   0.2329     C
C       0.4544   0.8627   0.0404     C
H       0.4615   0.2291   0.3237     H
H       0.4658   0.4577   0.3489     H
H       0.4675   0.2245   0.7438     H
C       0.4759   0.9271  0.11222     C
C        0.477   0.9374  0.92895     C
C       0.4801   0.4747  0.40989     C
H       0.4935   0.6485    0.131     H
H       0.5065   0.3515    0.869     H
C       0.5199   0.5253  0.59011     C
C        0.523   0.0626  0.07105     C
C       0.5241   0.0729  0.88778     C
H       0.5325   0.7755   0.2562     H
H       0.5342   0.5423   0.6511     H
H       0.5385   0.7709   0.6763     H
C       0.5456   0.1373   0.9596     C
C       0.5565   0.1486   0.7671     C
C       0.5566   0.1262   0.1496     C
H       0.5669   0.0813   0.7304     H
H       0.5863   0.3214    0.973     H
C       0.5865   0.2887   0.9143     C
N       0.5917    0.788  0.81237     N
H        0.598     0.05   0.2109     H
C       0.6128   0.7478   0.7252     C
C       0.6315   0.4935  0.42035     C
H       0.6388   0.1864   0.1145     H
C       0.6509   0.5193    0.511     C
H       0.6555   0.1882   0.7502     H
H       0.6923   0.2888   0.8724     H
C       0.7265   0.7338   0.8562     C
H       0.7448   0.7477   0.9175     H
H       0.7523   0.5326   0.5189     H
O      0.75545  0.42894  0.26784     O
C       0.7615   0.6679   0.7218     C
C       0.7722   0.4884  0.33344     C
H        0.807   0.6261   0.6694     H
N       0.8343  0.65753  0.80511     N
O        0.896  0.53839  0.32694     O
O      0.89713  0.31229  0.08565     O
H       0.9236     0.04   0.1633     H
O      0.92659  0.63648  0.06617     O
H       0.9296   0.8141   0.1572     H
Zn     0.94337  0.43515  0.15822    Zn
C       0.9537  0.02368  0.09773     C
C       0.9582   0.8886  0.09445     C
C       0.9865  0.28196  0.00754     C
C       0.9939  0.13484  0.00404     C
