data_I
_chemical_name_common  '/home/zhangsd/repos/MofS-CGCNN/ML/data/TSD/clean_cifs/DOKBUC_clean'
_cell_length_a  9.02100
_cell_length_b 13.84100
_cell_length_c 30.18300
_cell_angle_alpha 90.00000
_cell_angle_beta  90.00000
_cell_angle_gamma 90.00000
_space_group_name_H-M_alt      'P 1'


loop_
_space_group_symop_operation_xyz
  'x, y, z' 

loop_
_atom_site_label
_atom_site_fract_x
_atom_site_fract_y
_atom_site_fract_z
_atom_site_type_symbol
H          0.0   0.3685     0.25     H
C          0.0   0.4357     0.25     C
C          0.0   0.5643     0.75     C
H          0.0   0.6315     0.75     H
O       0.0006   0.3078  0.80381     O
O       0.0006   0.6922  0.30381     O
H       0.0033   0.2699   0.6158     H
H       0.0033   0.7301   0.1158     H
C       0.0142   0.0248  0.10164     C
C       0.0142   0.9752  0.60164     C
C        0.016   0.0206  0.47761     C
C        0.016   0.9794  0.97761     C
H       0.0215   0.3702    0.082     H
H       0.0215   0.6298    0.582     H
C        0.047   0.0123  0.56013     C
C        0.047   0.9877  0.06013     C
H       0.0588   0.0008   0.6268     H
H       0.0588   0.9992   0.1268     H
H       0.0681   0.0408   0.3042     H
H       0.0681   0.9592   0.8042     H
H       0.0817   0.2742    0.543     H
H       0.0817   0.7258    0.043     H
C       0.0834   0.0988  0.39473     C
C       0.0834   0.9012  0.89473     C
C       0.0984   0.2915  0.60912     C
C       0.0984   0.7085  0.10912     C
O       0.1009  0.47534  0.27182     O
O       0.1009  0.52466  0.77182     O
H       0.1015   0.3675    0.155     H
H       0.1015   0.6325    0.655     H
C       0.1042   0.1018  0.31119     C
C       0.1042   0.8982  0.81119     C
H       0.1156   0.0622   0.5582     H
H       0.1156   0.9378   0.0582     H
N       0.1174   0.1408  0.35236     N
N       0.1174   0.8592  0.85236     N
C       0.1178   0.3515  0.08885     C
C       0.1178   0.6485  0.58885     C
C        0.118   0.0945  0.47275     C
C        0.118   0.9055  0.97275     C
C       0.1333   0.3261  0.68996     C
C       0.1333   0.6739  0.18996     C
C       0.1452   0.2939  0.56554     C
C       0.1452   0.7061  0.06554     C
C       0.1527   0.1317  0.43191     C
C       0.1527   0.8683  0.93191     C
C       0.1538   0.1693  0.28236     C
C       0.1538   0.8307  0.78236     C
H       0.1615   0.1609   0.2519     H
H       0.1615   0.8391   0.7519     H
H        0.164   0.1197   0.4978     H
H        0.164   0.8803   0.9978     H
C       0.1663   0.3494  0.13248     C
C       0.1663   0.6506  0.63248     C
C       0.1692     0.23  0.34622     C
C       0.1692     0.77  0.84622     C
O       0.1699   0.3327  0.01138     O
O       0.1699   0.6673  0.51138     O
H       0.1804   0.3615    0.929     H
H       0.1804   0.6385    0.429     H
H       0.1881   0.2728   0.3693     H
H       0.1881   0.7272   0.8693     H
N       0.1908   0.2511  0.30449     N
N       0.1908   0.7489  0.80449     N
C        0.192   0.3212  0.64317     C
C        0.192   0.6788  0.14317     C
Fe     0.19364  0.38286   0.7852    Fe
Fe     0.19364  0.61714   0.2852    Fe
C        0.209   0.4169  0.94419     C
C        0.209   0.5831  0.44419     C
C       0.2112   0.4174  0.98968     C
C       0.2112   0.5826  0.48968     C
O       0.2147  0.42258  0.85194     O
O       0.2147  0.57742  0.35194     O
C       0.2157   0.3251  0.05567     C
C       0.2157   0.6749  0.55567     C
O       0.2237    0.349   0.7196     O
O       0.2237    0.651   0.2196     O
H       0.2243   0.1797   0.4296     H
H       0.2243   0.8203   0.9296     H
C         0.25      0.5  0.01346     C
H         0.25      0.5   0.0443     H
C         0.25      0.5  0.37091     C
C         0.25      0.5  0.42078     C
C         0.25      0.5  0.51346     C
H         0.25      0.5   0.5443     H
C         0.25      0.5  0.87091     C
C         0.25      0.5  0.92078     C
H       0.2757   0.1797   0.9296     H
H       0.2757   0.8203   0.4296     H
O       0.2763    0.349   0.2196     O
O       0.2763    0.651   0.7196     O
C       0.2843   0.3251  0.55567     C
C       0.2843   0.6749  0.05567     C
O       0.2853  0.42258  0.35194     O
O       0.2853  0.57742  0.85194     O
C       0.2888   0.4174  0.48968     C
C       0.2888   0.5826  0.98968     C
C        0.291   0.4169  0.44419     C
C        0.291   0.5831  0.94419     C
Fe     0.30636  0.38286   0.2852    Fe
Fe     0.30636  0.61714   0.7852    Fe
C        0.308   0.3212  0.14317     C
C        0.308   0.6788  0.64317     C
N       0.3092   0.2511  0.80449     N
N       0.3092   0.7489  0.30449     N
H       0.3119   0.2728   0.8693     H
H       0.3119   0.7272   0.3693     H
H       0.3196   0.3615    0.429     H
H       0.3196   0.6385    0.929     H
O       0.3301   0.3327  0.51138     O
O       0.3301   0.6673  0.01138     O
C       0.3308     0.23  0.84622     C
C       0.3308     0.77  0.34622     C
C       0.3337   0.3494  0.63248     C
C       0.3337   0.6506  0.13248     C
H        0.336   0.1197   0.9978     H
H        0.336   0.8803   0.4978     H
H       0.3385   0.1609   0.7519     H
H       0.3385   0.8391   0.2519     H
C       0.3462   0.1693  0.78236     C
C       0.3462   0.8307  0.28236     C
C       0.3473   0.1317  0.93191     C
C       0.3473   0.8683  0.43191     C
C       0.3548   0.2939  0.06554     C
C       0.3548   0.7061  0.56554     C
C       0.3667   0.3261  0.18996     C
C       0.3667   0.6739  0.68996     C
C        0.382   0.0945  0.97275     C
C        0.382   0.9055  0.47275     C
C       0.3822   0.3515  0.58885     C
C       0.3822   0.6485  0.08885     C
N       0.3826   0.1408  0.85236     N
N       0.3826   0.8592  0.35236     N
H       0.3844   0.0622   0.0582     H
H       0.3844   0.9378   0.5582     H
C       0.3958   0.1018  0.81119     C
C       0.3958   0.8982  0.31119     C
H       0.3985   0.3675    0.655     H
H       0.3985   0.6325    0.155     H
O       0.3991  0.47534  0.77182     O
O       0.3991  0.52466  0.27182     O
C       0.4016   0.2915  0.10912     C
C       0.4016   0.7085  0.60912     C
C       0.4166   0.0988  0.89473     C
C       0.4166   0.9012  0.39473     C
H       0.4183   0.2742    0.043     H
H       0.4183   0.7258    0.543     H
H       0.4319   0.0408   0.8042     H
H       0.4319   0.9592   0.3042     H
H       0.4412   0.0008   0.1268     H
H       0.4412   0.9992   0.6268     H
C        0.453   0.0123  0.06013     C
C        0.453   0.9877  0.56013     C
H       0.4785   0.3702    0.582     H
H       0.4785   0.6298    0.082     H
C        0.484   0.0206  0.97761     C
C        0.484   0.9794  0.47761     C
C       0.4858   0.0248  0.60164     C
C       0.4858   0.9752  0.10164     C
H       0.4967   0.2699   0.1158     H
H       0.4967   0.7301   0.6158     H
O       0.4994   0.3078  0.30381     O
O       0.4994   0.6922  0.80381     O
H          0.5   0.3685     0.75     H
C          0.5   0.4357     0.75     C
C          0.5   0.5643     0.25     C
H          0.5   0.6315     0.25     H
O       0.5006   0.3078  0.19619     O
O       0.5006   0.6922  0.69619     O
H       0.5033   0.2699   0.3842     H
H       0.5033   0.7301   0.8842     H
C       0.5142   0.0248  0.89836     C
C       0.5142   0.9752  0.39836     C
C        0.516   0.0206  0.52239     C
C        0.516   0.9794  0.02239     C
H       0.5215   0.3702    0.918     H
H       0.5215   0.6298    0.418     H
C        0.547   0.0123  0.43987     C
C        0.547   0.9877  0.93987     C
H       0.5588   0.0008   0.3732     H
H       0.5588   0.9992   0.8732     H
H       0.5681   0.0408   0.6958     H
H       0.5681   0.9592   0.1958     H
H       0.5817   0.2742    0.457     H
H       0.5817   0.7258    0.957     H
C       0.5834   0.0988  0.60527     C
C       0.5834   0.9012  0.10527     C
C       0.5984   0.2915  0.39088     C
C       0.5984   0.7085  0.89088     C
O       0.6009  0.47534  0.72818     O
O       0.6009  0.52466  0.22818     O
H       0.6015   0.3675    0.845     H
H       0.6015   0.6325    0.345     H
C       0.6042   0.1018  0.68881     C
C       0.6042   0.8982  0.18881     C
H       0.6156   0.0622   0.4418     H
H       0.6156   0.9378   0.9418     H
N       0.6174   0.1408  0.64764     N
N       0.6174   0.8592  0.14764     N
C       0.6178   0.3515  0.91115     C
C       0.6178   0.6485  0.41115     C
C        0.618   0.0945  0.52725     C
C        0.618   0.9055  0.02725     C
C       0.6333   0.3261  0.31004     C
C       0.6333   0.6739  0.81004     C
C       0.6452   0.2939  0.43446     C
C       0.6452   0.7061  0.93446     C
C       0.6527   0.1317  0.56809     C
C       0.6527   0.8683  0.06809     C
C       0.6538   0.1693  0.71764     C
C       0.6538   0.8307  0.21764     C
H       0.6615   0.1609   0.7481     H
H       0.6615   0.8391   0.2481     H
H        0.664   0.1197   0.5022     H
H        0.664   0.8803   0.0022     H
C       0.6663   0.3494  0.86752     C
C       0.6663   0.6506  0.36752     C
C       0.6692     0.23  0.65378     C
C       0.6692     0.77  0.15378     C
O       0.6699   0.3327  0.98862     O
O       0.6699   0.6673  0.48862     O
H       0.6804   0.3615    0.071     H
H       0.6804   0.6385    0.571     H
H       0.6881   0.2728   0.6307     H
H       0.6881   0.7272   0.1307     H
N       0.6908   0.2511  0.69551     N
N       0.6908   0.7489  0.19551     N
C        0.692   0.3212  0.35683     C
C        0.692   0.6788  0.85683     C
Fe     0.69364  0.38286   0.2148    Fe
Fe     0.69364  0.61714   0.7148    Fe
C        0.709   0.4169  0.05581     C
C        0.709   0.5831  0.55581     C
C       0.7112   0.4174  0.01032     C
C       0.7112   0.5826  0.51032     C
O       0.7147  0.42258  0.14806     O
O       0.7147  0.57742  0.64806     O
C       0.7157   0.3251  0.94433     C
C       0.7157   0.6749  0.44433     C
O       0.7237    0.349   0.2804     O
O       0.7237    0.651   0.7804     O
H       0.7243   0.1797   0.5704     H
H       0.7243   0.8203   0.0704     H
C         0.75      0.5  0.07922     C
C         0.75      0.5  0.12909     C
H         0.75      0.5   0.4557     H
C         0.75      0.5  0.48654     C
C         0.75      0.5  0.57922     C
C         0.75      0.5  0.62909     C
H         0.75      0.5   0.9557     H
C         0.75      0.5  0.98654     C
H       0.7757   0.1797   0.0704     H
H       0.7757   0.8203   0.5704     H
O       0.7763    0.349   0.7804     O
O       0.7763    0.651   0.2804     O
C       0.7843   0.3251  0.44433     C
C       0.7843   0.6749  0.94433     C
O       0.7853  0.42258  0.64806     O
O       0.7853  0.57742  0.14806     O
C       0.7888   0.4174  0.51032     C
C       0.7888   0.5826  0.01032     C
C        0.791   0.4169  0.55581     C
C        0.791   0.5831  0.05581     C
Fe     0.80636  0.38286   0.7148    Fe
Fe     0.80636  0.61714   0.2148    Fe
C        0.808   0.3212  0.85683     C
C        0.808   0.6788  0.35683     C
N       0.8092   0.2511  0.19551     N
N       0.8092   0.7489  0.69551     N
H       0.8119   0.2728   0.1307     H
H       0.8119   0.7272   0.6307     H
H       0.8196   0.3615    0.571     H
H       0.8196   0.6385    0.071     H
O       0.8301   0.3327  0.48862     O
O       0.8301   0.6673  0.98862     O
C       0.8308     0.23  0.15378     C
C       0.8308     0.77  0.65378     C
C       0.8337   0.3494  0.36752     C
C       0.8337   0.6506  0.86752     C
H        0.836   0.1197   0.0022     H
H        0.836   0.8803   0.5022     H
H       0.8385   0.1609   0.2481     H
H       0.8385   0.8391   0.7481     H
C       0.8462   0.1693  0.21764     C
C       0.8462   0.8307  0.71764     C
C       0.8473   0.1317  0.06809     C
C       0.8473   0.8683  0.56809     C
C       0.8548   0.2939  0.93446     C
C       0.8548   0.7061  0.43446     C
C       0.8667   0.3261  0.81004     C
C       0.8667   0.6739  0.31004     C
C        0.882   0.0945  0.02725     C
C        0.882   0.9055  0.52725     C
C       0.8822   0.3515  0.41115     C
C       0.8822   0.6485  0.91115     C
N       0.8826   0.1408  0.14764     N
N       0.8826   0.8592  0.64764     N
H       0.8844   0.0622   0.9418     H
H       0.8844   0.9378   0.4418     H
C       0.8958   0.1018  0.18881     C
C       0.8958   0.8982  0.68881     C
H       0.8985   0.3675    0.345     H
H       0.8985   0.6325    0.845     H
O       0.8991  0.47534  0.22818     O
O       0.8991  0.52466  0.72818     O
C       0.9016   0.2915  0.89088     C
C       0.9016   0.7085  0.39088     C
C       0.9166   0.0988  0.10527     C
C       0.9166   0.9012  0.60527     C
H       0.9183   0.2742    0.957     H
H       0.9183   0.7258    0.457     H
H       0.9319   0.0408   0.1958     H
H       0.9319   0.9592   0.6958     H
H       0.9412   0.0008   0.8732     H
H       0.9412   0.9992   0.3732     H
C        0.953   0.0123  0.93987     C
C        0.953   0.9877  0.43987     C
H       0.9785   0.3702    0.418     H
H       0.9785   0.6298    0.918     H
C        0.984   0.0206  0.02239     C
C        0.984   0.9794  0.52239     C
C       0.9858   0.0248  0.39836     C
C       0.9858   0.9752  0.89836     C
H       0.9967   0.2699   0.8842     H
H       0.9967   0.7301   0.3842     H
O       0.9994   0.3078  0.69619     O
O       0.9994   0.6922  0.19619     O
