data_I
_chemical_name_common  '/home/zhangsd/repos/MofS-CGCNN/ML/data/TSD/clean_cifs/DOKHUH_clean'
_cell_length_a 14.50000
_cell_length_b 18.57700
_cell_length_c 15.39400
_cell_angle_alpha 90.00000
_cell_angle_beta  103.97000
_cell_angle_gamma 90.00000
_space_group_name_H-M_alt      'P 1'


loop_
_space_group_symop_operation_xyz
  'x, y, z' 

loop_
_atom_site_label
_atom_site_fract_x
_atom_site_fract_y
_atom_site_fract_z
_atom_site_type_symbol
H       0.0057   0.4498   0.1936     H
H       0.0057   0.5502   0.6936     H
N       0.0146   0.0976   0.8244     N
N       0.0146   0.9024   0.3244     N
N       0.0149   0.3945   0.6052     N
N       0.0149   0.6055   0.1052     N
H       0.0212   0.0747   0.3339     H
H       0.0212   0.9253   0.8339     H
H       0.0262   0.4332   0.9675     H
H       0.0262   0.5668   0.4675     H
O       0.0282   0.2649   0.0342     O
O       0.0282   0.7351   0.5342     O
C       0.0414   0.4508   0.6602     C
C       0.0414   0.5492   0.1602     C
H        0.043   0.4104   0.8745     H
H        0.043   0.5896   0.3745     H
O       0.0446   0.2617   0.8944     O
O       0.0446   0.7383   0.3944     O
C       0.0452   0.0288   0.3293     C
C       0.0452   0.9712   0.8293     C
C        0.067   0.2817   0.9758     C
C        0.067   0.7183   0.4758     C
C       0.0703   0.4344   0.9299     C
C       0.0703   0.5656   0.4299     C
H        0.084   0.4835   0.9182     H
H        0.084   0.5165   0.4182     H
H       0.0997   0.4493   0.7019     H
H       0.0997   0.5507   0.2019     H
C       0.1073   0.1064    0.819     C
C       0.1073   0.8936    0.319     C
Cd     0.11146  0.29077  0.61651    Cd
Cd     0.11146  0.70923  0.11651    Cd
H       0.1138   0.1161   0.5907     H
H       0.1138   0.8839   0.0907     H
H       0.1294    0.153   0.8149     H
H       0.1294    0.847   0.3149     H
H         0.13    0.154   0.3846     H
H         0.13    0.846   0.8846     H
C       0.1397   0.0206   0.3242     C
C       0.1397   0.9794   0.8242     C
C        0.161   0.3968   0.9766     C
C        0.161   0.6032   0.4766     C
C       0.1613   0.3247   0.0016     C
C       0.1613   0.6753   0.5016     C
C       0.1696   0.0496   0.8194     C
C       0.1696   0.9504   0.3194     C
H       0.1765   0.1945   0.0516     H
H       0.1765   0.8055   0.5516     H
C       0.1781   0.1239    0.595     C
C       0.1781   0.8761    0.095     C
C       0.1833   0.1494   0.3614     C
C       0.1833   0.8506   0.8614     C
C        0.201   0.0832   0.3269     C
C        0.201   0.9168   0.8269     C
H       0.2105   0.0193   0.5848     H
H       0.2105   0.9807   0.0848     H
N       0.2116   0.1918   0.6048     N
N       0.2116   0.8082   0.1048     N
H       0.2244   0.2508   0.3862     H
H       0.2244   0.7492   0.8862     H
H       0.2318   0.0589   0.8164     H
H       0.2318   0.9411   0.3164     H
C       0.2361   0.0655   0.5911     C
C       0.2361   0.9345   0.0911     C
C       0.2397   0.2075   0.3628     C
C       0.2397   0.7925   0.8628     C
C       0.2409   0.2106   0.0726     C
C       0.2409   0.7894   0.5726     C
C       0.2476    0.434   0.9968     C
C       0.2476    0.566   0.4968     C
C       0.2482   0.2902   0.0475     C
C       0.2482   0.7098   0.5475     C
O       0.2522   0.4363   0.5034     O
O       0.2522   0.5637   0.0034     O
C       0.2548   0.4919   0.4578     C
C       0.2548   0.5081   0.9578     C
H       0.2602   0.2054   0.1365     H
H       0.2602   0.7946   0.6365     H
O       0.2619   0.4894   0.3794     O
O       0.2619   0.5106   0.8794     O
H       0.2817   0.1821   0.0455     H
H       0.2817   0.8179   0.5455     H
C       0.2875   0.0788   0.2941     C
C       0.2875   0.9212   0.7941     C
C       0.3039   0.2004   0.6062     C
C       0.3039   0.7996   0.1062     C
H       0.3063   0.0362   0.2716     H
H       0.3063   0.9638   0.7716     H
H       0.3145   0.0459   0.9971     H
H       0.3145   0.9541   0.4971     H
N        0.323   0.2028   0.3285     N
N        0.323   0.7972   0.8285     N
H       0.3287   0.2468   0.6097     H
H       0.3287   0.7532   0.1097     H
C         0.33   0.0751   0.5964     C
C         0.33   0.9249   0.0964     C
C       0.3312    0.329   0.0686     C
C       0.3312    0.671   0.5686     C
C       0.3332   0.4009   0.0447     C
C       0.3332   0.5991   0.5447     C
C       0.3379   0.1393   0.2984     C
C       0.3379   0.8607   0.7984     C
C       0.3616   0.1447   0.6027     C
C       0.3616   0.8553   0.1027     C
C        0.372   0.0451     0.04     C
C        0.372   0.9549     0.54     C
H       0.3922   0.1357   0.2765     H
H       0.3922   0.8643   0.7765     H
C       0.3938   0.0131   0.5974     C
C       0.3938   0.9869   0.0974     C
Cd     0.41301    0.306  0.32715    Cd
Cd     0.41301    0.694  0.82715    Cd
H       0.4152   0.4925   0.0473     H
H       0.4152   0.5075   0.5473     H
H       0.4185   0.1402   0.0048     H
H       0.4185   0.8598   0.5048     H
H       0.4239   0.4774   0.3291     H
H       0.4239   0.5226   0.8291     H
H       0.4252   0.1536   0.6046     H
H       0.4252   0.8464   0.1046     H
C       0.4261   0.2909   0.1129     C
C       0.4261   0.7091   0.6129     C
C       0.4268    0.444   0.0687     C
C       0.4268    0.556   0.5687     C
C       0.4347   0.1025   0.0454     C
C       0.4347   0.8975   0.5454     C
O       0.4395   0.2704   0.1917     O
O       0.4395   0.7296   0.6917     O
H        0.451   0.4446   0.1325     H
H        0.451   0.5554   0.6325     H
H       0.4726   0.4219   0.0414     H
H       0.4726   0.5781   0.5414     H
O       0.4805   0.2784   0.0635     O
O       0.4805   0.7216   0.5635     O
C       0.4842   0.0111   0.6567     C
C       0.4842   0.9889   0.1567     C
C       0.4868   0.4692   0.3277     C
C       0.4868   0.5308   0.8277     C
H       0.5057   0.0502   0.6936     H
H       0.5057   0.9498   0.1936     H
N       0.5146   0.4024   0.3244     N
N       0.5146   0.5976   0.8244     N
N       0.5149   0.1055   0.1052     N
N       0.5149   0.8945   0.6052     N
H       0.5212   0.4253   0.8339     H
H       0.5212   0.5747   0.3339     H
H       0.5262   0.0668   0.4675     H
H       0.5262   0.9332   0.9675     H
O       0.5282   0.2351   0.5342     O
O       0.5282   0.7649   0.0342     O
C       0.5414   0.0492   0.1602     C
C       0.5414   0.9508   0.6602     C
H        0.543   0.0896   0.3745     H
H        0.543   0.9104   0.8745     H
O       0.5446   0.2383   0.3944     O
O       0.5446   0.7617   0.8944     O
C       0.5452   0.4712   0.8293     C
C       0.5452   0.5288   0.3293     C
C        0.567   0.2183   0.4758     C
C        0.567   0.7817   0.9758     C
C       0.5703   0.0656   0.4299     C
C       0.5703   0.9344   0.9299     C
H        0.584   0.0165   0.4182     H
H        0.584   0.9835   0.9182     H
H       0.5997   0.0507   0.2019     H
H       0.5997   0.9493   0.7019     H
C       0.6073   0.3936    0.319     C
C       0.6073   0.6064    0.819     C
Cd     0.61146  0.20923  0.11651    Cd
Cd     0.61146  0.79077  0.61651    Cd
H       0.6138   0.3839   0.0907     H
H       0.6138   0.6161   0.5907     H
H       0.6294    0.347   0.3149     H
H       0.6294    0.653   0.8149     H
H         0.63    0.346   0.8846     H
H         0.63    0.654   0.3846     H
C       0.6397   0.4794   0.8242     C
C       0.6397   0.5206   0.3242     C
C        0.661   0.1032   0.4766     C
C        0.661   0.8968   0.9766     C
C       0.6613   0.1753   0.5016     C
C       0.6613   0.8247   0.0016     C
C       0.6696   0.4504   0.3194     C
C       0.6696   0.5496   0.8194     C
H       0.6765   0.3055   0.5516     H
H       0.6765   0.6945   0.0516     H
C       0.6781   0.3761    0.095     C
C       0.6781   0.6239    0.595     C
C       0.6833   0.3506   0.8614     C
C       0.6833   0.6494   0.3614     C
C        0.701   0.4168   0.8269     C
C        0.701   0.5832   0.3269     C
H       0.7105   0.4807   0.0848     H
H       0.7105   0.5193   0.5848     H
N       0.7116   0.3082   0.1048     N
N       0.7116   0.6918   0.6048     N
H       0.7244   0.2492   0.8862     H
H       0.7244   0.7508   0.3862     H
H       0.7318   0.4411   0.3164     H
H       0.7318   0.5589   0.8164     H
C       0.7361   0.4345   0.0911     C
C       0.7361   0.5655   0.5911     C
C       0.7397   0.2925   0.8628     C
C       0.7397   0.7075   0.3628     C
C       0.7409   0.2894   0.5726     C
C       0.7409   0.7106   0.0726     C
C       0.7476    0.066   0.4968     C
C       0.7476    0.934   0.9968     C
C       0.7482   0.2098   0.5475     C
C       0.7482   0.7902   0.0475     C
O       0.7522   0.0637   0.0034     O
O       0.7522   0.9363   0.5034     O
C       0.7548   0.0081   0.9578     C
C       0.7548   0.9919   0.4578     C
H       0.7602   0.2946   0.6365     H
H       0.7602   0.7054   0.1365     H
O       0.7619   0.0106   0.8794     O
O       0.7619   0.9894   0.3794     O
H       0.7817   0.3179   0.5455     H
H       0.7817   0.6821   0.0455     H
C       0.7875   0.4212   0.7941     C
C       0.7875   0.5788   0.2941     C
C       0.8039   0.2996   0.1062     C
C       0.8039   0.7004   0.6062     C
H       0.8063   0.4638   0.7716     H
H       0.8063   0.5362   0.2716     H
H       0.8145   0.4541   0.4971     H
H       0.8145   0.5459   0.9971     H
N        0.823   0.2972   0.8285     N
N        0.823   0.7028   0.3285     N
H       0.8287   0.2532   0.1097     H
H       0.8287   0.7468   0.6097     H
C         0.83   0.4249   0.0964     C
C         0.83   0.5751   0.5964     C
C       0.8312    0.171   0.5686     C
C       0.8312    0.829   0.0686     C
C       0.8332   0.0991   0.5447     C
C       0.8332   0.9009   0.0447     C
C       0.8379   0.3607   0.7984     C
C       0.8379   0.6393   0.2984     C
C       0.8616   0.3553   0.1027     C
C       0.8616   0.6447   0.6027     C
C        0.872   0.4549     0.54     C
C        0.872   0.5451     0.04     C
H       0.8922   0.3643   0.7765     H
H       0.8922   0.6357   0.2765     H
C       0.8938   0.4869   0.0974     C
C       0.8938   0.5131   0.5974     C
Cd     0.91301    0.194  0.82715    Cd
Cd     0.91301    0.806  0.32715    Cd
H       0.9152   0.0075   0.5473     H
H       0.9152   0.9925   0.0473     H
H       0.9185   0.3598   0.5048     H
H       0.9185   0.6402   0.0048     H
H       0.9239   0.0226   0.8291     H
H       0.9239   0.9774   0.3291     H
H       0.9252   0.3464   0.1046     H
H       0.9252   0.6536   0.6046     H
C       0.9261   0.2091   0.6129     C
C       0.9261   0.7909   0.1129     C
C       0.9268    0.056   0.5687     C
C       0.9268    0.944   0.0687     C
C       0.9347   0.3975   0.5454     C
C       0.9347   0.6025   0.0454     C
O       0.9395   0.2296   0.6917     O
O       0.9395   0.7704   0.1917     O
H        0.951   0.0554   0.6325     H
H        0.951   0.9446   0.1325     H
H       0.9726   0.0781   0.5414     H
H       0.9726   0.9219   0.0414     H
O       0.9805   0.2216   0.5635     O
O       0.9805   0.7784   0.0635     O
C       0.9842   0.4889   0.1567     C
C       0.9842   0.5111   0.6567     C
C       0.9868   0.0308   0.8277     C
C       0.9868   0.9692   0.3277     C
