data_I
_chemical_name_common  '/home/zhangsd/repos/MofS-CGCNN/ML/data/TSD/clean_cifs/DOLPIF_clean'
_cell_length_a 11.04600
_cell_length_b 11.63300
_cell_length_c 16.24600
_cell_angle_alpha 78.69000
_cell_angle_beta  73.81000
_cell_angle_gamma 88.58000
_space_group_name_H-M_alt      'P 1'


loop_
_space_group_symop_operation_xyz
  'x, y, z' 

loop_
_atom_site_label
_atom_site_fract_x
_atom_site_fract_y
_atom_site_fract_z
_atom_site_type_symbol
H       0.0161     0.27   0.2643     H
O        0.024   0.8636   0.0667     O
C       0.0306   0.4583   0.7212     C
C       0.0331   0.3451   0.2709     C
C       0.0583   0.5697    0.728     C
Eu     0.06566  0.06192  0.80583    Eu
H        0.075   0.9743   0.5232     H
O       0.0777   0.9038   0.9226     O
C       0.0879   0.8475   0.9933     C
C        0.088   0.5703    0.285     C
O       0.0965   0.2607   0.7348     O
O       0.0968   0.0438   0.6539     O
H       0.1077   0.6465   0.2877     H
O       0.1117   0.0655   0.1855     O
C       0.1313   0.3674   0.7186     C
H        0.133   0.8855   0.4036     H
C       0.1336   0.9153   0.5214     C
H       0.1377   0.5884   0.7318     H
O       0.1422   0.8771   0.2179     O
C       0.1473   0.3728   0.2795     C
C       0.1531   0.9478   0.6639     C
C       0.1682   0.8621   0.4497     C
C       0.1764   0.4837   0.2869     C
C       0.1779   0.9807   0.2057     C
O       0.1783   0.9056   0.7341     O
C        0.179   0.7494   0.9909     C
H       0.1796    0.729   0.1169     H
C       0.1853   0.8817   0.5907     C
H        0.207   0.7389   0.8645     H
H       0.2071   0.3152   0.2804     H
C       0.2142   0.7014   0.0656     C
C       0.2284   0.7058   0.9153     C
O        0.242    0.403   0.6967     O
C       0.2544   0.7746   0.4461     C
C       0.2712   0.7917   0.5882     C
O       0.2731   0.1067   0.8035     O
H       0.2764   0.7382   0.3981     H
H       0.2797   0.1804   0.2082     H
C       0.3006   0.6125   0.0648     C
H       0.3032   0.7659   0.6356     H
C       0.3042   0.5104   0.2974     C
C       0.3063    0.008   0.2136     C
C       0.3092   0.7404   0.5148     C
C       0.3101   0.6126   0.9151     C
H       0.3274   0.5834   0.1142     H
C       0.3397   0.1231   0.2094     C
O         0.34   0.6049    0.765     O
O        0.342   0.6142   0.2862     O
C       0.3463    0.568   0.9892     C
C       0.3587   0.5586   0.8363     C
H       0.3673   0.9132   0.7909     H
H       0.3705   0.8431   0.2257     H
O       0.3706   0.4255   0.3177     O
C       0.3845   0.1415   0.7819     C
C        0.394   0.9211   0.2198     C
H       0.4023    0.507   0.9886     H
C       0.4093   0.6499   0.5085     C
O       0.4158   0.4624   0.8447     O
O       0.4209   0.2463   0.7622     O
O       0.4355   0.6032   0.5761     O
C       0.4493   0.9326   0.7892     C
Eu     0.45074  0.44702  0.69042    Eu
C       0.4622   0.1554   0.2071     C
O       0.4648   0.6323   0.4342     O
C       0.4842   0.0498   0.7828     C
H       0.4842   0.2333   0.2031     H
H       0.5158   0.7667   0.7969     H
C       0.5158   0.9502   0.2172     C
O       0.5352   0.3677   0.5658     O
C       0.5378   0.8446   0.7929     C
Eu     0.54926  0.55298  0.30958    Eu
C       0.5507   0.0674   0.2108     C
O       0.5645   0.3968   0.4239     O
O       0.5791   0.7537   0.2378     O
O       0.5842   0.5376   0.1553     O
C       0.5907   0.3501   0.4915     C
H       0.5977    0.493   0.0114     H
C        0.606   0.0789   0.7802     C
C       0.6155   0.8585   0.2181     C
O       0.6294   0.5745   0.6823     O
H       0.6295   0.1569   0.7743     H
H       0.6327   0.0868   0.2091     H
C       0.6413   0.4414   0.1637     C
C       0.6537    0.432   0.0108     C
O        0.658   0.3858   0.7138     O
O         0.66   0.3951    0.235     O
C       0.6603   0.8769   0.7906     C
H       0.6726   0.4166   0.8858     H
C       0.6899   0.3874   0.0849     C
C       0.6908   0.2596   0.4852     C
C       0.6937    0.992   0.7864     C
C       0.6958   0.4896   0.7026     C
H       0.6968   0.2341   0.3644     H
C       0.6994   0.3875   0.9352     C
H       0.7203   0.8196   0.7918     H
H       0.7236   0.2618   0.6019     H
O       0.7269   0.8933   0.1965     O
C       0.7288   0.2083   0.4118     C
C       0.7456   0.2254   0.5539     C
O        0.758    0.597   0.3033     O
C       0.7716   0.2942   0.0847     C
C       0.7858   0.2986   0.9344     C
H       0.7929   0.6848   0.7196     H
H        0.793   0.2611   0.1355     H
C       0.8147   0.1183   0.4093     C
H       0.8204    0.271   0.8831     H
C        0.821   0.2506   0.0091     C
O       0.8217   0.0944   0.2659     O
C       0.8221   0.0193   0.7943     C
C       0.8236   0.5163   0.7131     C
C       0.8318   0.1379   0.5503     C
C       0.8469   0.0522   0.3361     C
C       0.8527   0.6272   0.7205     C
O       0.8578   0.1229   0.7821     O
H       0.8623   0.4116   0.2682     H
C       0.8664   0.0847   0.4786     C
H        0.867   0.1145   0.5964     H
C       0.8687   0.6326   0.2814     C
O       0.8883   0.9345   0.8145     O
H       0.8923   0.3535   0.7123     H
O       0.9032   0.9562   0.3461     O
O       0.9035   0.7393   0.2652     O
C        0.912   0.4297    0.715     C
C       0.9121   0.1525   0.0067     C
O       0.9223   0.0962   0.0774     O
H        0.925   0.0257   0.4768     H
Eu     0.93434  0.93808  0.19417    Eu
C       0.9417   0.4303    0.272     C
C       0.9669   0.6549   0.7291     C
C       0.9694   0.5417   0.2788     C
O        0.976   0.1364   0.9333     O
H       0.9839     0.73   0.7357     H
