data_I
_chemical_name_common  '/home/zhangsd/repos/MofS-CGCNN/ML/data/TSD/clean_cifs/DONNEA_clean'
_cell_length_a  6.72610
_cell_length_b 11.04550
_cell_length_c 11.04550
_cell_angle_alpha 119.89600
_cell_angle_beta  105.95100
_cell_angle_gamma 74.04860
_space_group_name_H-M_alt      'P 1'


loop_
_space_group_symop_operation_xyz
  'x, y, z' 

loop_
_atom_site_label
_atom_site_fract_x
_atom_site_fract_y
_atom_site_fract_z
_atom_site_type_symbol
Ga         0.0      0.0      0.0    Ga
O       0.0318   0.1959   0.0533     O
C       0.0772    0.376   0.0134     C
C       0.1292   0.5584   0.9732     C
O       0.1548   0.0113   0.1867     O
C       0.1574   0.2418   0.0268     C
H       0.1577   0.9764   0.3916     H
C       0.2041   0.4352   0.9862     C
H       0.2172   0.5976   0.9556     H
H         0.25   0.8484   0.8484     H
O         0.25   0.9215   0.9215     O
H       0.2828   0.9556   0.5976     H
C       0.2959   0.9862   0.4352     C
H       0.3423   0.3916   0.9764     H
C       0.3426   0.0268   0.2418     C
O       0.3452   0.1867   0.0113     O
C       0.3708   0.9732   0.5584     C
C       0.4228   0.0134    0.376     C
O       0.4682   0.0533   0.1959     O
Ga         0.5     -0.0      0.0    Ga
O       0.5318   0.9467   0.8041     O
C       0.5772   0.9866    0.624     C
C       0.6292   0.0268   0.4416     C
O       0.6548   0.8133   0.9887     O
C       0.6574   0.9732   0.7582     C
H       0.6577   0.6084   0.0236     H
C       0.7041   0.0138   0.5648     C
H       0.7172   0.0444   0.4024     H
O         0.75   0.0785   0.0785     O
H         0.75   0.1516   0.1516     H
H       0.7828   0.4024   0.0444     H
C       0.7959   0.5648   0.0138     C
H       0.8423   0.0236   0.6084     H
C       0.8426   0.7582   0.9732     C
O       0.8452   0.9887   0.8133     O
C       0.8708   0.4416   0.0268     C
C       0.9228    0.624   0.9866     C
O       0.9682   0.8041   0.9467     O
