data_I
_chemical_name_common  '/home/zhangsd/repos/MofS-CGCNN/ML/data/TSD/clean_cifs/DONNAW_clean'
_cell_length_a 17.52500
_cell_length_b  6.72160
_cell_length_c 11.89300
_cell_angle_alpha 90.00000
_cell_angle_beta  90.00000
_cell_angle_gamma 90.00000
_space_group_name_H-M_alt      'P 1'


loop_
_space_group_symop_operation_xyz
  'x, y, z' 

loop_
_atom_site_label
_atom_site_fract_x
_atom_site_fract_y
_atom_site_fract_z
_atom_site_type_symbol
Ga         0.0      0.0      0.5    Ga
Ga         0.0      0.5      0.5    Ga
O      0.00606     0.75   0.5732     O
O      0.07335   0.5823   0.3834     O
O      0.07335   0.9177   0.3834     O
O      0.08859   0.0821   0.5904     O
O      0.08859   0.4179   0.5904     O
C          0.1     0.75   0.3573     C
C       0.1165     0.25   0.6133     C
C       0.1721     0.75   0.2893     C
H       0.1828   0.0487   0.2793     H
H       0.1828   0.4513   0.2793     H
C       0.1915     0.25   0.6731     C
H       0.2028   0.5486   0.6821     H
H       0.2028   0.9514   0.6821     H
C        0.206    0.571   0.2599     C
C        0.206    0.929   0.2599     C
C       0.2258   0.0711   0.7019     C
C       0.2258   0.4289   0.7019     C
C       0.2742   0.5711   0.2019     C
C       0.2742   0.9289   0.2019     C
C        0.294    0.071   0.7599     C
C        0.294    0.429   0.7599     C
H       0.2972   0.0486   0.1821     H
H       0.2972   0.4514   0.1821     H
C       0.3085     0.75   0.1731     C
H       0.3172   0.5487   0.7793     H
H       0.3172   0.9513   0.7793     H
C       0.3279     0.25   0.7893     C
C       0.3835     0.75   0.1133     C
C          0.4     0.25   0.8573     C
O      0.41141   0.5821   0.0904     O
O      0.41141   0.9179   0.0904     O
O      0.42665   0.0823   0.8834     O
O      0.42665   0.4177   0.8834     O
O      0.49394     0.25   0.0732     O
Ga         0.5      0.0      0.0    Ga
Ga         0.5      0.5      0.0    Ga
O      0.50606     0.75   0.9268     O
O      0.57335   0.5823   0.1166     O
O      0.57335   0.9177   0.1166     O
O      0.58859   0.0821   0.9096     O
O      0.58859   0.4179   0.9096     O
C          0.6     0.75   0.1427     C
C       0.6165     0.25   0.8867     C
C       0.6721     0.75   0.2107     C
H       0.6828   0.0487   0.2207     H
H       0.6828   0.4513   0.2207     H
C       0.6915     0.25   0.8269     C
H       0.7028   0.5486   0.8179     H
H       0.7028   0.9514   0.8179     H
C        0.706    0.571   0.2401     C
C        0.706    0.929   0.2401     C
C       0.7258   0.0711   0.7981     C
C       0.7258   0.4289   0.7981     C
C       0.7742   0.5711   0.2981     C
C       0.7742   0.9289   0.2981     C
C        0.794    0.071   0.7401     C
C        0.794    0.429   0.7401     C
H       0.7972   0.0486   0.3179     H
H       0.7972   0.4514   0.3179     H
C       0.8085     0.75   0.3269     C
H       0.8172   0.5487   0.7207     H
H       0.8172   0.9513   0.7207     H
C       0.8279     0.25   0.7107     C
C       0.8835     0.75   0.3867     C
C          0.9     0.25   0.6427     C
O      0.91141   0.5821   0.4096     O
O      0.91141   0.9179   0.4096     O
O      0.92665   0.0823   0.6166     O
O      0.92665   0.4177   0.6166     O
O      0.99394     0.25   0.4268     O
