data_I
_chemical_name_common  '/home/zhangsd/repos/MofS-CGCNN/ML/data/TSD/clean_cifs/DOPHOH_clean'
_cell_length_a 34.17200
_cell_length_b 34.17200
_cell_length_c 34.17200
_cell_angle_alpha 90.00000
_cell_angle_beta  90.00000
_cell_angle_gamma 90.00000
_space_group_name_H-M_alt      'P 1'


loop_
_space_group_symop_operation_xyz
  'x, y, z' 

loop_
_atom_site_label
_atom_site_fract_x
_atom_site_fract_y
_atom_site_fract_z
_atom_site_type_symbol
Cu         0.0      0.0  0.21095    Cu
Cu         0.0      0.0   0.2892    Cu
Cu         0.0      0.0   0.7108    Cu
Cu         0.0      0.0  0.78905    Cu
Cu         0.0   0.2108      0.5    Cu
Cu         0.0  0.21095      0.0    Cu
Cu         0.0  0.28905      0.5    Cu
Cu         0.0   0.2892      0.0    Cu
Cu         0.0      0.5   0.2108    Cu
Cu         0.0      0.5  0.28905    Cu
Cu         0.0      0.5  0.71095    Cu
Cu         0.0      0.5   0.7892    Cu
Cu         0.0   0.7108      0.0    Cu
Cu         0.0  0.71095      0.5    Cu
Cu         0.0  0.78905      0.0    Cu
Cu         0.0   0.7892      0.5    Cu
C       0.0028   0.0735   0.2546     C
C       0.0028   0.4265   0.2454     C
C       0.0028   0.5735   0.7546     C
C       0.0028   0.9265   0.7454     C
C        0.003   0.2455   0.0736     C
C        0.003   0.2545   0.4264     C
C        0.003   0.7455   0.5736     C
C        0.003   0.7545   0.9264     C
O       0.0073    0.223   0.5579     O
C       0.0073   0.2245   0.3186     C
C       0.0073   0.2755   0.1814     C
O       0.0073    0.277   0.9421     O
O       0.0073    0.723   0.0579     O
C       0.0073   0.7245   0.8186     C
C       0.0073   0.7755   0.6814     C
O       0.0073    0.777   0.4421     O
C       0.0074    0.181   0.2245     C
C       0.0074    0.319   0.2755     C
C       0.0074    0.681   0.7245     C
C       0.0074    0.819   0.7755     C
O       0.0075    0.058    0.777     O
O       0.0075    0.442    0.723     O
O       0.0075    0.558    0.277     O
O       0.0075    0.942    0.223     O
C       0.0079   0.2434   0.1173     C
C       0.0079   0.2566   0.3827     C
C       0.0079   0.7434   0.6173     C
C       0.0079   0.7566   0.8827     C
C        0.008    0.137   0.2165     C
C        0.008   0.2167   0.3625     C
C        0.008   0.2833   0.1375     C
C        0.008    0.363   0.2835     C
C        0.008    0.637   0.7165     C
C        0.008   0.7167   0.8625     C
C        0.008   0.7833   0.6375     C
C        0.008    0.863   0.7835     C
C       0.0082   0.1172   0.2568     C
C       0.0082   0.3828   0.2432     C
C       0.0082   0.6172   0.7568     C
C       0.0082   0.8828   0.7432     C
O       0.0088   0.2136   0.0556     O
O       0.0088   0.2864   0.4444     O
O       0.0088   0.7136   0.5556     O
O       0.0088   0.7864   0.9444     O
O       0.0089    0.056   0.2864     O
O       0.0089    0.444   0.2136     O
O       0.0089    0.556   0.7864     O
O       0.0089    0.944   0.7136     O
H       0.0123    0.227   0.8718     H
H       0.0123    0.273   0.6282     H
H       0.0123    0.727   0.3718     H
H       0.0123    0.773   0.1282     H
H       0.0125   0.1284   0.7274     H
H       0.0125   0.3716   0.7726     H
H       0.0125   0.6284   0.2274     H
H       0.0125   0.8716   0.2726     H
O       0.0126   0.1379   0.3542     O
O       0.0126   0.3621   0.1458     O
O       0.0126   0.6379   0.8542     O
O       0.0126   0.8621   0.6458     O
O       0.0128   0.1463   0.1378     O
O       0.0128   0.3537   0.3622     O
O       0.0128   0.6463   0.6378     O
O       0.0128   0.8537   0.8622     O
H       0.0155   0.2023   0.6302     H
H       0.0155   0.2977   0.8698     H
H       0.0155   0.7023   0.1302     H
H       0.0155   0.7977   0.3698     H
H       0.0159   0.1296   0.7976     H
H       0.0159   0.3704   0.7024     H
H       0.0159   0.6296   0.2976     H
H       0.0159   0.8704   0.2024     H
O       0.0251   0.2338   0.6953     O
O       0.0251   0.2662   0.8047     O
O       0.0251   0.7338   0.1953     O
O       0.0251   0.7662   0.3047     O
O       0.0259    0.195   0.7661     O
O       0.0259    0.305   0.7339     O
O       0.0259    0.695   0.2661     O
O       0.0259    0.805   0.2339     O
Cu     0.03162     0.25     0.75    Cu
Cu     0.03162     0.75     0.25    Cu
H       0.0329   0.1228   0.2696     H
H       0.0329   0.3772   0.2304     H
H       0.0329   0.6228   0.7696     H
H       0.0329   0.8772   0.7304     H
H       0.0331     0.23   0.1224     H
H       0.0331     0.27   0.3776     H
H       0.0331     0.73   0.6224     H
H       0.0331     0.77   0.8776     H
O       0.0393   0.2242   0.3007     O
O       0.0393   0.2758   0.1993     O
O       0.0393   0.7242   0.8007     O
O       0.0393   0.7758   0.6993     O
O       0.0395  0.19921   0.2242     O
O       0.0395  0.30079   0.2758     O
O       0.0395  0.69921   0.7242     O
O       0.0395  0.80079   0.7758     O
N       0.0415   0.1938   0.3745     N
N       0.0415   0.3062   0.1255     N
N       0.0415   0.6938   0.8745     N
N       0.0415   0.8062   0.6255     N
C       0.0417   0.1547   0.3685     C
C       0.0417   0.3453   0.1315     C
C       0.0417   0.6547   0.8685     C
C       0.0417   0.8453   0.6315     C
C       0.0419   0.1317   0.1547     C
C       0.0419   0.3683   0.3453     C
C       0.0419   0.6317   0.6547     C
C       0.0419   0.8683   0.8453     C
N        0.042   0.1254   0.1935     N
N        0.042   0.3746   0.3065     N
N        0.042   0.6254   0.6935     N
N        0.042   0.8746   0.8065     N
Cu     0.04527     0.25     0.25    Cu
Cu     0.04527     0.75     0.75    Cu
O       0.0556   0.0088   0.2136     O
O       0.0556   0.4912   0.2864     O
O       0.0556   0.5088   0.7136     O
O       0.0556   0.9912   0.7864     O
O        0.056   0.2136   0.4911     O
O        0.056   0.2864   0.0089     O
O        0.056   0.7136   0.9911     O
O        0.056   0.7864   0.5089     O
O       0.0579   0.0073    0.723     O
O       0.0579   0.4927    0.777     O
O       0.0579   0.5073    0.223     O
O       0.0579   0.9927    0.277     O
O        0.058    0.223   0.9925     O
O        0.058    0.277   0.5075     O
O        0.058    0.723   0.4925     O
O        0.058    0.777   0.0075     O
H       0.0619   0.1146   0.2046     H
H       0.0619   0.3854   0.2954     H
H       0.0619   0.6146   0.7046     H
H       0.0619   0.8854   0.7954     H
H       0.0623   0.2046    0.384     H
H       0.0623   0.2954    0.116     H
H       0.0623   0.7046    0.884     H
H       0.0623   0.7954    0.616     H
H       0.0723    0.093   0.3363     H
H       0.0723    0.407   0.1637     H
H       0.0723    0.593   0.8363     H
H       0.0723    0.907   0.6637     H
H       0.0726   0.1643   0.0931     H
H       0.0726   0.3357   0.4069     H
H       0.0726   0.6643   0.5931     H
H       0.0726   0.8357   0.9069     H
C       0.0735   0.2454   0.4972     C
C       0.0735   0.2546   0.0028     C
C       0.0735   0.7454   0.9972     C
C       0.0735   0.7546   0.5028     C
C       0.0736    0.003   0.2455     C
C       0.0736    0.497   0.2545     C
C       0.0736    0.503   0.7455     C
C       0.0736    0.997   0.7545     C
C       0.0773   0.1205   0.1323     C
C       0.0773   0.1328   0.3799     C
C       0.0773   0.3672   0.1201     C
C       0.0773   0.3795   0.3677     C
C       0.0773   0.6205   0.6323     C
C       0.0773   0.6328   0.8799     C
C       0.0773   0.8672   0.6201     C
C       0.0773   0.8795   0.8677     C
C       0.0875   0.0999   0.3577     C
C       0.0875   0.1426   0.0999     C
C       0.0875   0.3574   0.4001     C
C       0.0875   0.4001   0.1423     C
C       0.0875   0.5999   0.8577     C
C       0.0875   0.6426   0.5999     C
C       0.0875   0.8574   0.9001     C
C       0.0875   0.9001   0.6423     C
H        0.093   0.1637   0.4277     H
H        0.093   0.3363   0.0723     H
H        0.093   0.6637   0.9277     H
H        0.093   0.8363   0.5723     H
H       0.0931   0.0726   0.1643     H
H       0.0931   0.4274   0.3357     H
H       0.0931   0.5726   0.6643     H
H       0.0931   0.9274   0.8357     H
C       0.0999   0.0875   0.1426     C
C       0.0999   0.1423   0.4125     C
C       0.0999   0.3577   0.0875     C
C       0.0999   0.4125   0.3574     C
C       0.0999   0.5875   0.6426     C
C       0.0999   0.6423   0.9125     C
C       0.0999   0.8577   0.5875     C
C       0.0999   0.9125   0.8574     C
H       0.1146   0.2046   0.0619     H
H       0.1146   0.2954   0.4381     H
H       0.1146   0.7046   0.5619     H
H       0.1146   0.7954   0.9381     H
H        0.116   0.0623   0.2954     H
H        0.116   0.4377   0.2046     H
H        0.116   0.5623   0.7954     H
H        0.116   0.9377   0.7046     H
C       0.1172   0.2432   0.4918     C
C       0.1172   0.2568   0.0082     C
C       0.1172   0.7432   0.9918     C
C       0.1172   0.7568   0.5082     C
C       0.1173   0.0079   0.2434     C
C       0.1173   0.4921   0.2566     C
C       0.1173   0.5079   0.7434     C
C       0.1173   0.9921   0.7566     C
C       0.1201   0.0773   0.3672     C
C       0.1201   0.4227   0.1328     C
C       0.1201   0.5773   0.8672     C
C       0.1201   0.9227   0.6328     C
C       0.1205   0.1323   0.0773     C
C       0.1205   0.3677   0.4227     C
C       0.1205   0.6323   0.5773     C
C       0.1205   0.8677   0.9227     C
H       0.1224   0.0331     0.23     H
H       0.1224   0.4669     0.27     H
H       0.1224   0.5331     0.73     H
H       0.1224   0.9669     0.77     H
H       0.1228   0.2304   0.4671     H
H       0.1228   0.2696   0.0329     H
H       0.1228   0.7304   0.9671     H
H       0.1228   0.7696   0.5329     H
N       0.1254   0.1935    0.042     N
N       0.1254   0.3065    0.458     N
N       0.1254   0.6935    0.542     N
N       0.1254   0.8065    0.958     N
N       0.1255   0.0415   0.3062     N
N       0.1255   0.4585   0.1938     N
N       0.1255   0.5415   0.8062     N
N       0.1255   0.9585   0.6938     N
H       0.1282   0.0123    0.773     H
H       0.1282   0.4877    0.727     H
H       0.1282   0.5123    0.273     H
H       0.1282   0.9877    0.227     H
H       0.1284   0.2274   0.5125     H
H       0.1284   0.2726   0.9875     H
H       0.1284   0.7274   0.0125     H
H       0.1284   0.7726   0.4875     H
H       0.1296   0.2024   0.9841     H
H       0.1296   0.2976   0.5159     H
H       0.1296   0.7024   0.4841     H
H       0.1296   0.7976   0.0159     H
H       0.1302   0.0155   0.7023     H
H       0.1302   0.4845   0.7977     H
H       0.1302   0.5155   0.2023     H
H       0.1302   0.9845   0.2977     H
C       0.1315   0.0417   0.3453     C
C       0.1315   0.4583   0.1547     C
C       0.1315   0.5417   0.8453     C
C       0.1315   0.9583   0.6547     C
C       0.1317   0.1547   0.0419     C
C       0.1317   0.3453   0.4581     C
C       0.1317   0.6547   0.5419     C
C       0.1317   0.8453   0.9581     C
C       0.1323   0.0773   0.1205     C
C       0.1323   0.4227   0.3795     C
C       0.1323   0.5773   0.6205     C
C       0.1323   0.9227   0.8795     C
C       0.1328   0.1201   0.4227     C
C       0.1328   0.3799   0.0773     C
C       0.1328   0.6201   0.9227     C
C       0.1328   0.8799   0.5773     C
C        0.137   0.2165    0.008     C
C        0.137   0.2835    0.492     C
C        0.137   0.7165    0.508     C
C        0.137   0.7835    0.992     C
C       0.1375    0.008   0.2833     C
C       0.1375    0.492   0.2167     C
C       0.1375    0.508   0.7833     C
C       0.1375    0.992   0.7167     C
O       0.1378   0.0128   0.1463     O
O       0.1378   0.4872   0.3537     O
O       0.1378   0.5128   0.6463     O
O       0.1378   0.9872   0.8537     O
O       0.1379   0.1458   0.4874     O
O       0.1379   0.3542   0.0126     O
O       0.1379   0.6458   0.9874     O
O       0.1379   0.8542   0.5126     O
C       0.1423   0.0875   0.4001     C
C       0.1423   0.4125   0.0999     C
C       0.1423   0.5875   0.9001     C
C       0.1423   0.9125   0.5999     C
C       0.1426   0.0999   0.0875     C
C       0.1426   0.4001   0.4125     C
C       0.1426   0.5999   0.5875     C
C       0.1426   0.9001   0.9125     C
O       0.1458   0.0126   0.3621     O
O       0.1458   0.4874   0.1379     O
O       0.1458   0.5126   0.8621     O
O       0.1458   0.9874   0.6379     O
O       0.1463   0.1378   0.0128     O
O       0.1463   0.3622   0.4872     O
O       0.1463   0.6378   0.5128     O
O       0.1463   0.8622   0.9872     O
C       0.1547   0.0419   0.1317     C
C       0.1547   0.1315   0.4583     C
C       0.1547   0.3685   0.0417     C
C       0.1547   0.4581   0.3683     C
C       0.1547   0.5419   0.6317     C
C       0.1547   0.6315   0.9583     C
C       0.1547   0.8685   0.5417     C
C       0.1547   0.9581   0.8683     C
H       0.1637   0.0723    0.407     H
H       0.1637   0.4277    0.093     H
H       0.1637   0.5723    0.907     H
H       0.1637   0.9277    0.593     H
H       0.1643   0.0931   0.0726     H
H       0.1643   0.4069   0.4274     H
H       0.1643   0.5931   0.5726     H
H       0.1643   0.9069   0.9274     H
C        0.181   0.2245   0.0074     C
C        0.181   0.2755   0.4926     C
C        0.181   0.7245   0.5074     C
C        0.181   0.7755   0.9926     C
C       0.1814   0.0073   0.2755     C
C       0.1814   0.4927   0.2245     C
C       0.1814   0.5073   0.7755     C
C       0.1814   0.9927   0.7245     C
N       0.1935    0.042   0.1254     N
N       0.1935    0.458   0.3746     N
N       0.1935    0.542   0.6254     N
N       0.1935    0.958   0.8746     N
N       0.1938   0.1255   0.4585     N
N       0.1938   0.3745   0.0415     N
N       0.1938   0.6255   0.9585     N
N       0.1938   0.8745   0.5415     N
O        0.195   0.2339   0.9741     O
O        0.195   0.2661   0.5259     O
O        0.195   0.7339   0.4741     O
O        0.195   0.7661   0.0259     O
O       0.1953   0.0251   0.7338     O
O       0.1953   0.4749   0.7662     O
O       0.1953   0.5251   0.2338     O
O       0.1953   0.9749   0.2662     O
O      0.19921   0.2242   0.0395     O
O      0.19921   0.2758   0.4605     O
O      0.19921   0.7242   0.5395     O
O      0.19921   0.7758   0.9605     O
O       0.1993   0.0393   0.2758     O
O       0.1993   0.4607   0.2242     O
O       0.1993   0.5393   0.7758     O
O       0.1993   0.9607   0.7242     O
H       0.2023   0.1302   0.5155     H
H       0.2023   0.3698   0.9845     H
H       0.2023   0.6302   0.0155     H
H       0.2023   0.8698   0.4845     H
H       0.2024   0.0159   0.8704     H
H       0.2024   0.4841   0.6296     H
H       0.2024   0.5159   0.3704     H
H       0.2024   0.9841   0.1296     H
H       0.2046   0.0619   0.1146     H
H       0.2046    0.116   0.4377     H
H       0.2046    0.384   0.0623     H
H       0.2046   0.4381   0.3854     H
H       0.2046   0.5619   0.6146     H
H       0.2046    0.616   0.9377     H
H       0.2046    0.884   0.5623     H
H       0.2046   0.9381   0.8854     H
Cu      0.2108      0.0      0.5    Cu
Cu      0.2108      0.5      0.0    Cu
Cu     0.21095      0.0      0.0    Cu
Cu     0.21095      0.5      0.5    Cu
O       0.2136   0.0089    0.444     O
O       0.2136   0.0556   0.0088     O
O       0.2136   0.4444   0.4912     O
O       0.2136   0.4911    0.056     O
O       0.2136   0.5089    0.944     O
O       0.2136   0.5556   0.5088     O
O       0.2136   0.9444   0.9912     O
O       0.2136   0.9911    0.556     O
C       0.2165    0.008    0.137     C
C       0.2165    0.492    0.363     C
C       0.2165    0.508    0.637     C
C       0.2165    0.992    0.863     C
C       0.2167   0.1375    0.492     C
C       0.2167   0.3625    0.008     C
C       0.2167   0.6375    0.992     C
C       0.2167   0.8625    0.508     C
O        0.223   0.0075    0.942     O
O        0.223   0.0579   0.5073     O
O        0.223   0.4421   0.9927     O
O        0.223   0.4925    0.558     O
O        0.223   0.5075    0.442     O
O        0.223   0.5579   0.0073     O
O        0.223   0.9421   0.4927     O
O        0.223   0.9925    0.058     O
O       0.2242   0.0395  0.19921     O
O       0.2242   0.1993   0.4607     O
O       0.2242   0.3007   0.0393     O
O       0.2242   0.4605  0.30079     O
O       0.2242   0.5395  0.69921     O
O       0.2242   0.6993   0.9607     O
O       0.2242   0.8007   0.5393     O
O       0.2242   0.9605  0.80079     O
C       0.2245   0.0074    0.181     C
C       0.2245   0.1814   0.4927     C
C       0.2245   0.3186   0.0073     C
C       0.2245   0.4926    0.319     C
C       0.2245   0.5074    0.681     C
C       0.2245   0.6814   0.9927     C
C       0.2245   0.8186   0.5073     C
C       0.2245   0.9926    0.819     C
H        0.227   0.1282   0.9877     H
H        0.227   0.3718   0.5123     H
H        0.227   0.6282   0.4877     H
H        0.227   0.8718   0.0123     H
H       0.2274   0.0125   0.6284     H
H       0.2274   0.4875   0.8716     H
H       0.2274   0.5125   0.1284     H
H       0.2274   0.9875   0.3716     H
H         0.23   0.1224   0.0331     H
H         0.23   0.3776   0.4669     H
H         0.23   0.6224   0.5331     H
H         0.23   0.8776   0.9669     H
H       0.2304   0.0329   0.3772     H
H       0.2304   0.4671   0.1228     H
H       0.2304   0.5329   0.8772     H
H       0.2304   0.9671   0.6228     H
O       0.2338   0.1953   0.5251     O
O       0.2338   0.3047   0.9749     O
O       0.2338   0.6953   0.0251     O
O       0.2338   0.8047   0.4749     O
O       0.2339   0.0259    0.805     O
O       0.2339   0.4741    0.695     O
O       0.2339   0.5259    0.305     O
O       0.2339   0.9741    0.195     O
C       0.2432   0.0082   0.3828     C
C       0.2432   0.4918   0.1172     C
C       0.2432   0.5082   0.8828     C
C       0.2432   0.9918   0.6172     C
C       0.2434   0.1173   0.0079     C
C       0.2434   0.3827   0.4921     C
C       0.2434   0.6173   0.5079     C
C       0.2434   0.8827   0.9921     C
C       0.2454   0.0028   0.4265     C
C       0.2454   0.4972   0.0735     C
C       0.2454   0.5028   0.9265     C
C       0.2454   0.9972   0.5735     C
C       0.2455   0.0736    0.003     C
C       0.2455   0.4264    0.497     C
C       0.2455   0.5736    0.503     C
C       0.2455   0.9264    0.997     C
Cu        0.25  0.03162     0.75    Cu
Cu        0.25  0.04527     0.25    Cu
Cu        0.25     0.25  0.04527    Cu
Cu        0.25     0.25  0.45473    Cu
Cu        0.25     0.25  0.53162    Cu
Cu        0.25     0.25  0.96838    Cu
Cu        0.25  0.45473     0.25    Cu
Cu        0.25  0.46838     0.75    Cu
Cu        0.25  0.53162     0.25    Cu
Cu        0.25  0.54527     0.75    Cu
Cu        0.25     0.75  0.03162    Cu
Cu        0.25     0.75  0.46838    Cu
Cu        0.25     0.75  0.54527    Cu
Cu        0.25     0.75  0.95473    Cu
Cu        0.25  0.95473     0.75    Cu
Cu        0.25  0.96838     0.25    Cu
C       0.2545   0.0736    0.497     C
C       0.2545   0.4264    0.003     C
C       0.2545   0.5736    0.997     C
C       0.2545   0.9264    0.503     C
C       0.2546   0.0028   0.0735     C
C       0.2546   0.4972   0.4265     C
C       0.2546   0.5028   0.5735     C
C       0.2546   0.9972   0.9265     C
C       0.2566   0.1173   0.4921     C
C       0.2566   0.3827   0.0079     C
C       0.2566   0.6173   0.9921     C
C       0.2566   0.8827   0.5079     C
C       0.2568   0.0082   0.1172     C
C       0.2568   0.4918   0.3828     C
C       0.2568   0.5082   0.6172     C
C       0.2568   0.9918   0.8828     C
O       0.2661   0.0259    0.695     O
O       0.2661   0.4741    0.805     O
O       0.2661   0.5259    0.195     O
O       0.2661   0.9741    0.305     O
O       0.2662   0.1953   0.9749     O
O       0.2662   0.3047   0.5251     O
O       0.2662   0.6953   0.4749     O
O       0.2662   0.8047   0.0251     O
H       0.2696   0.0329   0.1228     H
H       0.2696   0.4671   0.3772     H
H       0.2696   0.5329   0.6228     H
H       0.2696   0.9671   0.8772     H
H         0.27   0.1224   0.4669     H
H         0.27   0.3776   0.0331     H
H         0.27   0.6224   0.9669     H
H         0.27   0.8776   0.5331     H
H       0.2726   0.0125   0.8716     H
H       0.2726   0.4875   0.6284     H
H       0.2726   0.5125   0.3716     H
H       0.2726   0.9875   0.1284     H
H        0.273   0.1282   0.5123     H
H        0.273   0.3718   0.9877     H
H        0.273   0.6282   0.0123     H
H        0.273   0.8718   0.4877     H
C       0.2755   0.0074    0.319     C
C       0.2755   0.1814   0.0073     C
C       0.2755   0.3186   0.4927     C
C       0.2755   0.4926    0.181     C
C       0.2755   0.5074    0.819     C
C       0.2755   0.6814   0.5073     C
C       0.2755   0.8186   0.9927     C
C       0.2755   0.9926    0.681     C
O       0.2758   0.0395  0.30079     O
O       0.2758   0.1993   0.0393     O
O       0.2758   0.3007   0.4607     O
O       0.2758   0.4605  0.19921     O
O       0.2758   0.5395  0.80079     O
O       0.2758   0.6993   0.5393     O
O       0.2758   0.8007   0.9607     O
O       0.2758   0.9605  0.69921     O
O        0.277   0.0075    0.558     O
O        0.277   0.0579   0.9927     O
O        0.277   0.4421   0.5073     O
O        0.277   0.4925    0.942     O
O        0.277   0.5075    0.058     O
O        0.277   0.5579   0.4927     O
O        0.277   0.9421   0.0073     O
O        0.277   0.9925    0.442     O
C       0.2833   0.1375    0.008     C
C       0.2833   0.3625    0.492     C
C       0.2833   0.6375    0.508     C
C       0.2833   0.8625    0.992     C
C       0.2835    0.008    0.363     C
C       0.2835    0.492    0.137     C
C       0.2835    0.508    0.863     C
C       0.2835    0.992    0.637     C
O       0.2864   0.0089    0.056     O
O       0.2864   0.0556   0.4912     O
O       0.2864   0.4444   0.0088     O
O       0.2864   0.4911    0.444     O
O       0.2864   0.5089    0.556     O
O       0.2864   0.5556   0.9912     O
O       0.2864   0.9444   0.5088     O
O       0.2864   0.9911    0.944     O
Cu     0.28905      0.0      0.5    Cu
Cu     0.28905      0.5      0.0    Cu
Cu      0.2892      0.0      0.0    Cu
Cu      0.2892      0.5      0.5    Cu
H       0.2954   0.0619   0.3854     H
H       0.2954    0.116   0.0623     H
H       0.2954    0.384   0.4377     H
H       0.2954   0.4381   0.1146     H
H       0.2954   0.5619   0.8854     H
H       0.2954    0.616   0.5623     H
H       0.2954    0.884   0.9377     H
H       0.2954   0.9381   0.6146     H
H       0.2976   0.0159   0.6296     H
H       0.2976   0.4841   0.8704     H
H       0.2976   0.5159   0.1296     H
H       0.2976   0.9841   0.3704     H
H       0.2977   0.1302   0.9845     H
H       0.2977   0.3698   0.5155     H
H       0.2977   0.6302   0.4845     H
H       0.2977   0.8698   0.0155     H
O       0.3007   0.0393   0.2242     O
O       0.3007   0.4607   0.2758     O
O       0.3007   0.5393   0.7242     O
O       0.3007   0.9607   0.7758     O
O      0.30079   0.2242   0.4605     O
O      0.30079   0.2758   0.0395     O
O      0.30079   0.7242   0.9605     O
O      0.30079   0.7758   0.5395     O
O       0.3047   0.0251   0.7662     O
O       0.3047   0.4749   0.7338     O
O       0.3047   0.5251   0.2662     O
O       0.3047   0.9749   0.2338     O
O        0.305   0.2339   0.5259     O
O        0.305   0.2661   0.9741     O
O        0.305   0.7339   0.0259     O
O        0.305   0.7661   0.4741     O
N       0.3062   0.1255   0.0415     N
N       0.3062   0.3745   0.4585     N
N       0.3062   0.6255   0.5415     N
N       0.3062   0.8745   0.9585     N
N       0.3065    0.042   0.3746     N
N       0.3065    0.458   0.1254     N
N       0.3065    0.542   0.8746     N
N       0.3065    0.958   0.6254     N
C       0.3186   0.0073   0.2245     C
C       0.3186   0.4927   0.2755     C
C       0.3186   0.5073   0.7245     C
C       0.3186   0.9927   0.7755     C
C        0.319   0.2245   0.4926     C
C        0.319   0.2755   0.0074     C
C        0.319   0.7245   0.9926     C
C        0.319   0.7755   0.5074     C
H       0.3357   0.0931   0.4274     H
H       0.3357   0.4069   0.0726     H
H       0.3357   0.5931   0.9274     H
H       0.3357   0.9069   0.5726     H
H       0.3363   0.0723    0.093     H
H       0.3363   0.4277    0.407     H
H       0.3363   0.5723    0.593     H
H       0.3363   0.9277    0.907     H
C       0.3453   0.0419   0.3683     C
C       0.3453   0.1315   0.0417     C
C       0.3453   0.3685   0.4583     C
C       0.3453   0.4581   0.1317     C
C       0.3453   0.5419   0.8683     C
C       0.3453   0.6315   0.5417     C
C       0.3453   0.8685   0.9583     C
C       0.3453   0.9581   0.6317     C
O       0.3537   0.1378   0.4872     O
O       0.3537   0.3622   0.0128     O
O       0.3537   0.6378   0.9872     O
O       0.3537   0.8622   0.5128     O
O       0.3542   0.0126   0.1379     O
O       0.3542   0.4874   0.3621     O
O       0.3542   0.5126   0.6379     O
O       0.3542   0.9874   0.8621     O
C       0.3574   0.0999   0.4125     C
C       0.3574   0.4001   0.0875     C
C       0.3574   0.5999   0.9125     C
C       0.3574   0.9001   0.5875     C
C       0.3577   0.0875   0.0999     C
C       0.3577   0.4125   0.4001     C
C       0.3577   0.5875   0.5999     C
C       0.3577   0.9125   0.9001     C
O       0.3621   0.1458   0.0126     O
O       0.3621   0.3542   0.4874     O
O       0.3621   0.6458   0.5126     O
O       0.3621   0.8542   0.9874     O
O       0.3622   0.0128   0.3537     O
O       0.3622   0.4872   0.1463     O
O       0.3622   0.5128   0.8537     O
O       0.3622   0.9872   0.6463     O
C       0.3625    0.008   0.2167     C
C       0.3625    0.492   0.2833     C
C       0.3625    0.508   0.7167     C
C       0.3625    0.992   0.7833     C
C        0.363   0.2165    0.492     C
C        0.363   0.2835    0.008     C
C        0.363   0.7165    0.992     C
C        0.363   0.7835    0.508     C
C       0.3672   0.1201   0.0773     C
C       0.3672   0.3799   0.4227     C
C       0.3672   0.6201   0.5773     C
C       0.3672   0.8799   0.9227     C
C       0.3677   0.0773   0.3795     C
C       0.3677   0.4227   0.1205     C
C       0.3677   0.5773   0.8795     C
C       0.3677   0.9227   0.6205     C
C       0.3683   0.1547   0.4581     C
C       0.3683   0.3453   0.0419     C
C       0.3683   0.6547   0.9581     C
C       0.3683   0.8453   0.5419     C
C       0.3685   0.0417   0.1547     C
C       0.3685   0.4583   0.3453     C
C       0.3685   0.5417   0.6547     C
C       0.3685   0.9583   0.8453     C
H       0.3698   0.0155   0.7977     H
H       0.3698   0.4845   0.7023     H
H       0.3698   0.5155   0.2977     H
H       0.3698   0.9845   0.2023     H
H       0.3704   0.2024   0.5159     H
H       0.3704   0.2976   0.9841     H
H       0.3704   0.7024   0.0159     H
H       0.3704   0.7976   0.4841     H
H       0.3716   0.2274   0.9875     H
H       0.3716   0.2726   0.5125     H
H       0.3716   0.7274   0.4875     H
H       0.3716   0.7726   0.0125     H
H       0.3718   0.0123    0.727     H
H       0.3718   0.4877    0.773     H
H       0.3718   0.5123    0.227     H
H       0.3718   0.9877    0.273     H
N       0.3745   0.0415   0.1938     N
N       0.3745   0.4585   0.3062     N
N       0.3745   0.5415   0.6938     N
N       0.3745   0.9585   0.8062     N
N       0.3746   0.1935    0.458     N
N       0.3746   0.3065    0.042     N
N       0.3746   0.6935    0.958     N
N       0.3746   0.8065    0.542     N
H       0.3772   0.2304   0.0329     H
H       0.3772   0.2696   0.4671     H
H       0.3772   0.7304   0.5329     H
H       0.3772   0.7696   0.9671     H
H       0.3776   0.0331     0.27     H
H       0.3776   0.4669     0.23     H
H       0.3776   0.5331     0.77     H
H       0.3776   0.9669     0.73     H
C       0.3795   0.1323   0.4227     C
C       0.3795   0.3677   0.0773     C
C       0.3795   0.6323   0.9227     C
C       0.3795   0.8677   0.5773     C
C       0.3799   0.0773   0.1328     C
C       0.3799   0.4227   0.3672     C
C       0.3799   0.5773   0.6328     C
C       0.3799   0.9227   0.8672     C
C       0.3827   0.0079   0.2566     C
C       0.3827   0.4921   0.2434     C
C       0.3827   0.5079   0.7566     C
C       0.3827   0.9921   0.7434     C
C       0.3828   0.2432   0.0082     C
C       0.3828   0.2568   0.4918     C
C       0.3828   0.7432   0.5082     C
C       0.3828   0.7568   0.9918     C
H        0.384   0.0623   0.2046     H
H        0.384   0.4377   0.2954     H
H        0.384   0.5623   0.7046     H
H        0.384   0.9377   0.7954     H
H       0.3854   0.2046   0.4381     H
H       0.3854   0.2954   0.0619     H
H       0.3854   0.7046   0.9381     H
H       0.3854   0.7954   0.5619     H
C       0.4001   0.0875   0.3574     C
C       0.4001   0.1423   0.0875     C
C       0.4001   0.3577   0.4125     C
C       0.4001   0.4125   0.1426     C
C       0.4001   0.5875   0.8574     C
C       0.4001   0.6423   0.5875     C
C       0.4001   0.8577   0.9125     C
C       0.4001   0.9125   0.6426     C
H       0.4069   0.0726   0.3357     H
H       0.4069   0.4274   0.1643     H
H       0.4069   0.5726   0.8357     H
H       0.4069   0.9274   0.6643     H
H        0.407   0.1637   0.0723     H
H        0.407   0.3363   0.4277     H
H        0.407   0.6637   0.5723     H
H        0.407   0.8363   0.9277     H
C       0.4125   0.0999   0.1423     C
C       0.4125   0.1426   0.4001     C
C       0.4125   0.3574   0.0999     C
C       0.4125   0.4001   0.3577     C
C       0.4125   0.5999   0.6423     C
C       0.4125   0.6426   0.9001     C
C       0.4125   0.8574   0.5999     C
C       0.4125   0.9001   0.8577     C
C       0.4227   0.1205   0.3677     C
C       0.4227   0.1328   0.1201     C
C       0.4227   0.3672   0.3799     C
C       0.4227   0.3795   0.1323     C
C       0.4227   0.6205   0.8677     C
C       0.4227   0.6328   0.6201     C
C       0.4227   0.8672   0.8799     C
C       0.4227   0.8795   0.6323     C
C       0.4264    0.003   0.2545     C
C       0.4264    0.497   0.2455     C
C       0.4264    0.503   0.7545     C
C       0.4264    0.997   0.7455     C
C       0.4265   0.2454   0.0028     C
C       0.4265   0.2546   0.4972     C
C       0.4265   0.7454   0.5028     C
C       0.4265   0.7546   0.9972     C
H       0.4274   0.1643   0.4069     H
H       0.4274   0.3357   0.0931     H
H       0.4274   0.6643   0.9069     H
H       0.4274   0.8357   0.5931     H
H       0.4277    0.093   0.1637     H
H       0.4277    0.407   0.3363     H
H       0.4277    0.593   0.6637     H
H       0.4277    0.907   0.8363     H
H       0.4377   0.2046    0.116     H
H       0.4377   0.2954    0.384     H
H       0.4377   0.7046    0.616     H
H       0.4377   0.7954    0.884     H
H       0.4381   0.1146   0.2954     H
H       0.4381   0.3854   0.2046     H
H       0.4381   0.6146   0.7954     H
H       0.4381   0.8854   0.7046     H
O        0.442    0.223   0.5075     O
O        0.442    0.277   0.9925     O
O        0.442    0.723   0.0075     O
O        0.442    0.777   0.4925     O
O       0.4421   0.0073    0.777     O
O       0.4421   0.4927    0.723     O
O       0.4421   0.5073    0.277     O
O       0.4421   0.9927    0.223     O
O        0.444   0.2136   0.0089     O
O        0.444   0.2864   0.4911     O
O        0.444   0.7136   0.5089     O
O        0.444   0.7864   0.9911     O
O       0.4444   0.0088   0.2864     O
O       0.4444   0.4912   0.2136     O
O       0.4444   0.5088   0.7864     O
O       0.4444   0.9912   0.7136     O
Cu     0.45473     0.25     0.25    Cu
Cu     0.45473     0.75     0.75    Cu
N        0.458   0.1254   0.3065     N
N        0.458   0.3746   0.1935     N
N        0.458   0.6254   0.8065     N
N        0.458   0.8746   0.6935     N
C       0.4581   0.1317   0.3453     C
C       0.4581   0.3683   0.1547     C
C       0.4581   0.6317   0.8453     C
C       0.4581   0.8683   0.6547     C
C       0.4583   0.1547   0.1315     C
C       0.4583   0.3453   0.3685     C
C       0.4583   0.6547   0.6315     C
C       0.4583   0.8453   0.8685     C
N       0.4585   0.1938   0.1255     N
N       0.4585   0.3062   0.3745     N
N       0.4585   0.6938   0.6255     N
N       0.4585   0.8062   0.8745     N
O       0.4605  0.19921   0.2758     O
O       0.4605  0.30079   0.2242     O
O       0.4605  0.69921   0.7758     O
O       0.4605  0.80079   0.7242     O
O       0.4607   0.2242   0.1993     O
O       0.4607   0.2758   0.3007     O
O       0.4607   0.7242   0.6993     O
O       0.4607   0.7758   0.8007     O
H       0.4669     0.23   0.3776     H
H       0.4669     0.27   0.1224     H
H       0.4669     0.73   0.8776     H
H       0.4669     0.77   0.6224     H
H       0.4671   0.1228   0.2304     H
H       0.4671   0.3772   0.2696     H
H       0.4671   0.6228   0.7304     H
H       0.4671   0.8772   0.7696     H
Cu     0.46838     0.25     0.75    Cu
Cu     0.46838     0.75     0.25    Cu
O       0.4741    0.195   0.7339     O
O       0.4741    0.305   0.7661     O
O       0.4741    0.695   0.2339     O
O       0.4741    0.805   0.2661     O
O       0.4749   0.2338   0.8047     O
O       0.4749   0.2662   0.6953     O
O       0.4749   0.7338   0.3047     O
O       0.4749   0.7662   0.1953     O
H       0.4841   0.1296   0.7024     H
H       0.4841   0.3704   0.7976     H
H       0.4841   0.6296   0.2024     H
H       0.4841   0.8704   0.2976     H
H       0.4845   0.2023   0.8698     H
H       0.4845   0.2977   0.6302     H
H       0.4845   0.7023   0.3698     H
H       0.4845   0.7977   0.1302     H
O       0.4872   0.1463   0.3622     O
O       0.4872   0.3537   0.1378     O
O       0.4872   0.6463   0.8622     O
O       0.4872   0.8537   0.6378     O
O       0.4874   0.1379   0.1458     O
O       0.4874   0.3621   0.3542     O
O       0.4874   0.6379   0.6458     O
O       0.4874   0.8621   0.8542     O
H       0.4875   0.1284   0.7726     H
H       0.4875   0.3716   0.7274     H
H       0.4875   0.6284   0.2726     H
H       0.4875   0.8716   0.2274     H
H       0.4877    0.227   0.6282     H
H       0.4877    0.273   0.8718     H
H       0.4877    0.727   0.1282     H
H       0.4877    0.773   0.3718     H
O       0.4911    0.056   0.2136     O
O       0.4911    0.444   0.2864     O
O       0.4911    0.556   0.7136     O
O       0.4911    0.944   0.7864     O
O       0.4912   0.2136   0.4444     O
O       0.4912   0.2864   0.0556     O
O       0.4912   0.7136   0.9444     O
O       0.4912   0.7864   0.5556     O
C       0.4918   0.1172   0.2432     C
C       0.4918   0.3828   0.2568     C
C       0.4918   0.6172   0.7432     C
C       0.4918   0.8828   0.7568     C
C        0.492    0.137   0.2835     C
C        0.492   0.2167   0.1375     C
C        0.492   0.2833   0.3625     C
C        0.492    0.363   0.2165     C
C        0.492    0.637   0.7835     C
C        0.492   0.7167   0.6375     C
C        0.492   0.7833   0.8625     C
C        0.492    0.863   0.7165     C
C       0.4921   0.2434   0.3827     C
C       0.4921   0.2566   0.1173     C
C       0.4921   0.7434   0.8827     C
C       0.4921   0.7566   0.6173     C
O       0.4925    0.058    0.723     O
O       0.4925    0.442    0.777     O
O       0.4925    0.558    0.223     O
O       0.4925    0.942    0.277     O
C       0.4926    0.181   0.2755     C
C       0.4926    0.319   0.2245     C
C       0.4926    0.681   0.7755     C
C       0.4926    0.819   0.7245     C
O       0.4927    0.223   0.9421     O
C       0.4927   0.2245   0.1814     C
C       0.4927   0.2755   0.3186     C
O       0.4927    0.277   0.5579     O
O       0.4927    0.723   0.4421     O
C       0.4927   0.7245   0.6814     C
C       0.4927   0.7755   0.8186     C
O       0.4927    0.777   0.0579     O
C        0.497   0.2455   0.4264     C
C        0.497   0.2545   0.0736     C
C        0.497   0.7455   0.9264     C
C        0.497   0.7545   0.5736     C
C       0.4972   0.0735   0.2454     C
C       0.4972   0.4265   0.2546     C
C       0.4972   0.5735   0.7454     C
C       0.4972   0.9265   0.7546     C
Cu         0.5      0.0   0.2108    Cu
Cu         0.5      0.0  0.28905    Cu
Cu         0.5      0.0  0.71095    Cu
Cu         0.5      0.0   0.7892    Cu
Cu         0.5   0.2108      0.0    Cu
Cu         0.5  0.21095      0.5    Cu
Cu         0.5  0.28905      0.0    Cu
Cu         0.5   0.2892      0.5    Cu
Cu         0.5      0.5  0.21095    Cu
Cu         0.5      0.5   0.2892    Cu
Cu         0.5      0.5   0.7108    Cu
Cu         0.5      0.5  0.78905    Cu
Cu         0.5   0.7108      0.5    Cu
Cu         0.5  0.71095      0.0    Cu
Cu         0.5  0.78905      0.5    Cu
Cu         0.5   0.7892      0.0    Cu
C       0.5028   0.0735   0.7546     C
C       0.5028   0.4265   0.7454     C
C       0.5028   0.5735   0.2546     C
C       0.5028   0.9265   0.2454     C
C        0.503   0.2455   0.5736     C
C        0.503   0.2545   0.9264     C
C        0.503   0.7455   0.0736     C
C        0.503   0.7545   0.4264     C
O       0.5073    0.223   0.0579     O
C       0.5073   0.2245   0.8186     C
C       0.5073   0.2755   0.6814     C
O       0.5073    0.277   0.4421     O
O       0.5073    0.723   0.5579     O
C       0.5073   0.7245   0.3186     C
C       0.5073   0.7755   0.1814     C
O       0.5073    0.777   0.9421     O
C       0.5074    0.181   0.7245     C
C       0.5074    0.319   0.7755     C
C       0.5074    0.681   0.2245     C
C       0.5074    0.819   0.2755     C
O       0.5075    0.058    0.277     O
O       0.5075    0.442    0.223     O
O       0.5075    0.558    0.777     O
O       0.5075    0.942    0.723     O
C       0.5079   0.2434   0.6173     C
C       0.5079   0.2566   0.8827     C
C       0.5079   0.7434   0.1173     C
C       0.5079   0.7566   0.3827     C
C        0.508    0.137   0.7165     C
C        0.508   0.2167   0.8625     C
C        0.508   0.2833   0.6375     C
C        0.508    0.363   0.7835     C
C        0.508    0.637   0.2165     C
C        0.508   0.7167   0.3625     C
C        0.508   0.7833   0.1375     C
C        0.508    0.863   0.2835     C
C       0.5082   0.1172   0.7568     C
C       0.5082   0.3828   0.7432     C
C       0.5082   0.6172   0.2568     C
C       0.5082   0.8828   0.2432     C
O       0.5088   0.2136   0.5556     O
O       0.5088   0.2864   0.9444     O
O       0.5088   0.7136   0.0556     O
O       0.5088   0.7864   0.4444     O
O       0.5089    0.056   0.7864     O
O       0.5089    0.444   0.7136     O
O       0.5089    0.556   0.2864     O
O       0.5089    0.944   0.2136     O
H       0.5123    0.227   0.3718     H
H       0.5123    0.273   0.1282     H
H       0.5123    0.727   0.8718     H
H       0.5123    0.773   0.6282     H
H       0.5125   0.1284   0.2274     H
H       0.5125   0.3716   0.2726     H
H       0.5125   0.6284   0.7274     H
H       0.5125   0.8716   0.7726     H
O       0.5126   0.1379   0.8542     O
O       0.5126   0.3621   0.6458     O
O       0.5126   0.6379   0.3542     O
O       0.5126   0.8621   0.1458     O
O       0.5128   0.1463   0.6378     O
O       0.5128   0.3537   0.8622     O
O       0.5128   0.6463   0.1378     O
O       0.5128   0.8537   0.3622     O
H       0.5155   0.2023   0.1302     H
H       0.5155   0.2977   0.3698     H
H       0.5155   0.7023   0.6302     H
H       0.5155   0.7977   0.8698     H
H       0.5159   0.1296   0.2976     H
H       0.5159   0.3704   0.2024     H
H       0.5159   0.6296   0.7976     H
H       0.5159   0.8704   0.7024     H
O       0.5251   0.2338   0.1953     O
O       0.5251   0.2662   0.3047     O
O       0.5251   0.7338   0.6953     O
O       0.5251   0.7662   0.8047     O
O       0.5259    0.195   0.2661     O
O       0.5259    0.305   0.2339     O
O       0.5259    0.695   0.7661     O
O       0.5259    0.805   0.7339     O
Cu     0.53162     0.25     0.25    Cu
Cu     0.53162     0.75     0.75    Cu
H       0.5329   0.1228   0.7696     H
H       0.5329   0.3772   0.7304     H
H       0.5329   0.6228   0.2696     H
H       0.5329   0.8772   0.2304     H
H       0.5331     0.23   0.6224     H
H       0.5331     0.27   0.8776     H
H       0.5331     0.73   0.1224     H
H       0.5331     0.77   0.3776     H
O       0.5393   0.2242   0.8007     O
O       0.5393   0.2758   0.6993     O
O       0.5393   0.7242   0.3007     O
O       0.5393   0.7758   0.1993     O
O       0.5395  0.19921   0.7242     O
O       0.5395  0.30079   0.7758     O
O       0.5395  0.69921   0.2242     O
O       0.5395  0.80079   0.2758     O
N       0.5415   0.1938   0.8745     N
N       0.5415   0.3062   0.6255     N
N       0.5415   0.6938   0.3745     N
N       0.5415   0.8062   0.1255     N
C       0.5417   0.1547   0.8685     C
C       0.5417   0.3453   0.6315     C
C       0.5417   0.6547   0.3685     C
C       0.5417   0.8453   0.1315     C
C       0.5419   0.1317   0.6547     C
C       0.5419   0.3683   0.8453     C
C       0.5419   0.6317   0.1547     C
C       0.5419   0.8683   0.3453     C
N        0.542   0.1254   0.6935     N
N        0.542   0.3746   0.8065     N
N        0.542   0.6254   0.1935     N
N        0.542   0.8746   0.3065     N
Cu     0.54527     0.25     0.75    Cu
Cu     0.54527     0.75     0.25    Cu
O       0.5556   0.0088   0.7136     O
O       0.5556   0.4912   0.7864     O
O       0.5556   0.5088   0.2136     O
O       0.5556   0.9912   0.2864     O
O        0.556   0.2136   0.9911     O
O        0.556   0.2864   0.5089     O
O        0.556   0.7136   0.4911     O
O        0.556   0.7864   0.0089     O
O       0.5579   0.0073    0.223     O
O       0.5579   0.4927    0.277     O
O       0.5579   0.5073    0.723     O
O       0.5579   0.9927    0.777     O
O        0.558    0.223   0.4925     O
O        0.558    0.277   0.0075     O
O        0.558    0.723   0.9925     O
O        0.558    0.777   0.5075     O
H       0.5619   0.1146   0.7046     H
H       0.5619   0.3854   0.7954     H
H       0.5619   0.6146   0.2046     H
H       0.5619   0.8854   0.2954     H
H       0.5623   0.2046    0.884     H
H       0.5623   0.2954    0.616     H
H       0.5623   0.7046    0.384     H
H       0.5623   0.7954    0.116     H
H       0.5723    0.093   0.8363     H
H       0.5723    0.407   0.6637     H
H       0.5723    0.593   0.3363     H
H       0.5723    0.907   0.1637     H
H       0.5726   0.1643   0.5931     H
H       0.5726   0.3357   0.9069     H
H       0.5726   0.6643   0.0931     H
H       0.5726   0.8357   0.4069     H
C       0.5735   0.2454   0.9972     C
C       0.5735   0.2546   0.5028     C
C       0.5735   0.7454   0.4972     C
C       0.5735   0.7546   0.0028     C
C       0.5736    0.003   0.7455     C
C       0.5736    0.497   0.7545     C
C       0.5736    0.503   0.2455     C
C       0.5736    0.997   0.2545     C
C       0.5773   0.1205   0.6323     C
C       0.5773   0.1328   0.8799     C
C       0.5773   0.3672   0.6201     C
C       0.5773   0.3795   0.8677     C
C       0.5773   0.6205   0.1323     C
C       0.5773   0.6328   0.3799     C
C       0.5773   0.8672   0.1201     C
C       0.5773   0.8795   0.3677     C
C       0.5875   0.0999   0.8577     C
C       0.5875   0.1426   0.5999     C
C       0.5875   0.3574   0.9001     C
C       0.5875   0.4001   0.6423     C
C       0.5875   0.5999   0.3577     C
C       0.5875   0.6426   0.0999     C
C       0.5875   0.8574   0.4001     C
C       0.5875   0.9001   0.1423     C
H        0.593   0.1637   0.9277     H
H        0.593   0.3363   0.5723     H
H        0.593   0.6637   0.4277     H
H        0.593   0.8363   0.0723     H
H       0.5931   0.0726   0.6643     H
H       0.5931   0.4274   0.8357     H
H       0.5931   0.5726   0.1643     H
H       0.5931   0.9274   0.3357     H
C       0.5999   0.0875   0.6426     C
C       0.5999   0.1423   0.9125     C
C       0.5999   0.3577   0.5875     C
C       0.5999   0.4125   0.8574     C
C       0.5999   0.5875   0.1426     C
C       0.5999   0.6423   0.4125     C
C       0.5999   0.8577   0.0875     C
C       0.5999   0.9125   0.3574     C
H       0.6146   0.2046   0.5619     H
H       0.6146   0.2954   0.9381     H
H       0.6146   0.7046   0.0619     H
H       0.6146   0.7954   0.4381     H
H        0.616   0.0623   0.7954     H
H        0.616   0.4377   0.7046     H
H        0.616   0.5623   0.2954     H
H        0.616   0.9377   0.2046     H
C       0.6172   0.2432   0.9918     C
C       0.6172   0.2568   0.5082     C
C       0.6172   0.7432   0.4918     C
C       0.6172   0.7568   0.0082     C
C       0.6173   0.0079   0.7434     C
C       0.6173   0.4921   0.7566     C
C       0.6173   0.5079   0.2434     C
C       0.6173   0.9921   0.2566     C
C       0.6201   0.0773   0.8672     C
C       0.6201   0.4227   0.6328     C
C       0.6201   0.5773   0.3672     C
C       0.6201   0.9227   0.1328     C
C       0.6205   0.1323   0.5773     C
C       0.6205   0.3677   0.9227     C
C       0.6205   0.6323   0.0773     C
C       0.6205   0.8677   0.4227     C
H       0.6224   0.0331     0.73     H
H       0.6224   0.4669     0.77     H
H       0.6224   0.5331     0.23     H
H       0.6224   0.9669     0.27     H
H       0.6228   0.2304   0.9671     H
H       0.6228   0.2696   0.5329     H
H       0.6228   0.7304   0.4671     H
H       0.6228   0.7696   0.0329     H
N       0.6254   0.1935    0.542     N
N       0.6254   0.3065    0.958     N
N       0.6254   0.6935    0.042     N
N       0.6254   0.8065    0.458     N
N       0.6255   0.0415   0.8062     N
N       0.6255   0.4585   0.6938     N
N       0.6255   0.5415   0.3062     N
N       0.6255   0.9585   0.1938     N
H       0.6282   0.0123    0.273     H
H       0.6282   0.4877    0.227     H
H       0.6282   0.5123    0.773     H
H       0.6282   0.9877    0.727     H
H       0.6284   0.2274   0.0125     H
H       0.6284   0.2726   0.4875     H
H       0.6284   0.7274   0.5125     H
H       0.6284   0.7726   0.9875     H
H       0.6296   0.2024   0.4841     H
H       0.6296   0.2976   0.0159     H
H       0.6296   0.7024   0.9841     H
H       0.6296   0.7976   0.5159     H
H       0.6302   0.0155   0.2023     H
H       0.6302   0.4845   0.2977     H
H       0.6302   0.5155   0.7023     H
H       0.6302   0.9845   0.7977     H
C       0.6315   0.0417   0.8453     C
C       0.6315   0.4583   0.6547     C
C       0.6315   0.5417   0.3453     C
C       0.6315   0.9583   0.1547     C
C       0.6317   0.1547   0.5419     C
C       0.6317   0.3453   0.9581     C
C       0.6317   0.6547   0.0419     C
C       0.6317   0.8453   0.4581     C
C       0.6323   0.0773   0.6205     C
C       0.6323   0.4227   0.8795     C
C       0.6323   0.5773   0.1205     C
C       0.6323   0.9227   0.3795     C
C       0.6328   0.1201   0.9227     C
C       0.6328   0.3799   0.5773     C
C       0.6328   0.6201   0.4227     C
C       0.6328   0.8799   0.0773     C
C        0.637   0.2165    0.508     C
C        0.637   0.2835    0.992     C
C        0.637   0.7165    0.008     C
C        0.637   0.7835    0.492     C
C       0.6375    0.008   0.7833     C
C       0.6375    0.492   0.7167     C
C       0.6375    0.508   0.2833     C
C       0.6375    0.992   0.2167     C
O       0.6378   0.0128   0.6463     O
O       0.6378   0.4872   0.8537     O
O       0.6378   0.5128   0.1463     O
O       0.6378   0.9872   0.3537     O
O       0.6379   0.1458   0.9874     O
O       0.6379   0.3542   0.5126     O
O       0.6379   0.6458   0.4874     O
O       0.6379   0.8542   0.0126     O
C       0.6423   0.0875   0.9001     C
C       0.6423   0.4125   0.5999     C
C       0.6423   0.5875   0.4001     C
C       0.6423   0.9125   0.0999     C
C       0.6426   0.0999   0.5875     C
C       0.6426   0.4001   0.9125     C
C       0.6426   0.5999   0.0875     C
C       0.6426   0.9001   0.4125     C
O       0.6458   0.0126   0.8621     O
O       0.6458   0.4874   0.6379     O
O       0.6458   0.5126   0.3621     O
O       0.6458   0.9874   0.1379     O
O       0.6463   0.1378   0.5128     O
O       0.6463   0.3622   0.9872     O
O       0.6463   0.6378   0.0128     O
O       0.6463   0.8622   0.4872     O
C       0.6547   0.0419   0.6317     C
C       0.6547   0.1315   0.9583     C
C       0.6547   0.3685   0.5417     C
C       0.6547   0.4581   0.8683     C
C       0.6547   0.5419   0.1317     C
C       0.6547   0.6315   0.4583     C
C       0.6547   0.8685   0.0417     C
C       0.6547   0.9581   0.3683     C
H       0.6637   0.0723    0.907     H
H       0.6637   0.4277    0.593     H
H       0.6637   0.5723    0.407     H
H       0.6637   0.9277    0.093     H
H       0.6643   0.0931   0.5726     H
H       0.6643   0.4069   0.9274     H
H       0.6643   0.5931   0.0726     H
H       0.6643   0.9069   0.4274     H
C        0.681   0.2245   0.5074     C
C        0.681   0.2755   0.9926     C
C        0.681   0.7245   0.0074     C
C        0.681   0.7755   0.4926     C
C       0.6814   0.0073   0.7755     C
C       0.6814   0.4927   0.7245     C
C       0.6814   0.5073   0.2755     C
C       0.6814   0.9927   0.2245     C
N       0.6935    0.042   0.6254     N
N       0.6935    0.458   0.8746     N
N       0.6935    0.542   0.1254     N
N       0.6935    0.958   0.3746     N
N       0.6938   0.1255   0.9585     N
N       0.6938   0.3745   0.5415     N
N       0.6938   0.6255   0.4585     N
N       0.6938   0.8745   0.0415     N
O        0.695   0.2339   0.4741     O
O        0.695   0.2661   0.0259     O
O        0.695   0.7339   0.9741     O
O        0.695   0.7661   0.5259     O
O       0.6953   0.0251   0.2338     O
O       0.6953   0.4749   0.2662     O
O       0.6953   0.5251   0.7338     O
O       0.6953   0.9749   0.7662     O
O      0.69921   0.2242   0.5395     O
O      0.69921   0.2758   0.9605     O
O      0.69921   0.7242   0.0395     O
O      0.69921   0.7758   0.4605     O
O       0.6993   0.0393   0.7758     O
O       0.6993   0.4607   0.7242     O
O       0.6993   0.5393   0.2758     O
O       0.6993   0.9607   0.2242     O
H       0.7023   0.1302   0.0155     H
H       0.7023   0.3698   0.4845     H
H       0.7023   0.6302   0.5155     H
H       0.7023   0.8698   0.9845     H
H       0.7024   0.0159   0.3704     H
H       0.7024   0.4841   0.1296     H
H       0.7024   0.5159   0.8704     H
H       0.7024   0.9841   0.6296     H
H       0.7046   0.0619   0.6146     H
H       0.7046    0.116   0.9377     H
H       0.7046    0.384   0.5623     H
H       0.7046   0.4381   0.8854     H
H       0.7046   0.5619   0.1146     H
H       0.7046    0.616   0.4377     H
H       0.7046    0.884   0.0623     H
H       0.7046   0.9381   0.3854     H
Cu      0.7108      0.0      0.0    Cu
Cu      0.7108      0.5      0.5    Cu
Cu     0.71095      0.0      0.5    Cu
Cu     0.71095      0.5      0.0    Cu
O       0.7136   0.0089    0.944     O
O       0.7136   0.0556   0.5088     O
O       0.7136   0.4444   0.9912     O
O       0.7136   0.4911    0.556     O
O       0.7136   0.5089    0.444     O
O       0.7136   0.5556   0.0088     O
O       0.7136   0.9444   0.4912     O
O       0.7136   0.9911    0.056     O
C       0.7165    0.008    0.637     C
C       0.7165    0.492    0.863     C
C       0.7165    0.508    0.137     C
C       0.7165    0.992    0.363     C
C       0.7167   0.1375    0.992     C
C       0.7167   0.3625    0.508     C
C       0.7167   0.6375    0.492     C
C       0.7167   0.8625    0.008     C
O        0.723   0.0075    0.442     O
O        0.723   0.0579   0.0073     O
O        0.723   0.4421   0.4927     O
O        0.723   0.4925    0.058     O
O        0.723   0.5075    0.942     O
O        0.723   0.5579   0.5073     O
O        0.723   0.9421   0.9927     O
O        0.723   0.9925    0.558     O
O       0.7242   0.0395  0.69921     O
O       0.7242   0.1993   0.9607     O
O       0.7242   0.3007   0.5393     O
O       0.7242   0.4605  0.80079     O
O       0.7242   0.5395  0.19921     O
O       0.7242   0.6993   0.4607     O
O       0.7242   0.8007   0.0393     O
O       0.7242   0.9605  0.30079     O
C       0.7245   0.0074    0.681     C
C       0.7245   0.1814   0.9927     C
C       0.7245   0.3186   0.5073     C
C       0.7245   0.4926    0.819     C
C       0.7245   0.5074    0.181     C
C       0.7245   0.6814   0.4927     C
C       0.7245   0.8186   0.0073     C
C       0.7245   0.9926    0.319     C
H        0.727   0.1282   0.4877     H
H        0.727   0.3718   0.0123     H
H        0.727   0.6282   0.9877     H
H        0.727   0.8718   0.5123     H
H       0.7274   0.0125   0.1284     H
H       0.7274   0.4875   0.3716     H
H       0.7274   0.5125   0.6284     H
H       0.7274   0.9875   0.8716     H
H         0.73   0.1224   0.5331     H
H         0.73   0.3776   0.9669     H
H         0.73   0.6224   0.0331     H
H         0.73   0.8776   0.4669     H
H       0.7304   0.0329   0.8772     H
H       0.7304   0.4671   0.6228     H
H       0.7304   0.5329   0.3772     H
H       0.7304   0.9671   0.1228     H
O       0.7338   0.1953   0.0251     O
O       0.7338   0.3047   0.4749     O
O       0.7338   0.6953   0.5251     O
O       0.7338   0.8047   0.9749     O
O       0.7339   0.0259    0.305     O
O       0.7339   0.4741    0.195     O
O       0.7339   0.5259    0.805     O
O       0.7339   0.9741    0.695     O
C       0.7432   0.0082   0.8828     C
C       0.7432   0.4918   0.6172     C
C       0.7432   0.5082   0.3828     C
C       0.7432   0.9918   0.1172     C
C       0.7434   0.1173   0.5079     C
C       0.7434   0.3827   0.9921     C
C       0.7434   0.6173   0.0079     C
C       0.7434   0.8827   0.4921     C
C       0.7454   0.0028   0.9265     C
C       0.7454   0.4972   0.5735     C
C       0.7454   0.5028   0.4265     C
C       0.7454   0.9972   0.0735     C
C       0.7455   0.0736    0.503     C
C       0.7455   0.4264    0.997     C
C       0.7455   0.5736    0.003     C
C       0.7455   0.9264    0.497     C
Cu        0.75  0.03162     0.25    Cu
Cu        0.75  0.04527     0.75    Cu
Cu        0.75     0.25  0.03162    Cu
Cu        0.75     0.25  0.46838    Cu
Cu        0.75     0.25  0.54527    Cu
Cu        0.75     0.25  0.95473    Cu
Cu        0.75  0.45473     0.75    Cu
Cu        0.75  0.46838     0.25    Cu
Cu        0.75  0.53162     0.75    Cu
Cu        0.75  0.54527     0.25    Cu
Cu        0.75     0.75  0.04527    Cu
Cu        0.75     0.75  0.45473    Cu
Cu        0.75     0.75  0.53162    Cu
Cu        0.75     0.75  0.96838    Cu
Cu        0.75  0.95473     0.25    Cu
Cu        0.75  0.96838     0.75    Cu
C       0.7545   0.0736    0.997     C
C       0.7545   0.4264    0.503     C
C       0.7545   0.5736    0.497     C
C       0.7545   0.9264    0.003     C
C       0.7546   0.0028   0.5735     C
C       0.7546   0.4972   0.9265     C
C       0.7546   0.5028   0.0735     C
C       0.7546   0.9972   0.4265     C
C       0.7566   0.1173   0.9921     C
C       0.7566   0.3827   0.5079     C
C       0.7566   0.6173   0.4921     C
C       0.7566   0.8827   0.0079     C
C       0.7568   0.0082   0.6172     C
C       0.7568   0.4918   0.8828     C
C       0.7568   0.5082   0.1172     C
C       0.7568   0.9918   0.3828     C
O       0.7661   0.0259    0.195     O
O       0.7661   0.4741    0.305     O
O       0.7661   0.5259    0.695     O
O       0.7661   0.9741    0.805     O
O       0.7662   0.1953   0.4749     O
O       0.7662   0.3047   0.0251     O
O       0.7662   0.6953   0.9749     O
O       0.7662   0.8047   0.5251     O
H       0.7696   0.0329   0.6228     H
H       0.7696   0.4671   0.8772     H
H       0.7696   0.5329   0.1228     H
H       0.7696   0.9671   0.3772     H
H         0.77   0.1224   0.9669     H
H         0.77   0.3776   0.5331     H
H         0.77   0.6224   0.4669     H
H         0.77   0.8776   0.0331     H
H       0.7726   0.0125   0.3716     H
H       0.7726   0.4875   0.1284     H
H       0.7726   0.5125   0.8716     H
H       0.7726   0.9875   0.6284     H
H        0.773   0.1282   0.0123     H
H        0.773   0.3718   0.4877     H
H        0.773   0.6282   0.5123     H
H        0.773   0.8718   0.9877     H
C       0.7755   0.0074    0.819     C
C       0.7755   0.1814   0.5073     C
C       0.7755   0.3186   0.9927     C
C       0.7755   0.4926    0.681     C
C       0.7755   0.5074    0.319     C
C       0.7755   0.6814   0.0073     C
C       0.7755   0.8186   0.4927     C
C       0.7755   0.9926    0.181     C
O       0.7758   0.0395  0.80079     O
O       0.7758   0.1993   0.5393     O
O       0.7758   0.3007   0.9607     O
O       0.7758   0.4605  0.69921     O
O       0.7758   0.5395  0.30079     O
O       0.7758   0.6993   0.0393     O
O       0.7758   0.8007   0.4607     O
O       0.7758   0.9605  0.19921     O
O        0.777   0.0075    0.058     O
O        0.777   0.0579   0.4927     O
O        0.777   0.4421   0.0073     O
O        0.777   0.4925    0.442     O
O        0.777   0.5075    0.558     O
O        0.777   0.5579   0.9927     O
O        0.777   0.9421   0.5073     O
O        0.777   0.9925    0.942     O
C       0.7833   0.1375    0.508     C
C       0.7833   0.3625    0.992     C
C       0.7833   0.6375    0.008     C
C       0.7833   0.8625    0.492     C
C       0.7835    0.008    0.863     C
C       0.7835    0.492    0.637     C
C       0.7835    0.508    0.363     C
C       0.7835    0.992    0.137     C
O       0.7864   0.0089    0.556     O
O       0.7864   0.0556   0.9912     O
O       0.7864   0.4444   0.5088     O
O       0.7864   0.4911    0.944     O
O       0.7864   0.5089    0.056     O
O       0.7864   0.5556   0.4912     O
O       0.7864   0.9444   0.0088     O
O       0.7864   0.9911    0.444     O
Cu     0.78905      0.0      0.0    Cu
Cu     0.78905      0.5      0.5    Cu
Cu      0.7892      0.0      0.5    Cu
Cu      0.7892      0.5      0.0    Cu
H       0.7954   0.0619   0.8854     H
H       0.7954    0.116   0.5623     H
H       0.7954    0.384   0.9377     H
H       0.7954   0.4381   0.6146     H
H       0.7954   0.5619   0.3854     H
H       0.7954    0.616   0.0623     H
H       0.7954    0.884   0.4377     H
H       0.7954   0.9381   0.1146     H
H       0.7976   0.0159   0.1296     H
H       0.7976   0.4841   0.3704     H
H       0.7976   0.5159   0.6296     H
H       0.7976   0.9841   0.8704     H
H       0.7977   0.1302   0.4845     H
H       0.7977   0.3698   0.0155     H
H       0.7977   0.6302   0.9845     H
H       0.7977   0.8698   0.5155     H
O       0.8007   0.0393   0.7242     O
O       0.8007   0.4607   0.7758     O
O       0.8007   0.5393   0.2242     O
O       0.8007   0.9607   0.2758     O
O      0.80079   0.2242   0.9605     O
O      0.80079   0.2758   0.5395     O
O      0.80079   0.7242   0.4605     O
O      0.80079   0.7758   0.0395     O
O       0.8047   0.0251   0.2662     O
O       0.8047   0.4749   0.2338     O
O       0.8047   0.5251   0.7662     O
O       0.8047   0.9749   0.7338     O
O        0.805   0.2339   0.0259     O
O        0.805   0.2661   0.4741     O
O        0.805   0.7339   0.5259     O
O        0.805   0.7661   0.9741     O
N       0.8062   0.1255   0.5415     N
N       0.8062   0.3745   0.9585     N
N       0.8062   0.6255   0.0415     N
N       0.8062   0.8745   0.4585     N
N       0.8065    0.042   0.8746     N
N       0.8065    0.458   0.6254     N
N       0.8065    0.542   0.3746     N
N       0.8065    0.958   0.1254     N
C       0.8186   0.0073   0.7245     C
C       0.8186   0.4927   0.7755     C
C       0.8186   0.5073   0.2245     C
C       0.8186   0.9927   0.2755     C
C        0.819   0.2245   0.9926     C
C        0.819   0.2755   0.5074     C
C        0.819   0.7245   0.4926     C
C        0.819   0.7755   0.0074     C
H       0.8357   0.0931   0.9274     H
H       0.8357   0.4069   0.5726     H
H       0.8357   0.5931   0.4274     H
H       0.8357   0.9069   0.0726     H
H       0.8363   0.0723    0.593     H
H       0.8363   0.4277    0.907     H
H       0.8363   0.5723    0.093     H
H       0.8363   0.9277    0.407     H
C       0.8453   0.0419   0.8683     C
C       0.8453   0.1315   0.5417     C
C       0.8453   0.3685   0.9583     C
C       0.8453   0.4581   0.6317     C
C       0.8453   0.5419   0.3683     C
C       0.8453   0.6315   0.0417     C
C       0.8453   0.8685   0.4583     C
C       0.8453   0.9581   0.1317     C
O       0.8537   0.1378   0.9872     O
O       0.8537   0.3622   0.5128     O
O       0.8537   0.6378   0.4872     O
O       0.8537   0.8622   0.0128     O
O       0.8542   0.0126   0.6379     O
O       0.8542   0.4874   0.8621     O
O       0.8542   0.5126   0.1379     O
O       0.8542   0.9874   0.3621     O
C       0.8574   0.0999   0.9125     C
C       0.8574   0.4001   0.5875     C
C       0.8574   0.5999   0.4125     C
C       0.8574   0.9001   0.0875     C
C       0.8577   0.0875   0.5999     C
C       0.8577   0.4125   0.9001     C
C       0.8577   0.5875   0.0999     C
C       0.8577   0.9125   0.4001     C
O       0.8621   0.1458   0.5126     O
O       0.8621   0.3542   0.9874     O
O       0.8621   0.6458   0.0126     O
O       0.8621   0.8542   0.4874     O
O       0.8622   0.0128   0.8537     O
O       0.8622   0.4872   0.6463     O
O       0.8622   0.5128   0.3537     O
O       0.8622   0.9872   0.1463     O
C       0.8625    0.008   0.7167     C
C       0.8625    0.492   0.7833     C
C       0.8625    0.508   0.2167     C
C       0.8625    0.992   0.2833     C
C        0.863   0.2165    0.992     C
C        0.863   0.2835    0.508     C
C        0.863   0.7165    0.492     C
C        0.863   0.7835    0.008     C
C       0.8672   0.1201   0.5773     C
C       0.8672   0.3799   0.9227     C
C       0.8672   0.6201   0.0773     C
C       0.8672   0.8799   0.4227     C
C       0.8677   0.0773   0.8795     C
C       0.8677   0.4227   0.6205     C
C       0.8677   0.5773   0.3795     C
C       0.8677   0.9227   0.1205     C
C       0.8683   0.1547   0.9581     C
C       0.8683   0.3453   0.5419     C
C       0.8683   0.6547   0.4581     C
C       0.8683   0.8453   0.0419     C
C       0.8685   0.0417   0.6547     C
C       0.8685   0.4583   0.8453     C
C       0.8685   0.5417   0.1547     C
C       0.8685   0.9583   0.3453     C
H       0.8698   0.0155   0.2977     H
H       0.8698   0.4845   0.2023     H
H       0.8698   0.5155   0.7977     H
H       0.8698   0.9845   0.7023     H
H       0.8704   0.2024   0.0159     H
H       0.8704   0.2976   0.4841     H
H       0.8704   0.7024   0.5159     H
H       0.8704   0.7976   0.9841     H
H       0.8716   0.2274   0.4875     H
H       0.8716   0.2726   0.0125     H
H       0.8716   0.7274   0.9875     H
H       0.8716   0.7726   0.5125     H
H       0.8718   0.0123    0.227     H
H       0.8718   0.4877    0.273     H
H       0.8718   0.5123    0.727     H
H       0.8718   0.9877    0.773     H
N       0.8745   0.0415   0.6938     N
N       0.8745   0.4585   0.8062     N
N       0.8745   0.5415   0.1938     N
N       0.8745   0.9585   0.3062     N
N       0.8746   0.1935    0.958     N
N       0.8746   0.3065    0.542     N
N       0.8746   0.6935    0.458     N
N       0.8746   0.8065    0.042     N
H       0.8772   0.2304   0.5329     H
H       0.8772   0.2696   0.9671     H
H       0.8772   0.7304   0.0329     H
H       0.8772   0.7696   0.4671     H
H       0.8776   0.0331     0.77     H
H       0.8776   0.4669     0.73     H
H       0.8776   0.5331     0.27     H
H       0.8776   0.9669     0.23     H
C       0.8795   0.1323   0.9227     C
C       0.8795   0.3677   0.5773     C
C       0.8795   0.6323   0.4227     C
C       0.8795   0.8677   0.0773     C
C       0.8799   0.0773   0.6328     C
C       0.8799   0.4227   0.8672     C
C       0.8799   0.5773   0.1328     C
C       0.8799   0.9227   0.3672     C
C       0.8827   0.0079   0.7566     C
C       0.8827   0.4921   0.7434     C
C       0.8827   0.5079   0.2566     C
C       0.8827   0.9921   0.2434     C
C       0.8828   0.2432   0.5082     C
C       0.8828   0.2568   0.9918     C
C       0.8828   0.7432   0.0082     C
C       0.8828   0.7568   0.4918     C
H        0.884   0.0623   0.7046     H
H        0.884   0.4377   0.7954     H
H        0.884   0.5623   0.2046     H
H        0.884   0.9377   0.2954     H
H       0.8854   0.2046   0.9381     H
H       0.8854   0.2954   0.5619     H
H       0.8854   0.7046   0.4381     H
H       0.8854   0.7954   0.0619     H
C       0.9001   0.0875   0.8574     C
C       0.9001   0.1423   0.5875     C
C       0.9001   0.3577   0.9125     C
C       0.9001   0.4125   0.6426     C
C       0.9001   0.5875   0.3574     C
C       0.9001   0.6423   0.0875     C
C       0.9001   0.8577   0.4125     C
C       0.9001   0.9125   0.1426     C
H       0.9069   0.0726   0.8357     H
H       0.9069   0.4274   0.6643     H
H       0.9069   0.5726   0.3357     H
H       0.9069   0.9274   0.1643     H
H        0.907   0.1637   0.5723     H
H        0.907   0.3363   0.9277     H
H        0.907   0.6637   0.0723     H
H        0.907   0.8363   0.4277     H
C       0.9125   0.0999   0.6423     C
C       0.9125   0.1426   0.9001     C
C       0.9125   0.3574   0.5999     C
C       0.9125   0.4001   0.8577     C
C       0.9125   0.5999   0.1423     C
C       0.9125   0.6426   0.4001     C
C       0.9125   0.8574   0.0999     C
C       0.9125   0.9001   0.3577     C
C       0.9227   0.1205   0.8677     C
C       0.9227   0.1328   0.6201     C
C       0.9227   0.3672   0.8799     C
C       0.9227   0.3795   0.6323     C
C       0.9227   0.6205   0.3677     C
C       0.9227   0.6328   0.1201     C
C       0.9227   0.8672   0.3799     C
C       0.9227   0.8795   0.1323     C
C       0.9264    0.003   0.7545     C
C       0.9264    0.497   0.7455     C
C       0.9264    0.503   0.2545     C
C       0.9264    0.997   0.2455     C
C       0.9265   0.2454   0.5028     C
C       0.9265   0.2546   0.9972     C
C       0.9265   0.7454   0.0028     C
C       0.9265   0.7546   0.4972     C
H       0.9274   0.1643   0.9069     H
H       0.9274   0.3357   0.5931     H
H       0.9274   0.6643   0.4069     H
H       0.9274   0.8357   0.0931     H
H       0.9277    0.093   0.6637     H
H       0.9277    0.407   0.8363     H
H       0.9277    0.593   0.1637     H
H       0.9277    0.907   0.3363     H
H       0.9377   0.2046    0.616     H
H       0.9377   0.2954    0.884     H
H       0.9377   0.7046    0.116     H
H       0.9377   0.7954    0.384     H
H       0.9381   0.1146   0.7954     H
H       0.9381   0.3854   0.7046     H
H       0.9381   0.6146   0.2954     H
H       0.9381   0.8854   0.2046     H
O        0.942    0.223   0.0075     O
O        0.942    0.277   0.4925     O
O        0.942    0.723   0.5075     O
O        0.942    0.777   0.9925     O
O       0.9421   0.0073    0.277     O
O       0.9421   0.4927    0.223     O
O       0.9421   0.5073    0.777     O
O       0.9421   0.9927    0.723     O
O        0.944   0.2136   0.5089     O
O        0.944   0.2864   0.9911     O
O        0.944   0.7136   0.0089     O
O        0.944   0.7864   0.4911     O
O       0.9444   0.0088   0.7864     O
O       0.9444   0.4912   0.7136     O
O       0.9444   0.5088   0.2864     O
O       0.9444   0.9912   0.2136     O
Cu     0.95473     0.25     0.75    Cu
Cu     0.95473     0.75     0.25    Cu
N        0.958   0.1254   0.8065     N
N        0.958   0.3746   0.6935     N
N        0.958   0.6254   0.3065     N
N        0.958   0.8746   0.1935     N
C       0.9581   0.1317   0.8453     C
C       0.9581   0.3683   0.6547     C
C       0.9581   0.6317   0.3453     C
C       0.9581   0.8683   0.1547     C
C       0.9583   0.1547   0.6315     C
C       0.9583   0.3453   0.8685     C
C       0.9583   0.6547   0.1315     C
C       0.9583   0.8453   0.3685     C
N       0.9585   0.1938   0.6255     N
N       0.9585   0.3062   0.8745     N
N       0.9585   0.6938   0.1255     N
N       0.9585   0.8062   0.3745     N
O       0.9605  0.19921   0.7758     O
O       0.9605  0.30079   0.7242     O
O       0.9605  0.69921   0.2758     O
O       0.9605  0.80079   0.2242     O
O       0.9607   0.2242   0.6993     O
O       0.9607   0.2758   0.8007     O
O       0.9607   0.7242   0.1993     O
O       0.9607   0.7758   0.3007     O
H       0.9669     0.23   0.8776     H
H       0.9669     0.27   0.6224     H
H       0.9669     0.73   0.3776     H
H       0.9669     0.77   0.1224     H
H       0.9671   0.1228   0.7304     H
H       0.9671   0.3772   0.7696     H
H       0.9671   0.6228   0.2304     H
H       0.9671   0.8772   0.2696     H
Cu     0.96838     0.25     0.25    Cu
Cu     0.96838     0.75     0.75    Cu
O       0.9741    0.195   0.2339     O
O       0.9741    0.305   0.2661     O
O       0.9741    0.695   0.7339     O
O       0.9741    0.805   0.7661     O
O       0.9749   0.2338   0.3047     O
O       0.9749   0.2662   0.1953     O
O       0.9749   0.7338   0.8047     O
O       0.9749   0.7662   0.6953     O
H       0.9841   0.1296   0.2024     H
H       0.9841   0.3704   0.2976     H
H       0.9841   0.6296   0.7024     H
H       0.9841   0.8704   0.7976     H
H       0.9845   0.2023   0.3698     H
H       0.9845   0.2977   0.1302     H
H       0.9845   0.7023   0.8698     H
H       0.9845   0.7977   0.6302     H
O       0.9872   0.1463   0.8622     O
O       0.9872   0.3537   0.6378     O
O       0.9872   0.6463   0.3622     O
O       0.9872   0.8537   0.1378     O
O       0.9874   0.1379   0.6458     O
O       0.9874   0.3621   0.8542     O
O       0.9874   0.6379   0.1458     O
O       0.9874   0.8621   0.3542     O
H       0.9875   0.1284   0.2726     H
H       0.9875   0.3716   0.2274     H
H       0.9875   0.6284   0.7726     H
H       0.9875   0.8716   0.7274     H
H       0.9877    0.227   0.1282     H
H       0.9877    0.273   0.3718     H
H       0.9877    0.727   0.6282     H
H       0.9877    0.773   0.8718     H
O       0.9911    0.056   0.7136     O
O       0.9911    0.444   0.7864     O
O       0.9911    0.556   0.2136     O
O       0.9911    0.944   0.2864     O
O       0.9912   0.2136   0.9444     O
O       0.9912   0.2864   0.5556     O
O       0.9912   0.7136   0.4444     O
O       0.9912   0.7864   0.0556     O
C       0.9918   0.1172   0.7432     C
C       0.9918   0.3828   0.7568     C
C       0.9918   0.6172   0.2432     C
C       0.9918   0.8828   0.2568     C
C        0.992    0.137   0.7835     C
C        0.992   0.2167   0.6375     C
C        0.992   0.2833   0.8625     C
C        0.992    0.363   0.7165     C
C        0.992    0.637   0.2835     C
C        0.992   0.7167   0.1375     C
C        0.992   0.7833   0.3625     C
C        0.992    0.863   0.2165     C
C       0.9921   0.2434   0.8827     C
C       0.9921   0.2566   0.6173     C
C       0.9921   0.7434   0.3827     C
C       0.9921   0.7566   0.1173     C
O       0.9925    0.058    0.223     O
O       0.9925    0.442    0.277     O
O       0.9925    0.558    0.723     O
O       0.9925    0.942    0.777     O
C       0.9926    0.181   0.7755     C
C       0.9926    0.319   0.7245     C
C       0.9926    0.681   0.2755     C
C       0.9926    0.819   0.2245     C
O       0.9927    0.223   0.4421     O
C       0.9927   0.2245   0.6814     C
C       0.9927   0.2755   0.8186     C
O       0.9927    0.277   0.0579     O
O       0.9927    0.723   0.9421     O
C       0.9927   0.7245   0.1814     C
C       0.9927   0.7755   0.3186     C
O       0.9927    0.777   0.5579     O
C        0.997   0.2455   0.9264     C
C        0.997   0.2545   0.5736     C
C        0.997   0.7455   0.4264     C
C        0.997   0.7545   0.0736     C
C       0.9972   0.0735   0.7454     C
C       0.9972   0.4265   0.7546     C
C       0.9972   0.5735   0.2454     C
C       0.9972   0.9265   0.2546     C
