data_I
_chemical_name_common  '/home/zhangsd/repos/MofS-CGCNN/ML/data/TSD/clean_cifs/DOPHUN_clean'
_cell_length_a 34.18200
_cell_length_b 34.18200
_cell_length_c 34.18200
_cell_angle_alpha 90.00000
_cell_angle_beta  90.00000
_cell_angle_gamma 90.00000
_space_group_name_H-M_alt      'P 1'


loop_
_space_group_symop_operation_xyz
  'x, y, z' 

loop_
_atom_site_label
_atom_site_fract_x
_atom_site_fract_y
_atom_site_fract_z
_atom_site_type_symbol
Cu         0.0      0.0  0.21099    Cu
Cu         0.0      0.0  0.28911    Cu
Cu         0.0      0.0  0.71089    Cu
Cu         0.0      0.0  0.78901    Cu
Cu         0.0  0.21089      0.5    Cu
Cu         0.0  0.21099      0.0    Cu
Cu         0.0  0.28901      0.5    Cu
Cu         0.0  0.28911      0.0    Cu
Cu         0.0      0.5  0.21089    Cu
Cu         0.0      0.5  0.28901    Cu
Cu         0.0      0.5  0.71099    Cu
Cu         0.0      0.5  0.78911    Cu
Cu         0.0  0.71089      0.0    Cu
Cu         0.0  0.71099      0.5    Cu
Cu         0.0  0.78901      0.0    Cu
Cu         0.0  0.78911      0.5    Cu
C       0.0028   0.0735   0.7455     C
C       0.0028   0.4265   0.7545     C
C       0.0028   0.5735   0.2455     C
C       0.0028   0.9265   0.2545     C
C        0.003   0.2454   0.9263     C
C        0.003   0.2546   0.5737     C
C        0.003   0.7454   0.4263     C
C        0.003   0.7546   0.0737     C
C        0.007   0.2246   0.6817     C
C        0.007   0.2754   0.8183     C
C        0.007   0.7246   0.1817     C
C        0.007   0.7754   0.3183     C
C       0.0071   0.1811   0.7754     C
C       0.0071   0.3189   0.7246     C
C       0.0071   0.6811   0.2754     C
C       0.0071   0.8189   0.2246     C
O       0.0074   0.0581   0.2225     O
O       0.0074   0.2228   0.4422     O
C       0.0074   0.2438   0.8827     C
C       0.0074   0.2562   0.6173     C
O       0.0074   0.2772   0.0578     O
O       0.0074   0.4419   0.2775     O
O       0.0074   0.5581   0.7225     O
O       0.0074   0.7228   0.9422     O
C       0.0074   0.7438   0.3827     C
C       0.0074   0.7562   0.1173     C
O       0.0074   0.7772   0.5578     O
O       0.0074   0.9419   0.7775     O
C       0.0077   0.2164   0.6368     C
C       0.0077   0.2836   0.8632     C
C       0.0077   0.7164   0.1368     C
C       0.0077   0.7836   0.3632     C
C       0.0079   0.1173   0.7433     C
C       0.0079   0.3827   0.7567     C
C       0.0079   0.6173   0.2433     C
C       0.0079   0.8827   0.2567     C
C       0.0085    0.137   0.7832     C
C       0.0085    0.363   0.7168     C
C       0.0085    0.637   0.2832     C
C       0.0085    0.863   0.2168     C
O       0.0088   0.2136   0.9445     O
O       0.0088   0.2864   0.5555     O
O       0.0088   0.7136   0.4445     O
O       0.0088   0.7864   0.0555     O
O       0.0089   0.0559   0.7137     O
O       0.0089   0.4441   0.7863     O
O       0.0089   0.5559   0.2137     O
O       0.0089   0.9441   0.2863     O
H       0.0123    0.227   0.1282     H
H       0.0123    0.273   0.3718     H
H       0.0123    0.727   0.6282     H
H       0.0123    0.773   0.8718     H
O       0.0126   0.1378   0.6457     O
O       0.0126   0.3622   0.8543     O
O       0.0126   0.6378   0.1457     O
O       0.0126   0.8622   0.3543     O
O       0.0127    0.146   0.8625     O
O       0.0127    0.354   0.6375     O
O       0.0127    0.646   0.3625     O
O       0.0127    0.854   0.1375     O
H       0.0132   0.1282   0.2721     H
H       0.0132   0.3718   0.2279     H
H       0.0132   0.6282   0.7721     H
H       0.0132   0.8718   0.7279     H
H       0.0154   0.1297   0.2028     H
H       0.0154   0.3703   0.2972     H
H       0.0154   0.6297   0.7028     H
H       0.0154   0.8703   0.7972     H
H       0.0155   0.2023   0.3698     H
H       0.0155   0.2977   0.1302     H
H       0.0155   0.7023   0.8698     H
H       0.0155   0.7977   0.6302     H
O       0.0255   0.2337   0.3046     O
O       0.0255   0.2663   0.1954     O
O       0.0255   0.7337   0.8046     O
O       0.0255   0.7663   0.6954     O
O       0.0256   0.1948    0.234     O
O       0.0256   0.3052    0.266     O
O       0.0256   0.6948    0.734     O
O       0.0256   0.8052    0.766     O
Cu     0.03157     0.25     0.25    Cu
Cu     0.03157     0.75     0.75    Cu
H       0.0323    0.123   0.7298     H
H       0.0323    0.377   0.7702     H
H       0.0323    0.623   0.2298     H
H       0.0323    0.877   0.2702     H
H       0.0331     0.23   0.8776     H
H       0.0331     0.27   0.6224     H
H       0.0331     0.73   0.3776     H
H       0.0331     0.77   0.1224     H
O        0.039   0.2237  0.69925     O
O        0.039   0.2763  0.80075     O
O        0.039   0.7237  0.19925     O
O        0.039   0.7763  0.30075     O
O       0.0393   0.1993   0.7761     O
O       0.0393   0.3007   0.7239     O
O       0.0393   0.6993   0.2761     O
O       0.0393   0.8007   0.2239     O
N       0.0413   0.1939   0.6254     N
N       0.0413   0.3061   0.8746     N
N       0.0413   0.6939   0.1254     N
N       0.0413   0.8061   0.3746     N
C       0.0414   0.1317   0.8452     C
C       0.0414   0.3683   0.6548     C
C       0.0414   0.6317   0.3452     C
C       0.0414   0.8683   0.1548     C
N       0.0415   0.1254   0.8066     N
C       0.0415   0.1549   0.6315     C
C       0.0415   0.3451   0.8685     C
N       0.0415   0.3746   0.6934     N
N       0.0415   0.6254   0.3066     N
C       0.0415   0.6549   0.1315     C
C       0.0415   0.8451   0.3685     C
N       0.0415   0.8746   0.1934     N
Cu     0.04572     0.25     0.75    Cu
Cu     0.04572     0.75     0.25    Cu
O       0.0555   0.0088   0.7864     O
O       0.0555   0.4912   0.7136     O
O       0.0555   0.5088   0.2864     O
O       0.0555   0.9912   0.2136     O
O       0.0559   0.2137   0.5089     O
O       0.0559   0.2863   0.9911     O
O       0.0559   0.7137   0.0089     O
O       0.0559   0.7863   0.4911     O
O       0.0578   0.0074   0.2772     O
O       0.0578   0.4926   0.2228     O
O       0.0578   0.5074   0.7772     O
O       0.0578   0.9926   0.7228     O
O       0.0581   0.2225   0.0074     O
O       0.0581   0.2775   0.4926     O
O       0.0581   0.7225   0.5074     O
O       0.0581   0.7775   0.9926     O
H       0.0613   0.1144   0.7957     H
H       0.0613   0.3856   0.7043     H
H       0.0613   0.6144   0.2957     H
H       0.0613   0.8856   0.2043     H
H       0.0623   0.2046    0.616     H
H       0.0623   0.2954    0.884     H
H       0.0623   0.7046    0.116     H
H       0.0623   0.7954    0.384     H
H       0.0725   0.1644   0.9066     H
H       0.0725   0.3356   0.5934     H
H       0.0725   0.6644   0.4066     H
H       0.0725   0.8356   0.0934     H
H       0.0727   0.0928   0.6638     H
H       0.0727   0.4072   0.8362     H
H       0.0727   0.5928   0.1638     H
H       0.0727   0.9072   0.3362     H
C       0.0735   0.2455   0.5028     C
C       0.0735   0.2545   0.9972     C
C       0.0735   0.7455   0.0028     C
C       0.0735   0.7545   0.4972     C
C       0.0737    0.003   0.7546     C
C       0.0737    0.497   0.7454     C
C       0.0737    0.503   0.2546     C
C       0.0737    0.997   0.2454     C
C        0.077   0.1203   0.8678     C
C        0.077   0.3797   0.6322     C
C        0.077   0.6203   0.3678     C
C        0.077   0.8797   0.1322     C
C       0.0776   0.1326   0.6201     C
C       0.0776   0.3674   0.8799     C
C       0.0776   0.6326   0.1201     C
C       0.0776   0.8674   0.3799     C
C       0.0873   0.1425   0.8999     C
C       0.0873   0.3575   0.6001     C
C       0.0873   0.6425   0.3999     C
C       0.0873   0.8575   0.1001     C
C       0.0878   0.0997   0.6423     C
C       0.0878   0.4003   0.8577     C
C       0.0878   0.5997   0.1423     C
C       0.0878   0.9003   0.3577     C
H       0.0928   0.1638   0.5727     H
H       0.0928   0.3362   0.9273     H
H       0.0928   0.6638   0.0727     H
H       0.0928   0.8362   0.4273     H
H       0.0934   0.0725   0.8356     H
H       0.0934   0.4275   0.6644     H
H       0.0934   0.5725   0.3356     H
H       0.0934   0.9275   0.1644     H
C       0.0997   0.1423   0.5878     C
C       0.0997   0.3577   0.9122     C
C       0.0997   0.6423   0.0878     C
C       0.0997   0.8577   0.4122     C
C       0.1001   0.0873   0.8575     C
C       0.1001   0.4127   0.6425     C
C       0.1001   0.5873   0.3575     C
C       0.1001   0.9127   0.1425     C
H       0.1144   0.2043   0.9387     H
H       0.1144   0.2957   0.5613     H
H       0.1144   0.7043   0.4387     H
H       0.1144   0.7957   0.0613     H
H        0.116   0.0623   0.7046     H
H        0.116   0.4377   0.7954     H
H        0.116   0.5623   0.2046     H
H        0.116   0.9377   0.2954     H
C       0.1173   0.0074   0.7562     C
C       0.1173   0.2433   0.5079     C
C       0.1173   0.2567   0.9921     C
C       0.1173   0.4926   0.7438     C
C       0.1173   0.5074   0.2562     C
C       0.1173   0.7433   0.0079     C
C       0.1173   0.7567   0.4921     C
C       0.1173   0.9926   0.2438     C
C       0.1201   0.0776   0.6326     C
C       0.1201   0.4224   0.8674     C
C       0.1201   0.5776   0.1326     C
C       0.1201   0.9224   0.3674     C
C       0.1203   0.1322    0.923     C
C       0.1203   0.3678    0.577     C
C       0.1203   0.6322    0.423     C
C       0.1203   0.8678    0.077     C
H       0.1224   0.0331     0.77     H
H       0.1224   0.4669     0.73     H
H       0.1224   0.5331     0.27     H
H       0.1224   0.9669     0.23     H
H        0.123   0.2298   0.5323     H
H        0.123   0.2702   0.9677     H
H        0.123   0.7298   0.0323     H
H        0.123   0.7702   0.4677     H
N       0.1254   0.0413   0.6939     N
N       0.1254   0.1934   0.9585     N
N       0.1254   0.3066   0.5415     N
N       0.1254   0.4587   0.8061     N
N       0.1254   0.5413   0.1939     N
N       0.1254   0.6934   0.4585     N
N       0.1254   0.8066   0.0415     N
N       0.1254   0.9587   0.3061     N
H       0.1282   0.0123    0.227     H
H       0.1282   0.2279   0.4868     H
H       0.1282   0.2721   0.0132     H
H       0.1282   0.4877    0.273     H
H       0.1282   0.5123    0.727     H
H       0.1282   0.7279   0.9868     H
H       0.1282   0.7721   0.5132     H
H       0.1282   0.9877    0.773     H
H       0.1297   0.2028   0.0154     H
H       0.1297   0.2972   0.4846     H
H       0.1297   0.7028   0.5154     H
H       0.1297   0.7972   0.9846     H
H       0.1302   0.0155   0.2977     H
H       0.1302   0.4845   0.2023     H
H       0.1302   0.5155   0.7977     H
H       0.1302   0.9845   0.7023     H
C       0.1315   0.0415   0.6549     C
C       0.1315   0.4585   0.8451     C
C       0.1315   0.5415   0.1549     C
C       0.1315   0.9585   0.3451     C
C       0.1317   0.1548   0.9586     C
C       0.1317   0.3452   0.5414     C
C       0.1317   0.6548   0.4586     C
C       0.1317   0.8452   0.0414     C
C       0.1322    0.077   0.8797     C
C       0.1322    0.423   0.6203     C
C       0.1322    0.577   0.3797     C
C       0.1322    0.923   0.1203     C
C       0.1326   0.1201   0.5776     C
C       0.1326   0.3799   0.9224     C
C       0.1326   0.6201   0.0776     C
C       0.1326   0.8799   0.4224     C
C       0.1368   0.0077   0.7164     C
C       0.1368   0.4923   0.7836     C
C       0.1368   0.5077   0.2164     C
C       0.1368   0.9923   0.2836     C
C        0.137   0.2168   0.9915     C
C        0.137   0.2832   0.5085     C
C        0.137   0.7168   0.4915     C
C        0.137   0.7832   0.0085     C
O       0.1375   0.0127    0.854     O
O       0.1375   0.4873    0.646     O
O       0.1375   0.5127    0.354     O
O       0.1375   0.9873    0.146     O
O       0.1378   0.1457   0.5126     O
O       0.1378   0.3543   0.9874     O
O       0.1378   0.6457   0.0126     O
O       0.1378   0.8543   0.4874     O
C       0.1423   0.0878   0.5997     C
C       0.1423   0.4122   0.9003     C
C       0.1423   0.5878   0.0997     C
C       0.1423   0.9122   0.4003     C
C       0.1425   0.1001   0.9127     C
C       0.1425   0.3999   0.5873     C
C       0.1425   0.6001   0.4127     C
C       0.1425   0.8999   0.0873     C
O       0.1457   0.0126   0.6378     O
O       0.1457   0.4874   0.8622     O
O       0.1457   0.5126   0.1378     O
O       0.1457   0.9874   0.3622     O
O        0.146   0.1375   0.9873     O
O        0.146   0.3625   0.5127     O
O        0.146   0.6375   0.4873     O
O        0.146   0.8625   0.0127     O
C       0.1548   0.0414   0.8683     C
C       0.1548   0.4586   0.6317     C
C       0.1548   0.5414   0.3683     C
C       0.1548   0.9586   0.1317     C
C       0.1549   0.1315   0.5415     C
C       0.1549   0.3685   0.9585     C
C       0.1549   0.6315   0.0415     C
C       0.1549   0.8685   0.4585     C
H       0.1638   0.0727   0.5928     H
H       0.1638   0.4273   0.9072     H
H       0.1638   0.5727   0.0928     H
H       0.1638   0.9273   0.4072     H
H       0.1644   0.0934   0.9275     H
H       0.1644   0.4066   0.5725     H
H       0.1644   0.5934   0.4275     H
H       0.1644   0.9066   0.0725     H
C       0.1811   0.2246   0.9929     C
C       0.1811   0.2754   0.5071     C
C       0.1811   0.7246   0.4929     C
C       0.1811   0.7754   0.0071     C
C       0.1817    0.007   0.7246     C
C       0.1817    0.493   0.7754     C
C       0.1817    0.507   0.2246     C
C       0.1817    0.993   0.2754     C
N       0.1934   0.0415   0.8746     N
N       0.1934   0.4585   0.6254     N
N       0.1934   0.5415   0.3746     N
N       0.1934   0.9585   0.1254     N
N       0.1939   0.1254   0.5413     N
N       0.1939   0.3746   0.9587     N
N       0.1939   0.6254   0.0413     N
N       0.1939   0.8746   0.4587     N
O       0.1948    0.234   0.0256     O
O       0.1948    0.266   0.4744     O
O       0.1948    0.734   0.5256     O
O       0.1948    0.766   0.9744     O
O       0.1954   0.0255   0.2663     O
O       0.1954   0.4745   0.2337     O
O       0.1954   0.5255   0.7663     O
O       0.1954   0.9745   0.7337     O
O      0.19925    0.039   0.7237     O
O      0.19925    0.461   0.7763     O
O      0.19925    0.539   0.2237     O
O      0.19925    0.961   0.2763     O
O       0.1993   0.2239   0.9607     O
O       0.1993   0.2761   0.5393     O
O       0.1993   0.7239   0.4607     O
O       0.1993   0.7761   0.0393     O
H       0.2023   0.1302   0.4845     H
H       0.2023   0.3698   0.0155     H
H       0.2023   0.6302   0.9845     H
H       0.2023   0.8698   0.5155     H
H       0.2028   0.0154   0.1297     H
H       0.2028   0.4846   0.3703     H
H       0.2028   0.5154   0.6297     H
H       0.2028   0.9846   0.8703     H
H       0.2043   0.0613   0.8856     H
H       0.2043   0.4387   0.6144     H
H       0.2043   0.5613   0.3856     H
H       0.2043   0.9387   0.1144     H
H       0.2046    0.116   0.5623     H
H       0.2046    0.384   0.9377     H
H       0.2046    0.616   0.0623     H
H       0.2046    0.884   0.4377     H
Cu     0.21089      0.0      0.5    Cu
Cu     0.21089      0.5      0.0    Cu
Cu     0.21099      0.0      0.0    Cu
Cu     0.21099      0.5      0.5    Cu
O       0.2136   0.0555   0.9912     O
O       0.2136   0.4445   0.5088     O
O       0.2136   0.5555   0.4912     O
O       0.2136   0.9445   0.0088     O
O       0.2137   0.0089   0.5559     O
O       0.2137   0.4911   0.9441     O
O       0.2137   0.5089   0.0559     O
O       0.2137   0.9911   0.4441     O
C       0.2164   0.1368   0.5077     C
C       0.2164   0.3632   0.9923     C
C       0.2164   0.6368   0.0077     C
C       0.2164   0.8632   0.4923     C
C       0.2168   0.0085    0.863     C
C       0.2168   0.4915    0.637     C
C       0.2168   0.5085    0.363     C
C       0.2168   0.9915    0.137     C
O       0.2225   0.0074   0.0581     O
O       0.2225   0.4926   0.4419     O
O       0.2225   0.5074   0.5581     O
O       0.2225   0.9926   0.9419     O
O       0.2228   0.0578   0.4926     O
O       0.2228   0.4422   0.0074     O
O       0.2228   0.5578   0.9926     O
O       0.2228   0.9422   0.5074     O
O       0.2237  0.19925    0.539     O
O       0.2237  0.30075    0.961     O
O       0.2237  0.69925    0.039     O
O       0.2237  0.80075    0.461     O
O       0.2239   0.0393   0.8007     O
O       0.2239   0.4607   0.6993     O
O       0.2239   0.5393   0.3007     O
O       0.2239   0.9607   0.1993     O
C       0.2246   0.0071   0.8189     C
C       0.2246   0.1817    0.507     C
C       0.2246   0.3183    0.993     C
C       0.2246   0.4929   0.6811     C
C       0.2246   0.5071   0.3189     C
C       0.2246   0.6817    0.007     C
C       0.2246   0.8183    0.493     C
C       0.2246   0.9929   0.1811     C
H        0.227   0.1282   0.0123     H
H        0.227   0.3718   0.4877     H
H        0.227   0.6282   0.5123     H
H        0.227   0.8718   0.9877     H
H       0.2279   0.0132   0.3718     H
H       0.2279   0.4868   0.1282     H
H       0.2279   0.5132   0.8718     H
H       0.2279   0.9868   0.6282     H
H       0.2298   0.0323    0.623     H
H       0.2298   0.4677    0.877     H
H       0.2298   0.5323    0.123     H
H       0.2298   0.9677    0.377     H
H         0.23   0.1224   0.9669     H
H         0.23   0.3776   0.5331     H
H         0.23   0.6224   0.4669     H
H         0.23   0.8776   0.0331     H
O       0.2337   0.1954   0.4745     O
O       0.2337   0.3046   0.0255     O
O       0.2337   0.6954   0.9745     O
O       0.2337   0.8046   0.5255     O
O        0.234   0.0256   0.1948     O
O        0.234   0.4744   0.3052     O
O        0.234   0.5256   0.6948     O
O        0.234   0.9744   0.8052     O
C       0.2433   0.0079   0.6173     C
C       0.2433   0.4921   0.8827     C
C       0.2433   0.5079   0.1173     C
C       0.2433   0.9921   0.3827     C
C       0.2438   0.1173   0.9926     C
C       0.2438   0.3827   0.5074     C
C       0.2438   0.6173   0.4926     C
C       0.2438   0.8827   0.0074     C
C       0.2454   0.0737    0.997     C
C       0.2454   0.4263    0.503     C
C       0.2454   0.5737    0.497     C
C       0.2454   0.9263    0.003     C
C       0.2455   0.0028   0.5735     C
C       0.2455   0.4972   0.9265     C
C       0.2455   0.5028   0.0735     C
C       0.2455   0.9972   0.4265     C
Cu        0.25  0.03157     0.25    Cu
Cu        0.25  0.04572     0.75    Cu
Cu        0.25     0.25  0.03157    Cu
Cu        0.25     0.25  0.46843    Cu
Cu        0.25     0.25  0.54572    Cu
Cu        0.25     0.25  0.95428    Cu
Cu        0.25  0.45428     0.75    Cu
Cu        0.25  0.46843     0.25    Cu
Cu        0.25  0.53157     0.75    Cu
Cu        0.25  0.54572     0.25    Cu
Cu        0.25     0.75  0.04572    Cu
Cu        0.25     0.75  0.45428    Cu
Cu        0.25     0.75  0.53157    Cu
Cu        0.25     0.75  0.96843    Cu
Cu        0.25  0.95428     0.25    Cu
Cu        0.25  0.96843     0.75    Cu
C       0.2545   0.0028   0.9265     C
C       0.2545   0.4972   0.5735     C
C       0.2545   0.5028   0.4265     C
C       0.2545   0.9972   0.0735     C
C       0.2546   0.0737    0.503     C
C       0.2546   0.4263    0.997     C
C       0.2546   0.5737    0.003     C
C       0.2546   0.9263    0.497     C
C       0.2562   0.1173   0.5074     C
C       0.2562   0.3827   0.9926     C
C       0.2562   0.6173   0.0074     C
C       0.2562   0.8827   0.4926     C
C       0.2567   0.0079   0.8827     C
C       0.2567   0.4921   0.6173     C
C       0.2567   0.5079   0.3827     C
C       0.2567   0.9921   0.1173     C
O        0.266   0.0256   0.3052     O
O        0.266   0.4744   0.1948     O
O        0.266   0.5256   0.8052     O
O        0.266   0.9744   0.6948     O
O       0.2663   0.1954   0.0255     O
O       0.2663   0.3046   0.4745     O
O       0.2663   0.6954   0.5255     O
O       0.2663   0.8046   0.9745     O
H         0.27   0.1224   0.5331     H
H         0.27   0.3776   0.9669     H
H         0.27   0.6224   0.0331     H
H         0.27   0.8776   0.4669     H
H       0.2702   0.0323    0.877     H
H       0.2702   0.4677    0.623     H
H       0.2702   0.5323    0.377     H
H       0.2702   0.9677    0.123     H
H       0.2721   0.0132   0.1282     H
H       0.2721   0.4868   0.3718     H
H       0.2721   0.5132   0.6282     H
H       0.2721   0.9868   0.8718     H
H        0.273   0.1282   0.4877     H
H        0.273   0.3718   0.0123     H
H        0.273   0.6282   0.9877     H
H        0.273   0.8718   0.5123     H
C       0.2754   0.0071   0.6811     C
C       0.2754   0.1817    0.993     C
C       0.2754   0.3183    0.507     C
C       0.2754   0.4929   0.8189     C
C       0.2754   0.5071   0.1811     C
C       0.2754   0.6817    0.493     C
C       0.2754   0.8183    0.007     C
C       0.2754   0.9929   0.3189     C
O       0.2761   0.0393   0.6993     O
O       0.2761   0.4607   0.8007     O
O       0.2761   0.5393   0.1993     O
O       0.2761   0.9607   0.3007     O
O       0.2763  0.19925    0.961     O
O       0.2763  0.30075    0.539     O
O       0.2763  0.69925    0.461     O
O       0.2763  0.80075    0.039     O
O       0.2772   0.0578   0.0074     O
O       0.2772   0.4422   0.4926     O
O       0.2772   0.5578   0.5074     O
O       0.2772   0.9422   0.9926     O
O       0.2775   0.0074   0.4419     O
O       0.2775   0.4926   0.0581     O
O       0.2775   0.5074   0.9419     O
O       0.2775   0.9926   0.5581     O
C       0.2832   0.0085    0.637     C
C       0.2832   0.4915    0.863     C
C       0.2832   0.5085    0.137     C
C       0.2832   0.9915    0.363     C
C       0.2836   0.1368   0.9923     C
C       0.2836   0.3632   0.5077     C
C       0.2836   0.6368   0.4923     C
C       0.2836   0.8632   0.0077     C
O       0.2863   0.0089   0.9441     O
O       0.2863   0.4911   0.5559     O
O       0.2863   0.5089   0.4441     O
O       0.2863   0.9911   0.0559     O
O       0.2864   0.0555   0.5088     O
O       0.2864   0.4445   0.9912     O
O       0.2864   0.5555   0.0088     O
O       0.2864   0.9445   0.4912     O
Cu     0.28901      0.0      0.5    Cu
Cu     0.28901      0.5      0.0    Cu
Cu     0.28911      0.0      0.0    Cu
Cu     0.28911      0.5      0.5    Cu
H       0.2954    0.116   0.9377     H
H       0.2954    0.384   0.5623     H
H       0.2954    0.616   0.4377     H
H       0.2954    0.884   0.0623     H
H       0.2957   0.0613   0.6144     H
H       0.2957   0.4387   0.8856     H
H       0.2957   0.5613   0.1144     H
H       0.2957   0.9387   0.3856     H
H       0.2972   0.0154   0.3703     H
H       0.2972   0.4846   0.1297     H
H       0.2972   0.5154   0.8703     H
H       0.2972   0.9846   0.6297     H
H       0.2977   0.1302   0.0155     H
H       0.2977   0.3698   0.4845     H
H       0.2977   0.6302   0.5155     H
H       0.2977   0.8698   0.9845     H
O       0.3007   0.2239   0.5393     O
O       0.3007   0.2761   0.9607     O
O       0.3007   0.7239   0.0393     O
O       0.3007   0.7761   0.4607     O
O      0.30075    0.039   0.7763     O
O      0.30075    0.461   0.7237     O
O      0.30075    0.539   0.2763     O
O      0.30075    0.961   0.2237     O
O       0.3046   0.0255   0.2337     O
O       0.3046   0.4745   0.2663     O
O       0.3046   0.5255   0.7337     O
O       0.3046   0.9745   0.7663     O
O       0.3052    0.234   0.4744     O
O       0.3052    0.266   0.0256     O
O       0.3052    0.734   0.9744     O
O       0.3052    0.766   0.5256     O
N       0.3061   0.1254   0.9587     N
N       0.3061   0.3746   0.5413     N
N       0.3061   0.6254   0.4587     N
N       0.3061   0.8746   0.0413     N
N       0.3066   0.0415   0.6254     N
N       0.3066   0.4585   0.8746     N
N       0.3066   0.5415   0.1254     N
N       0.3066   0.9585   0.3746     N
C       0.3183    0.007   0.7754     C
C       0.3183    0.493   0.7246     C
C       0.3183    0.507   0.2754     C
C       0.3183    0.993   0.2246     C
C       0.3189   0.2246   0.5071     C
C       0.3189   0.2754   0.9929     C
C       0.3189   0.7246   0.0071     C
C       0.3189   0.7754   0.4929     C
H       0.3356   0.0934   0.5725     H
H       0.3356   0.4066   0.9275     H
H       0.3356   0.5934   0.0725     H
H       0.3356   0.9066   0.4275     H
H       0.3362   0.0727   0.9072     H
H       0.3362   0.4273   0.5928     H
H       0.3362   0.5727   0.4072     H
H       0.3362   0.9273   0.0928     H
C       0.3451   0.1315   0.9585     C
C       0.3451   0.3685   0.5415     C
C       0.3451   0.6315   0.4585     C
C       0.3451   0.8685   0.0415     C
C       0.3452   0.0414   0.6317     C
C       0.3452   0.4586   0.8683     C
C       0.3452   0.5414   0.1317     C
C       0.3452   0.9586   0.3683     C
O        0.354   0.1375   0.5127     O
O        0.354   0.3625   0.9873     O
O        0.354   0.6375   0.0127     O
O        0.354   0.8625   0.4873     O
O       0.3543   0.0126   0.8622     O
O       0.3543   0.4874   0.6378     O
O       0.3543   0.5126   0.3622     O
O       0.3543   0.9874   0.1378     O
C       0.3575   0.1001   0.5873     C
C       0.3575   0.3999   0.9127     C
C       0.3575   0.6001   0.0873     C
C       0.3575   0.8999   0.4127     C
C       0.3577   0.0878   0.9003     C
C       0.3577   0.4122   0.5997     C
C       0.3577   0.5878   0.4003     C
C       0.3577   0.9122   0.0997     C
O       0.3622   0.1457   0.9874     O
O       0.3622   0.3543   0.5126     O
O       0.3622   0.6457   0.4874     O
O       0.3622   0.8543   0.0126     O
O       0.3625   0.0127    0.646     O
O       0.3625   0.4873    0.854     O
O       0.3625   0.5127    0.146     O
O       0.3625   0.9873    0.354     O
C        0.363   0.2168   0.5085     C
C        0.363   0.2832   0.9915     C
C        0.363   0.7168   0.0085     C
C        0.363   0.7832   0.4915     C
C       0.3632   0.0077   0.7836     C
C       0.3632   0.4923   0.7164     C
C       0.3632   0.5077   0.2836     C
C       0.3632   0.9923   0.2164     C
C       0.3674   0.1201   0.9224     C
C       0.3674   0.3799   0.5776     C
C       0.3674   0.6201   0.4224     C
C       0.3674   0.8799   0.0776     C
C       0.3678    0.077   0.6203     C
C       0.3678    0.423   0.8797     C
C       0.3678    0.577   0.1203     C
C       0.3678    0.923   0.3797     C
C       0.3683   0.1548   0.5414     C
C       0.3683   0.3452   0.9586     C
C       0.3683   0.6548   0.0414     C
C       0.3683   0.8452   0.4586     C
C       0.3685   0.0415   0.8451     C
C       0.3685   0.4585   0.6549     C
C       0.3685   0.5415   0.3451     C
C       0.3685   0.9585   0.1549     C
H       0.3698   0.0155   0.2023     H
H       0.3698   0.4845   0.2977     H
H       0.3698   0.5155   0.7023     H
H       0.3698   0.9845   0.7977     H
H       0.3703   0.2028   0.4846     H
H       0.3703   0.2972   0.0154     H
H       0.3703   0.7028   0.9846     H
H       0.3703   0.7972   0.5154     H
H       0.3718   0.0123    0.273     H
H       0.3718   0.2279   0.0132     H
H       0.3718   0.2721   0.4868     H
H       0.3718   0.4877    0.227     H
H       0.3718   0.5123    0.773     H
H       0.3718   0.7279   0.5132     H
H       0.3718   0.7721   0.9868     H
H       0.3718   0.9877    0.727     H
N       0.3746   0.0413   0.8061     N
N       0.3746   0.1934   0.5415     N
N       0.3746   0.3066   0.9585     N
N       0.3746   0.4587   0.6939     N
N       0.3746   0.5413   0.3061     N
N       0.3746   0.6934   0.0415     N
N       0.3746   0.8066   0.4585     N
N       0.3746   0.9587   0.1939     N
H        0.377   0.2298   0.9677     H
H        0.377   0.2702   0.5323     H
H        0.377   0.7298   0.4677     H
H        0.377   0.7702   0.0323     H
H       0.3776   0.0331     0.73     H
H       0.3776   0.4669     0.77     H
H       0.3776   0.5331     0.23     H
H       0.3776   0.9669     0.27     H
C       0.3797   0.1322    0.577     C
C       0.3797   0.3678    0.923     C
C       0.3797   0.6322    0.077     C
C       0.3797   0.8678    0.423     C
C       0.3799   0.0776   0.8674     C
C       0.3799   0.4224   0.6326     C
C       0.3799   0.5776   0.3674     C
C       0.3799   0.9224   0.1326     C
C       0.3827   0.0074   0.7438     C
C       0.3827   0.2433   0.9921     C
C       0.3827   0.2567   0.5079     C
C       0.3827   0.4926   0.7562     C
C       0.3827   0.5074   0.2438     C
C       0.3827   0.7433   0.4921     C
C       0.3827   0.7567   0.0079     C
C       0.3827   0.9926   0.2562     C
H        0.384   0.0623   0.7954     H
H        0.384   0.4377   0.7046     H
H        0.384   0.5623   0.2954     H
H        0.384   0.9377   0.2046     H
H       0.3856   0.2043   0.5613     H
H       0.3856   0.2957   0.9387     H
H       0.3856   0.7043   0.0613     H
H       0.3856   0.7957   0.4387     H
C       0.3999   0.0873   0.6425     C
C       0.3999   0.4127   0.8575     C
C       0.3999   0.5873   0.1425     C
C       0.3999   0.9127   0.3575     C
C       0.4003   0.1423   0.9122     C
C       0.4003   0.3577   0.5878     C
C       0.4003   0.6423   0.4122     C
C       0.4003   0.8577   0.0878     C
H       0.4066   0.0725   0.6644     H
H       0.4066   0.4275   0.8356     H
H       0.4066   0.5725   0.1644     H
H       0.4066   0.9275   0.3356     H
H       0.4072   0.1638   0.9273     H
H       0.4072   0.3362   0.5727     H
H       0.4072   0.6638   0.4273     H
H       0.4072   0.8362   0.0727     H
C       0.4122   0.0997   0.8577     C
C       0.4122   0.4003   0.6423     C
C       0.4122   0.5997   0.3577     C
C       0.4122   0.9003   0.1423     C
C       0.4127   0.1425   0.6001     C
C       0.4127   0.3575   0.8999     C
C       0.4127   0.6425   0.1001     C
C       0.4127   0.8575   0.3999     C
C       0.4224   0.1326   0.8799     C
C       0.4224   0.3674   0.6201     C
C       0.4224   0.6326   0.3799     C
C       0.4224   0.8674   0.1201     C
C        0.423   0.1203   0.6322     C
C        0.423   0.3797   0.8678     C
C        0.423   0.6203   0.1322     C
C        0.423   0.8797   0.3678     C
C       0.4263    0.003   0.7454     C
C       0.4263    0.497   0.7546     C
C       0.4263    0.503   0.2454     C
C       0.4263    0.997   0.2546     C
C       0.4265   0.2455   0.9972     C
C       0.4265   0.2545   0.5028     C
C       0.4265   0.7455   0.4972     C
C       0.4265   0.7545   0.0028     C
H       0.4273   0.0928   0.8362     H
H       0.4273   0.4072   0.6638     H
H       0.4273   0.5928   0.3362     H
H       0.4273   0.9072   0.1638     H
H       0.4275   0.1644   0.5934     H
H       0.4275   0.3356   0.9066     H
H       0.4275   0.6644   0.0934     H
H       0.4275   0.8356   0.4066     H
H       0.4377   0.2046    0.884     H
H       0.4377   0.2954    0.616     H
H       0.4377   0.7046    0.384     H
H       0.4377   0.7954    0.116     H
H       0.4387   0.1144   0.7043     H
H       0.4387   0.3856   0.7957     H
H       0.4387   0.6144   0.2043     H
H       0.4387   0.8856   0.2957     H
O       0.4419   0.2225   0.4926     O
O       0.4419   0.2775   0.0074     O
O       0.4419   0.7225   0.9926     O
O       0.4419   0.7775   0.5074     O
O       0.4422   0.0074   0.2228     O
O       0.4422   0.4926   0.2772     O
O       0.4422   0.5074   0.7228     O
O       0.4422   0.9926   0.7772     O
O       0.4441   0.2137   0.9911     O
O       0.4441   0.2863   0.5089     O
O       0.4441   0.7137   0.4911     O
O       0.4441   0.7863   0.0089     O
O       0.4445   0.0088   0.7136     O
O       0.4445   0.4912   0.7864     O
O       0.4445   0.5088   0.2136     O
O       0.4445   0.9912   0.2864     O
Cu     0.45428     0.25     0.75    Cu
Cu     0.45428     0.75     0.25    Cu
N       0.4585   0.1254   0.6934     N
C       0.4585   0.1549   0.8685     C
C       0.4585   0.3451   0.6315     C
N       0.4585   0.3746   0.8066     N
N       0.4585   0.6254   0.1934     N
C       0.4585   0.6549   0.3685     C
C       0.4585   0.8451   0.1315     C
N       0.4585   0.8746   0.3066     N
C       0.4586   0.1317   0.6548     C
C       0.4586   0.3683   0.8452     C
C       0.4586   0.6317   0.1548     C
C       0.4586   0.8683   0.3452     C
N       0.4587   0.1939   0.8746     N
N       0.4587   0.3061   0.6254     N
N       0.4587   0.6939   0.3746     N
N       0.4587   0.8061   0.1254     N
O       0.4607   0.1993   0.7239     O
O       0.4607   0.3007   0.7761     O
O       0.4607   0.6993   0.2239     O
O       0.4607   0.8007   0.2761     O
O        0.461   0.2237  0.80075     O
O        0.461   0.2763  0.69925     O
O        0.461   0.7237  0.30075     O
O        0.461   0.7763  0.19925     O
H       0.4669     0.23   0.6224     H
H       0.4669     0.27   0.8776     H
H       0.4669     0.73   0.1224     H
H       0.4669     0.77   0.3776     H
H       0.4677    0.123   0.7702     H
H       0.4677    0.377   0.7298     H
H       0.4677    0.623   0.2702     H
H       0.4677    0.877   0.2298     H
Cu     0.46843     0.25     0.25    Cu
Cu     0.46843     0.75     0.75    Cu
O       0.4744   0.1948    0.266     O
O       0.4744   0.3052    0.234     O
O       0.4744   0.6948    0.766     O
O       0.4744   0.8052    0.734     O
O       0.4745   0.2337   0.1954     O
O       0.4745   0.2663   0.3046     O
O       0.4745   0.7337   0.6954     O
O       0.4745   0.7663   0.8046     O
H       0.4845   0.2023   0.1302     H
H       0.4845   0.2977   0.3698     H
H       0.4845   0.7023   0.6302     H
H       0.4845   0.7977   0.8698     H
H       0.4846   0.1297   0.2972     H
H       0.4846   0.3703   0.2028     H
H       0.4846   0.6297   0.7972     H
H       0.4846   0.8703   0.7028     H
H       0.4868   0.1282   0.2279     H
H       0.4868   0.3718   0.2721     H
H       0.4868   0.6282   0.7279     H
H       0.4868   0.8718   0.7721     H
O       0.4873    0.146   0.6375     O
O       0.4873    0.354   0.8625     O
O       0.4873    0.646   0.1375     O
O       0.4873    0.854   0.3625     O
O       0.4874   0.1378   0.8543     O
O       0.4874   0.3622   0.6457     O
O       0.4874   0.6378   0.3543     O
O       0.4874   0.8622   0.1457     O
H       0.4877    0.227   0.3718     H
H       0.4877    0.273   0.1282     H
H       0.4877    0.727   0.8718     H
H       0.4877    0.773   0.6282     H
O       0.4911   0.0559   0.7863     O
O       0.4911   0.4441   0.7137     O
O       0.4911   0.5559   0.2863     O
O       0.4911   0.9441   0.2137     O
O       0.4912   0.2136   0.5555     O
O       0.4912   0.2864   0.9445     O
O       0.4912   0.7136   0.0555     O
O       0.4912   0.7864   0.4445     O
C       0.4915    0.137   0.7168     C
C       0.4915    0.363   0.7832     C
C       0.4915    0.637   0.2168     C
C       0.4915    0.863   0.2832     C
C       0.4921   0.1173   0.7567     C
C       0.4921   0.3827   0.7433     C
C       0.4921   0.6173   0.2567     C
C       0.4921   0.8827   0.2433     C
C       0.4923   0.2164   0.8632     C
C       0.4923   0.2836   0.6368     C
C       0.4923   0.7164   0.3632     C
C       0.4923   0.7836   0.1368     C
O       0.4926   0.0581   0.2775     O
O       0.4926   0.2228   0.0578     O
C       0.4926   0.2438   0.6173     C
C       0.4926   0.2562   0.8827     C
O       0.4926   0.2772   0.4422     O
O       0.4926   0.4419   0.2225     O
O       0.4926   0.5581   0.7775     O
O       0.4926   0.7228   0.5578     O
C       0.4926   0.7438   0.1173     C
C       0.4926   0.7562   0.3827     C
O       0.4926   0.7772   0.9422     O
O       0.4926   0.9419   0.7225     O
C       0.4929   0.1811   0.7246     C
C       0.4929   0.3189   0.7754     C
C       0.4929   0.6811   0.2246     C
C       0.4929   0.8189   0.2754     C
C        0.493   0.2246   0.8183     C
C        0.493   0.2754   0.6817     C
C        0.493   0.7246   0.3183     C
C        0.493   0.7754   0.1817     C
C        0.497   0.2454   0.5737     C
C        0.497   0.2546   0.9263     C
C        0.497   0.7454   0.0737     C
C        0.497   0.7546   0.4263     C
C       0.4972   0.0735   0.7545     C
C       0.4972   0.4265   0.7455     C
C       0.4972   0.5735   0.2545     C
C       0.4972   0.9265   0.2455     C
Cu         0.5      0.0  0.21089    Cu
Cu         0.5      0.0  0.28901    Cu
Cu         0.5      0.0  0.71099    Cu
Cu         0.5      0.0  0.78911    Cu
Cu         0.5  0.21089      0.0    Cu
Cu         0.5  0.21099      0.5    Cu
Cu         0.5  0.28901      0.0    Cu
Cu         0.5  0.28911      0.5    Cu
Cu         0.5      0.5  0.21099    Cu
Cu         0.5      0.5  0.28911    Cu
Cu         0.5      0.5  0.71089    Cu
Cu         0.5      0.5  0.78901    Cu
Cu         0.5  0.71089      0.5    Cu
Cu         0.5  0.71099      0.0    Cu
Cu         0.5  0.78901      0.5    Cu
Cu         0.5  0.78911      0.0    Cu
C       0.5028   0.0735   0.2455     C
C       0.5028   0.4265   0.2545     C
C       0.5028   0.5735   0.7455     C
C       0.5028   0.9265   0.7545     C
C        0.503   0.2454   0.4263     C
C        0.503   0.2546   0.0737     C
C        0.503   0.7454   0.9263     C
C        0.503   0.7546   0.5737     C
C        0.507   0.2246   0.1817     C
C        0.507   0.2754   0.3183     C
C        0.507   0.7246   0.6817     C
C        0.507   0.7754   0.8183     C
C       0.5071   0.1811   0.2754     C
C       0.5071   0.3189   0.2246     C
C       0.5071   0.6811   0.7754     C
C       0.5071   0.8189   0.7246     C
O       0.5074   0.0581   0.7225     O
O       0.5074   0.2228   0.9422     O
C       0.5074   0.2438   0.3827     C
C       0.5074   0.2562   0.1173     C
O       0.5074   0.2772   0.5578     O
O       0.5074   0.4419   0.7775     O
O       0.5074   0.5581   0.2225     O
O       0.5074   0.7228   0.4422     O
C       0.5074   0.7438   0.8827     C
C       0.5074   0.7562   0.6173     C
O       0.5074   0.7772   0.0578     O
O       0.5074   0.9419   0.2775     O
C       0.5077   0.2164   0.1368     C
C       0.5077   0.2836   0.3632     C
C       0.5077   0.7164   0.6368     C
C       0.5077   0.7836   0.8632     C
C       0.5079   0.1173   0.2433     C
C       0.5079   0.3827   0.2567     C
C       0.5079   0.6173   0.7433     C
C       0.5079   0.8827   0.7567     C
C       0.5085    0.137   0.2832     C
C       0.5085    0.363   0.2168     C
C       0.5085    0.637   0.7832     C
C       0.5085    0.863   0.7168     C
O       0.5088   0.2136   0.4445     O
O       0.5088   0.2864   0.0555     O
O       0.5088   0.7136   0.9445     O
O       0.5088   0.7864   0.5555     O
O       0.5089   0.0559   0.2137     O
O       0.5089   0.4441   0.2863     O
O       0.5089   0.5559   0.7137     O
O       0.5089   0.9441   0.7863     O
H       0.5123    0.227   0.6282     H
H       0.5123    0.273   0.8718     H
H       0.5123    0.727   0.1282     H
H       0.5123    0.773   0.3718     H
O       0.5126   0.1378   0.1457     O
O       0.5126   0.3622   0.3543     O
O       0.5126   0.6378   0.6457     O
O       0.5126   0.8622   0.8543     O
O       0.5127    0.146   0.3625     O
O       0.5127    0.354   0.1375     O
O       0.5127    0.646   0.8625     O
O       0.5127    0.854   0.6375     O
H       0.5132   0.1282   0.7721     H
H       0.5132   0.3718   0.7279     H
H       0.5132   0.6282   0.2721     H
H       0.5132   0.8718   0.2279     H
H       0.5154   0.1297   0.7028     H
H       0.5154   0.3703   0.7972     H
H       0.5154   0.6297   0.2028     H
H       0.5154   0.8703   0.2972     H
H       0.5155   0.2023   0.8698     H
H       0.5155   0.2977   0.6302     H
H       0.5155   0.7023   0.3698     H
H       0.5155   0.7977   0.1302     H
O       0.5255   0.2337   0.8046     O
O       0.5255   0.2663   0.6954     O
O       0.5255   0.7337   0.3046     O
O       0.5255   0.7663   0.1954     O
O       0.5256   0.1948    0.734     O
O       0.5256   0.3052    0.766     O
O       0.5256   0.6948    0.234     O
O       0.5256   0.8052    0.266     O
Cu     0.53157     0.25     0.75    Cu
Cu     0.53157     0.75     0.25    Cu
H       0.5323    0.123   0.2298     H
H       0.5323    0.377   0.2702     H
H       0.5323    0.623   0.7298     H
H       0.5323    0.877   0.7702     H
H       0.5331     0.23   0.3776     H
H       0.5331     0.27   0.1224     H
H       0.5331     0.73   0.8776     H
H       0.5331     0.77   0.6224     H
O        0.539   0.2237  0.19925     O
O        0.539   0.2763  0.30075     O
O        0.539   0.7237  0.69925     O
O        0.539   0.7763  0.80075     O
O       0.5393   0.1993   0.2761     O
O       0.5393   0.3007   0.2239     O
O       0.5393   0.6993   0.7761     O
O       0.5393   0.8007   0.7239     O
N       0.5413   0.1939   0.1254     N
N       0.5413   0.3061   0.3746     N
N       0.5413   0.6939   0.6254     N
N       0.5413   0.8061   0.8746     N
C       0.5414   0.1317   0.3452     C
C       0.5414   0.3683   0.1548     C
C       0.5414   0.6317   0.8452     C
C       0.5414   0.8683   0.6548     C
N       0.5415   0.1254   0.3066     N
C       0.5415   0.1549   0.1315     C
C       0.5415   0.3451   0.3685     C
N       0.5415   0.3746   0.1934     N
N       0.5415   0.6254   0.8066     N
C       0.5415   0.6549   0.6315     C
C       0.5415   0.8451   0.8685     C
N       0.5415   0.8746   0.6934     N
Cu     0.54572     0.25     0.25    Cu
Cu     0.54572     0.75     0.75    Cu
O       0.5555   0.0088   0.2864     O
O       0.5555   0.4912   0.2136     O
O       0.5555   0.5088   0.7864     O
O       0.5555   0.9912   0.7136     O
O       0.5559   0.2137   0.0089     O
O       0.5559   0.2863   0.4911     O
O       0.5559   0.7137   0.5089     O
O       0.5559   0.7863   0.9911     O
O       0.5578   0.0074   0.7772     O
O       0.5578   0.4926   0.7228     O
O       0.5578   0.5074   0.2772     O
O       0.5578   0.9926   0.2228     O
O       0.5581   0.2225   0.5074     O
O       0.5581   0.2775   0.9926     O
O       0.5581   0.7225   0.0074     O
O       0.5581   0.7775   0.4926     O
H       0.5613   0.1144   0.2957     H
H       0.5613   0.3856   0.2043     H
H       0.5613   0.6144   0.7957     H
H       0.5613   0.8856   0.7043     H
H       0.5623   0.2046    0.116     H
H       0.5623   0.2954    0.384     H
H       0.5623   0.7046    0.616     H
H       0.5623   0.7954    0.884     H
H       0.5725   0.1644   0.4066     H
H       0.5725   0.3356   0.0934     H
H       0.5725   0.6644   0.9066     H
H       0.5725   0.8356   0.5934     H
H       0.5727   0.0928   0.1638     H
H       0.5727   0.4072   0.3362     H
H       0.5727   0.5928   0.6638     H
H       0.5727   0.9072   0.8362     H
C       0.5735   0.2455   0.0028     C
C       0.5735   0.2545   0.4972     C
C       0.5735   0.7455   0.5028     C
C       0.5735   0.7545   0.9972     C
C       0.5737    0.003   0.2546     C
C       0.5737    0.497   0.2454     C
C       0.5737    0.503   0.7546     C
C       0.5737    0.997   0.7454     C
C        0.577   0.1203   0.3678     C
C        0.577   0.3797   0.1322     C
C        0.577   0.6203   0.8678     C
C        0.577   0.8797   0.6322     C
C       0.5776   0.1326   0.1201     C
C       0.5776   0.3674   0.3799     C
C       0.5776   0.6326   0.6201     C
C       0.5776   0.8674   0.8799     C
C       0.5873   0.1425   0.3999     C
C       0.5873   0.3575   0.1001     C
C       0.5873   0.6425   0.8999     C
C       0.5873   0.8575   0.6001     C
C       0.5878   0.0997   0.1423     C
C       0.5878   0.4003   0.3577     C
C       0.5878   0.5997   0.6423     C
C       0.5878   0.9003   0.8577     C
H       0.5928   0.1638   0.0727     H
H       0.5928   0.3362   0.4273     H
H       0.5928   0.6638   0.5727     H
H       0.5928   0.8362   0.9273     H
H       0.5934   0.0725   0.3356     H
H       0.5934   0.4275   0.1644     H
H       0.5934   0.5725   0.8356     H
H       0.5934   0.9275   0.6644     H
C       0.5997   0.1423   0.0878     C
C       0.5997   0.3577   0.4122     C
C       0.5997   0.6423   0.5878     C
C       0.5997   0.8577   0.9122     C
C       0.6001   0.0873   0.3575     C
C       0.6001   0.4127   0.1425     C
C       0.6001   0.5873   0.8575     C
C       0.6001   0.9127   0.6425     C
H       0.6144   0.2043   0.4387     H
H       0.6144   0.2957   0.0613     H
H       0.6144   0.7043   0.9387     H
H       0.6144   0.7957   0.5613     H
H        0.616   0.0623   0.2046     H
H        0.616   0.4377   0.2954     H
H        0.616   0.5623   0.7046     H
H        0.616   0.9377   0.7954     H
C       0.6173   0.0074   0.2562     C
C       0.6173   0.2433   0.0079     C
C       0.6173   0.2567   0.4921     C
C       0.6173   0.4926   0.2438     C
C       0.6173   0.5074   0.7562     C
C       0.6173   0.7433   0.5079     C
C       0.6173   0.7567   0.9921     C
C       0.6173   0.9926   0.7438     C
C       0.6201   0.0776   0.1326     C
C       0.6201   0.4224   0.3674     C
C       0.6201   0.5776   0.6326     C
C       0.6201   0.9224   0.8674     C
C       0.6203   0.1322    0.423     C
C       0.6203   0.3678    0.077     C
C       0.6203   0.6322    0.923     C
C       0.6203   0.8678    0.577     C
H       0.6224   0.0331     0.27     H
H       0.6224   0.4669     0.23     H
H       0.6224   0.5331     0.77     H
H       0.6224   0.9669     0.73     H
H        0.623   0.2298   0.0323     H
H        0.623   0.2702   0.4677     H
H        0.623   0.7298   0.5323     H
H        0.623   0.7702   0.9677     H
N       0.6254   0.0413   0.1939     N
N       0.6254   0.1934   0.4585     N
N       0.6254   0.3066   0.0415     N
N       0.6254   0.4587   0.3061     N
N       0.6254   0.5413   0.6939     N
N       0.6254   0.6934   0.9585     N
N       0.6254   0.8066   0.5415     N
N       0.6254   0.9587   0.8061     N
H       0.6282   0.0123    0.727     H
H       0.6282   0.2279   0.9868     H
H       0.6282   0.2721   0.5132     H
H       0.6282   0.4877    0.773     H
H       0.6282   0.5123    0.227     H
H       0.6282   0.7279   0.4868     H
H       0.6282   0.7721   0.0132     H
H       0.6282   0.9877    0.273     H
H       0.6297   0.2028   0.5154     H
H       0.6297   0.2972   0.9846     H
H       0.6297   0.7028   0.0154     H
H       0.6297   0.7972   0.4846     H
H       0.6302   0.0155   0.7977     H
H       0.6302   0.4845   0.7023     H
H       0.6302   0.5155   0.2977     H
H       0.6302   0.9845   0.2023     H
C       0.6315   0.0415   0.1549     C
C       0.6315   0.4585   0.3451     C
C       0.6315   0.5415   0.6549     C
C       0.6315   0.9585   0.8451     C
C       0.6317   0.1548   0.4586     C
C       0.6317   0.3452   0.0414     C
C       0.6317   0.6548   0.9586     C
C       0.6317   0.8452   0.5414     C
C       0.6322    0.077   0.3797     C
C       0.6322    0.423   0.1203     C
C       0.6322    0.577   0.8797     C
C       0.6322    0.923   0.6203     C
C       0.6326   0.1201   0.0776     C
C       0.6326   0.3799   0.4224     C
C       0.6326   0.6201   0.5776     C
C       0.6326   0.8799   0.9224     C
C       0.6368   0.0077   0.2164     C
C       0.6368   0.4923   0.2836     C
C       0.6368   0.5077   0.7164     C
C       0.6368   0.9923   0.7836     C
C        0.637   0.2168   0.4915     C
C        0.637   0.2832   0.0085     C
C        0.637   0.7168   0.9915     C
C        0.637   0.7832   0.5085     C
O       0.6375   0.0127    0.354     O
O       0.6375   0.4873    0.146     O
O       0.6375   0.5127    0.854     O
O       0.6375   0.9873    0.646     O
O       0.6378   0.1457   0.0126     O
O       0.6378   0.3543   0.4874     O
O       0.6378   0.6457   0.5126     O
O       0.6378   0.8543   0.9874     O
C       0.6423   0.0878   0.0997     C
C       0.6423   0.4122   0.4003     C
C       0.6423   0.5878   0.5997     C
C       0.6423   0.9122   0.9003     C
C       0.6425   0.1001   0.4127     C
C       0.6425   0.3999   0.0873     C
C       0.6425   0.6001   0.9127     C
C       0.6425   0.8999   0.5873     C
O       0.6457   0.0126   0.1378     O
O       0.6457   0.4874   0.3622     O
O       0.6457   0.5126   0.6378     O
O       0.6457   0.9874   0.8622     O
O        0.646   0.1375   0.4873     O
O        0.646   0.3625   0.0127     O
O        0.646   0.6375   0.9873     O
O        0.646   0.8625   0.5127     O
C       0.6548   0.0414   0.3683     C
C       0.6548   0.4586   0.1317     C
C       0.6548   0.5414   0.8683     C
C       0.6548   0.9586   0.6317     C
C       0.6549   0.1315   0.0415     C
C       0.6549   0.3685   0.4585     C
C       0.6549   0.6315   0.5415     C
C       0.6549   0.8685   0.9585     C
H       0.6638   0.0727   0.0928     H
H       0.6638   0.4273   0.4072     H
H       0.6638   0.5727   0.5928     H
H       0.6638   0.9273   0.9072     H
H       0.6644   0.0934   0.4275     H
H       0.6644   0.4066   0.0725     H
H       0.6644   0.5934   0.9275     H
H       0.6644   0.9066   0.5725     H
C       0.6811   0.2246   0.4929     C
C       0.6811   0.2754   0.0071     C
C       0.6811   0.7246   0.9929     C
C       0.6811   0.7754   0.5071     C
C       0.6817    0.007   0.2246     C
C       0.6817    0.493   0.2754     C
C       0.6817    0.507   0.7246     C
C       0.6817    0.993   0.7754     C
N       0.6934   0.0415   0.3746     N
N       0.6934   0.4585   0.1254     N
N       0.6934   0.5415   0.8746     N
N       0.6934   0.9585   0.6254     N
N       0.6939   0.1254   0.0413     N
N       0.6939   0.3746   0.4587     N
N       0.6939   0.6254   0.5413     N
N       0.6939   0.8746   0.9587     N
O       0.6948    0.234   0.5256     O
O       0.6948    0.266   0.9744     O
O       0.6948    0.734   0.0256     O
O       0.6948    0.766   0.4744     O
O       0.6954   0.0255   0.7663     O
O       0.6954   0.4745   0.7337     O
O       0.6954   0.5255   0.2663     O
O       0.6954   0.9745   0.2337     O
O      0.69925    0.039   0.2237     O
O      0.69925    0.461   0.2763     O
O      0.69925    0.539   0.7237     O
O      0.69925    0.961   0.7763     O
O       0.6993   0.2239   0.4607     O
O       0.6993   0.2761   0.0393     O
O       0.6993   0.7239   0.9607     O
O       0.6993   0.7761   0.5393     O
H       0.7023   0.1302   0.9845     H
H       0.7023   0.3698   0.5155     H
H       0.7023   0.6302   0.4845     H
H       0.7023   0.8698   0.0155     H
H       0.7028   0.0154   0.6297     H
H       0.7028   0.4846   0.8703     H
H       0.7028   0.5154   0.1297     H
H       0.7028   0.9846   0.3703     H
H       0.7043   0.0613   0.3856     H
H       0.7043   0.4387   0.1144     H
H       0.7043   0.5613   0.8856     H
H       0.7043   0.9387   0.6144     H
H       0.7046    0.116   0.0623     H
H       0.7046    0.384   0.4377     H
H       0.7046    0.616   0.5623     H
H       0.7046    0.884   0.9377     H
Cu     0.71089      0.0      0.0    Cu
Cu     0.71089      0.5      0.5    Cu
Cu     0.71099      0.0      0.5    Cu
Cu     0.71099      0.5      0.0    Cu
O       0.7136   0.0555   0.4912     O
O       0.7136   0.4445   0.0088     O
O       0.7136   0.5555   0.9912     O
O       0.7136   0.9445   0.5088     O
O       0.7137   0.0089   0.0559     O
O       0.7137   0.4911   0.4441     O
O       0.7137   0.5089   0.5559     O
O       0.7137   0.9911   0.9441     O
C       0.7164   0.1368   0.0077     C
C       0.7164   0.3632   0.4923     C
C       0.7164   0.6368   0.5077     C
C       0.7164   0.8632   0.9923     C
C       0.7168   0.0085    0.363     C
C       0.7168   0.4915    0.137     C
C       0.7168   0.5085    0.863     C
C       0.7168   0.9915    0.637     C
O       0.7225   0.0074   0.5581     O
O       0.7225   0.4926   0.9419     O
O       0.7225   0.5074   0.0581     O
O       0.7225   0.9926   0.4419     O
O       0.7228   0.0578   0.9926     O
O       0.7228   0.4422   0.5074     O
O       0.7228   0.5578   0.4926     O
O       0.7228   0.9422   0.0074     O
O       0.7237  0.19925    0.039     O
O       0.7237  0.30075    0.461     O
O       0.7237  0.69925    0.539     O
O       0.7237  0.80075    0.961     O
O       0.7239   0.0393   0.3007     O
O       0.7239   0.4607   0.1993     O
O       0.7239   0.5393   0.8007     O
O       0.7239   0.9607   0.6993     O
C       0.7246   0.0071   0.3189     C
C       0.7246   0.1817    0.007     C
C       0.7246   0.3183    0.493     C
C       0.7246   0.4929   0.1811     C
C       0.7246   0.5071   0.8189     C
C       0.7246   0.6817    0.507     C
C       0.7246   0.8183    0.993     C
C       0.7246   0.9929   0.6811     C
H        0.727   0.1282   0.5123     H
H        0.727   0.3718   0.9877     H
H        0.727   0.6282   0.0123     H
H        0.727   0.8718   0.4877     H
H       0.7279   0.0132   0.8718     H
H       0.7279   0.4868   0.6282     H
H       0.7279   0.5132   0.3718     H
H       0.7279   0.9868   0.1282     H
H       0.7298   0.0323    0.123     H
H       0.7298   0.4677    0.377     H
H       0.7298   0.5323    0.623     H
H       0.7298   0.9677    0.877     H
H         0.73   0.1224   0.4669     H
H         0.73   0.3776   0.0331     H
H         0.73   0.6224   0.9669     H
H         0.73   0.8776   0.5331     H
O       0.7337   0.1954   0.9745     O
O       0.7337   0.3046   0.5255     O
O       0.7337   0.6954   0.4745     O
O       0.7337   0.8046   0.0255     O
O        0.734   0.0256   0.6948     O
O        0.734   0.4744   0.8052     O
O        0.734   0.5256   0.1948     O
O        0.734   0.9744   0.3052     O
C       0.7433   0.0079   0.1173     C
C       0.7433   0.4921   0.3827     C
C       0.7433   0.5079   0.6173     C
C       0.7433   0.9921   0.8827     C
C       0.7438   0.1173   0.4926     C
C       0.7438   0.3827   0.0074     C
C       0.7438   0.6173   0.9926     C
C       0.7438   0.8827   0.5074     C
C       0.7454   0.0737    0.497     C
C       0.7454   0.4263    0.003     C
C       0.7454   0.5737    0.997     C
C       0.7454   0.9263    0.503     C
C       0.7455   0.0028   0.0735     C
C       0.7455   0.4972   0.4265     C
C       0.7455   0.5028   0.5735     C
C       0.7455   0.9972   0.9265     C
Cu        0.75  0.03157     0.75    Cu
Cu        0.75  0.04572     0.25    Cu
Cu        0.75     0.25  0.04572    Cu
Cu        0.75     0.25  0.45428    Cu
Cu        0.75     0.25  0.53157    Cu
Cu        0.75     0.25  0.96843    Cu
Cu        0.75  0.45428     0.25    Cu
Cu        0.75  0.46843     0.75    Cu
Cu        0.75  0.53157     0.25    Cu
Cu        0.75  0.54572     0.75    Cu
Cu        0.75     0.75  0.03157    Cu
Cu        0.75     0.75  0.46843    Cu
Cu        0.75     0.75  0.54572    Cu
Cu        0.75     0.75  0.95428    Cu
Cu        0.75  0.95428     0.75    Cu
Cu        0.75  0.96843     0.25    Cu
C       0.7545   0.0028   0.4265     C
C       0.7545   0.4972   0.0735     C
C       0.7545   0.5028   0.9265     C
C       0.7545   0.9972   0.5735     C
C       0.7546   0.0737    0.003     C
C       0.7546   0.4263    0.497     C
C       0.7546   0.5737    0.503     C
C       0.7546   0.9263    0.997     C
C       0.7562   0.1173   0.0074     C
C       0.7562   0.3827   0.4926     C
C       0.7562   0.6173   0.5074     C
C       0.7562   0.8827   0.9926     C
C       0.7567   0.0079   0.3827     C
C       0.7567   0.4921   0.1173     C
C       0.7567   0.5079   0.8827     C
C       0.7567   0.9921   0.6173     C
O        0.766   0.0256   0.8052     O
O        0.766   0.4744   0.6948     O
O        0.766   0.5256   0.3052     O
O        0.766   0.9744   0.1948     O
O       0.7663   0.1954   0.5255     O
O       0.7663   0.3046   0.9745     O
O       0.7663   0.6954   0.0255     O
O       0.7663   0.8046   0.4745     O
H         0.77   0.1224   0.0331     H
H         0.77   0.3776   0.4669     H
H         0.77   0.6224   0.5331     H
H         0.77   0.8776   0.9669     H
H       0.7702   0.0323    0.377     H
H       0.7702   0.4677    0.123     H
H       0.7702   0.5323    0.877     H
H       0.7702   0.9677    0.623     H
H       0.7721   0.0132   0.6282     H
H       0.7721   0.4868   0.8718     H
H       0.7721   0.5132   0.1282     H
H       0.7721   0.9868   0.3718     H
H        0.773   0.1282   0.9877     H
H        0.773   0.3718   0.5123     H
H        0.773   0.6282   0.4877     H
H        0.773   0.8718   0.0123     H
C       0.7754   0.0071   0.1811     C
C       0.7754   0.1817    0.493     C
C       0.7754   0.3183    0.007     C
C       0.7754   0.4929   0.3189     C
C       0.7754   0.5071   0.6811     C
C       0.7754   0.6817    0.993     C
C       0.7754   0.8183    0.507     C
C       0.7754   0.9929   0.8189     C
O       0.7761   0.0393   0.1993     O
O       0.7761   0.4607   0.3007     O
O       0.7761   0.5393   0.6993     O
O       0.7761   0.9607   0.8007     O
O       0.7763  0.19925    0.461     O
O       0.7763  0.30075    0.039     O
O       0.7763  0.69925    0.961     O
O       0.7763  0.80075    0.539     O
O       0.7772   0.0578   0.5074     O
O       0.7772   0.4422   0.9926     O
O       0.7772   0.5578   0.0074     O
O       0.7772   0.9422   0.4926     O
O       0.7775   0.0074   0.9419     O
O       0.7775   0.4926   0.5581     O
O       0.7775   0.5074   0.4419     O
O       0.7775   0.9926   0.0581     O
C       0.7832   0.0085    0.137     C
C       0.7832   0.4915    0.363     C
C       0.7832   0.5085    0.637     C
C       0.7832   0.9915    0.863     C
C       0.7836   0.1368   0.4923     C
C       0.7836   0.3632   0.0077     C
C       0.7836   0.6368   0.9923     C
C       0.7836   0.8632   0.5077     C
O       0.7863   0.0089   0.4441     O
O       0.7863   0.4911   0.0559     O
O       0.7863   0.5089   0.9441     O
O       0.7863   0.9911   0.5559     O
O       0.7864   0.0555   0.0088     O
O       0.7864   0.4445   0.4912     O
O       0.7864   0.5555   0.5088     O
O       0.7864   0.9445   0.9912     O
Cu     0.78901      0.0      0.0    Cu
Cu     0.78901      0.5      0.5    Cu
Cu     0.78911      0.0      0.5    Cu
Cu     0.78911      0.5      0.0    Cu
H       0.7954    0.116   0.4377     H
H       0.7954    0.384   0.0623     H
H       0.7954    0.616   0.9377     H
H       0.7954    0.884   0.5623     H
H       0.7957   0.0613   0.1144     H
H       0.7957   0.4387   0.3856     H
H       0.7957   0.5613   0.6144     H
H       0.7957   0.9387   0.8856     H
H       0.7972   0.0154   0.8703     H
H       0.7972   0.4846   0.6297     H
H       0.7972   0.5154   0.3703     H
H       0.7972   0.9846   0.1297     H
H       0.7977   0.1302   0.5155     H
H       0.7977   0.3698   0.9845     H
H       0.7977   0.6302   0.0155     H
H       0.7977   0.8698   0.4845     H
O       0.8007   0.2239   0.0393     O
O       0.8007   0.2761   0.4607     O
O       0.8007   0.7239   0.5393     O
O       0.8007   0.7761   0.9607     O
O      0.80075    0.039   0.2763     O
O      0.80075    0.461   0.2237     O
O      0.80075    0.539   0.7763     O
O      0.80075    0.961   0.7237     O
O       0.8046   0.0255   0.7337     O
O       0.8046   0.4745   0.7663     O
O       0.8046   0.5255   0.2337     O
O       0.8046   0.9745   0.2663     O
O       0.8052    0.234   0.9744     O
O       0.8052    0.266   0.5256     O
O       0.8052    0.734   0.4744     O
O       0.8052    0.766   0.0256     O
N       0.8061   0.1254   0.4587     N
N       0.8061   0.3746   0.0413     N
N       0.8061   0.6254   0.9587     N
N       0.8061   0.8746   0.5413     N
N       0.8066   0.0415   0.1254     N
N       0.8066   0.4585   0.3746     N
N       0.8066   0.5415   0.6254     N
N       0.8066   0.9585   0.8746     N
C       0.8183    0.007   0.2754     C
C       0.8183    0.493   0.2246     C
C       0.8183    0.507   0.7754     C
C       0.8183    0.993   0.7246     C
C       0.8189   0.2246   0.0071     C
C       0.8189   0.2754   0.4929     C
C       0.8189   0.7246   0.5071     C
C       0.8189   0.7754   0.9929     C
H       0.8356   0.0934   0.0725     H
H       0.8356   0.4066   0.4275     H
H       0.8356   0.5934   0.5725     H
H       0.8356   0.9066   0.9275     H
H       0.8362   0.0727   0.4072     H
H       0.8362   0.4273   0.0928     H
H       0.8362   0.5727   0.9072     H
H       0.8362   0.9273   0.5928     H
C       0.8451   0.1315   0.4585     C
C       0.8451   0.3685   0.0415     C
C       0.8451   0.6315   0.9585     C
C       0.8451   0.8685   0.5415     C
C       0.8452   0.0414   0.1317     C
C       0.8452   0.4586   0.3683     C
C       0.8452   0.5414   0.6317     C
C       0.8452   0.9586   0.8683     C
O        0.854   0.1375   0.0127     O
O        0.854   0.3625   0.4873     O
O        0.854   0.6375   0.5127     O
O        0.854   0.8625   0.9873     O
O       0.8543   0.0126   0.3622     O
O       0.8543   0.4874   0.1378     O
O       0.8543   0.5126   0.8622     O
O       0.8543   0.9874   0.6378     O
C       0.8575   0.1001   0.0873     C
C       0.8575   0.3999   0.4127     C
C       0.8575   0.6001   0.5873     C
C       0.8575   0.8999   0.9127     C
C       0.8577   0.0878   0.4003     C
C       0.8577   0.4122   0.0997     C
C       0.8577   0.5878   0.9003     C
C       0.8577   0.9122   0.5997     C
O       0.8622   0.1457   0.4874     O
O       0.8622   0.3543   0.0126     O
O       0.8622   0.6457   0.9874     O
O       0.8622   0.8543   0.5126     O
O       0.8625   0.0127    0.146     O
O       0.8625   0.4873    0.354     O
O       0.8625   0.5127    0.646     O
O       0.8625   0.9873    0.854     O
C        0.863   0.2168   0.0085     C
C        0.863   0.2832   0.4915     C
C        0.863   0.7168   0.5085     C
C        0.863   0.7832   0.9915     C
C       0.8632   0.0077   0.2836     C
C       0.8632   0.4923   0.2164     C
C       0.8632   0.5077   0.7836     C
C       0.8632   0.9923   0.7164     C
C       0.8674   0.1201   0.4224     C
C       0.8674   0.3799   0.0776     C
C       0.8674   0.6201   0.9224     C
C       0.8674   0.8799   0.5776     C
C       0.8678    0.077   0.1203     C
C       0.8678    0.423   0.3797     C
C       0.8678    0.577   0.6203     C
C       0.8678    0.923   0.8797     C
C       0.8683   0.1548   0.0414     C
C       0.8683   0.3452   0.4586     C
C       0.8683   0.6548   0.5414     C
C       0.8683   0.8452   0.9586     C
C       0.8685   0.0415   0.3451     C
C       0.8685   0.4585   0.1549     C
C       0.8685   0.5415   0.8451     C
C       0.8685   0.9585   0.6549     C
H       0.8698   0.0155   0.7023     H
H       0.8698   0.4845   0.7977     H
H       0.8698   0.5155   0.2023     H
H       0.8698   0.9845   0.2977     H
H       0.8703   0.2028   0.9846     H
H       0.8703   0.2972   0.5154     H
H       0.8703   0.7028   0.4846     H
H       0.8703   0.7972   0.0154     H
H       0.8718   0.0123    0.773     H
H       0.8718   0.2279   0.5132     H
H       0.8718   0.2721   0.9868     H
H       0.8718   0.4877    0.727     H
H       0.8718   0.5123    0.273     H
H       0.8718   0.7279   0.0132     H
H       0.8718   0.7721   0.4868     H
H       0.8718   0.9877    0.227     H
N       0.8746   0.0413   0.3061     N
N       0.8746   0.1934   0.0415     N
N       0.8746   0.3066   0.4585     N
N       0.8746   0.4587   0.1939     N
N       0.8746   0.5413   0.8061     N
N       0.8746   0.6934   0.5415     N
N       0.8746   0.8066   0.9585     N
N       0.8746   0.9587   0.6939     N
H        0.877   0.2298   0.4677     H
H        0.877   0.2702   0.0323     H
H        0.877   0.7298   0.9677     H
H        0.877   0.7702   0.5323     H
H       0.8776   0.0331     0.23     H
H       0.8776   0.4669     0.27     H
H       0.8776   0.5331     0.73     H
H       0.8776   0.9669     0.77     H
C       0.8797   0.1322    0.077     C
C       0.8797   0.3678    0.423     C
C       0.8797   0.6322    0.577     C
C       0.8797   0.8678    0.923     C
C       0.8799   0.0776   0.3674     C
C       0.8799   0.4224   0.1326     C
C       0.8799   0.5776   0.8674     C
C       0.8799   0.9224   0.6326     C
C       0.8827   0.0074   0.2438     C
C       0.8827   0.2433   0.4921     C
C       0.8827   0.2567   0.0079     C
C       0.8827   0.4926   0.2562     C
C       0.8827   0.5074   0.7438     C
C       0.8827   0.7433   0.9921     C
C       0.8827   0.7567   0.5079     C
C       0.8827   0.9926   0.7562     C
H        0.884   0.0623   0.2954     H
H        0.884   0.4377   0.2046     H
H        0.884   0.5623   0.7954     H
H        0.884   0.9377   0.7046     H
H       0.8856   0.2043   0.0613     H
H       0.8856   0.2957   0.4387     H
H       0.8856   0.7043   0.5613     H
H       0.8856   0.7957   0.9387     H
C       0.8999   0.0873   0.1425     C
C       0.8999   0.4127   0.3575     C
C       0.8999   0.5873   0.6425     C
C       0.8999   0.9127   0.8575     C
C       0.9003   0.1423   0.4122     C
C       0.9003   0.3577   0.0878     C
C       0.9003   0.6423   0.9122     C
C       0.9003   0.8577   0.5878     C
H       0.9066   0.0725   0.1644     H
H       0.9066   0.4275   0.3356     H
H       0.9066   0.5725   0.6644     H
H       0.9066   0.9275   0.8356     H
H       0.9072   0.1638   0.4273     H
H       0.9072   0.3362   0.0727     H
H       0.9072   0.6638   0.9273     H
H       0.9072   0.8362   0.5727     H
C       0.9122   0.0997   0.3577     C
C       0.9122   0.4003   0.1423     C
C       0.9122   0.5997   0.8577     C
C       0.9122   0.9003   0.6423     C
C       0.9127   0.1425   0.1001     C
C       0.9127   0.3575   0.3999     C
C       0.9127   0.6425   0.6001     C
C       0.9127   0.8575   0.8999     C
C       0.9224   0.1326   0.3799     C
C       0.9224   0.3674   0.1201     C
C       0.9224   0.6326   0.8799     C
C       0.9224   0.8674   0.6201     C
C        0.923   0.1203   0.1322     C
C        0.923   0.3797   0.3678     C
C        0.923   0.6203   0.6322     C
C        0.923   0.8797   0.8678     C
C       0.9263    0.003   0.2454     C
C       0.9263    0.497   0.2546     C
C       0.9263    0.503   0.7454     C
C       0.9263    0.997   0.7546     C
C       0.9265   0.2455   0.4972     C
C       0.9265   0.2545   0.0028     C
C       0.9265   0.7455   0.9972     C
C       0.9265   0.7545   0.5028     C
H       0.9273   0.0928   0.3362     H
H       0.9273   0.4072   0.1638     H
H       0.9273   0.5928   0.8362     H
H       0.9273   0.9072   0.6638     H
H       0.9275   0.1644   0.0934     H
H       0.9275   0.3356   0.4066     H
H       0.9275   0.6644   0.5934     H
H       0.9275   0.8356   0.9066     H
H       0.9377   0.2046    0.384     H
H       0.9377   0.2954    0.116     H
H       0.9377   0.7046    0.884     H
H       0.9377   0.7954    0.616     H
H       0.9387   0.1144   0.2043     H
H       0.9387   0.3856   0.2957     H
H       0.9387   0.6144   0.7043     H
H       0.9387   0.8856   0.7957     H
O       0.9419   0.2225   0.9926     O
O       0.9419   0.2775   0.5074     O
O       0.9419   0.7225   0.4926     O
O       0.9419   0.7775   0.0074     O
O       0.9422   0.0074   0.7228     O
O       0.9422   0.4926   0.7772     O
O       0.9422   0.5074   0.2228     O
O       0.9422   0.9926   0.2772     O
O       0.9441   0.2137   0.4911     O
O       0.9441   0.2863   0.0089     O
O       0.9441   0.7137   0.9911     O
O       0.9441   0.7863   0.5089     O
O       0.9445   0.0088   0.2136     O
O       0.9445   0.4912   0.2864     O
O       0.9445   0.5088   0.7136     O
O       0.9445   0.9912   0.7864     O
Cu     0.95428     0.25     0.25    Cu
Cu     0.95428     0.75     0.75    Cu
N       0.9585   0.1254   0.1934     N
C       0.9585   0.1549   0.3685     C
C       0.9585   0.3451   0.1315     C
N       0.9585   0.3746   0.3066     N
N       0.9585   0.6254   0.6934     N
C       0.9585   0.6549   0.8685     C
C       0.9585   0.8451   0.6315     C
N       0.9585   0.8746   0.8066     N
C       0.9586   0.1317   0.1548     C
C       0.9586   0.3683   0.3452     C
C       0.9586   0.6317   0.6548     C
C       0.9586   0.8683   0.8452     C
N       0.9587   0.1939   0.3746     N
N       0.9587   0.3061   0.1254     N
N       0.9587   0.6939   0.8746     N
N       0.9587   0.8061   0.6254     N
O       0.9607   0.1993   0.2239     O
O       0.9607   0.3007   0.2761     O
O       0.9607   0.6993   0.7239     O
O       0.9607   0.8007   0.7761     O
O        0.961   0.2237  0.30075     O
O        0.961   0.2763  0.19925     O
O        0.961   0.7237  0.80075     O
O        0.961   0.7763  0.69925     O
H       0.9669     0.23   0.1224     H
H       0.9669     0.27   0.3776     H
H       0.9669     0.73   0.6224     H
H       0.9669     0.77   0.8776     H
H       0.9677    0.123   0.2702     H
H       0.9677    0.377   0.2298     H
H       0.9677    0.623   0.7702     H
H       0.9677    0.877   0.7298     H
Cu     0.96843     0.25     0.75    Cu
Cu     0.96843     0.75     0.25    Cu
O       0.9744   0.1948    0.766     O
O       0.9744   0.3052    0.734     O
O       0.9744   0.6948    0.266     O
O       0.9744   0.8052    0.234     O
O       0.9745   0.2337   0.6954     O
O       0.9745   0.2663   0.8046     O
O       0.9745   0.7337   0.1954     O
O       0.9745   0.7663   0.3046     O
H       0.9845   0.2023   0.6302     H
H       0.9845   0.2977   0.8698     H
H       0.9845   0.7023   0.1302     H
H       0.9845   0.7977   0.3698     H
H       0.9846   0.1297   0.7972     H
H       0.9846   0.3703   0.7028     H
H       0.9846   0.6297   0.2972     H
H       0.9846   0.8703   0.2028     H
H       0.9868   0.1282   0.7279     H
H       0.9868   0.3718   0.7721     H
H       0.9868   0.6282   0.2279     H
H       0.9868   0.8718   0.2721     H
O       0.9873    0.146   0.1375     O
O       0.9873    0.354   0.3625     O
O       0.9873    0.646   0.6375     O
O       0.9873    0.854   0.8625     O
O       0.9874   0.1378   0.3543     O
O       0.9874   0.3622   0.1457     O
O       0.9874   0.6378   0.8543     O
O       0.9874   0.8622   0.6457     O
H       0.9877    0.227   0.8718     H
H       0.9877    0.273   0.6282     H
H       0.9877    0.727   0.3718     H
H       0.9877    0.773   0.1282     H
O       0.9911   0.0559   0.2863     O
O       0.9911   0.4441   0.2137     O
O       0.9911   0.5559   0.7863     O
O       0.9911   0.9441   0.7137     O
O       0.9912   0.2136   0.0555     O
O       0.9912   0.2864   0.4445     O
O       0.9912   0.7136   0.5555     O
O       0.9912   0.7864   0.9445     O
C       0.9915    0.137   0.2168     C
C       0.9915    0.363   0.2832     C
C       0.9915    0.637   0.7168     C
C       0.9915    0.863   0.7832     C
C       0.9921   0.1173   0.2567     C
C       0.9921   0.3827   0.2433     C
C       0.9921   0.6173   0.7567     C
C       0.9921   0.8827   0.7433     C
C       0.9923   0.2164   0.3632     C
C       0.9923   0.2836   0.1368     C
C       0.9923   0.7164   0.8632     C
C       0.9923   0.7836   0.6368     C
O       0.9926   0.0581   0.7775     O
O       0.9926   0.2228   0.5578     O
C       0.9926   0.2438   0.1173     C
C       0.9926   0.2562   0.3827     C
O       0.9926   0.2772   0.9422     O
O       0.9926   0.4419   0.7225     O
O       0.9926   0.5581   0.2775     O
O       0.9926   0.7228   0.0578     O
C       0.9926   0.7438   0.6173     C
C       0.9926   0.7562   0.8827     C
O       0.9926   0.7772   0.4422     O
O       0.9926   0.9419   0.2225     O
C       0.9929   0.1811   0.2246     C
C       0.9929   0.3189   0.2754     C
C       0.9929   0.6811   0.7246     C
C       0.9929   0.8189   0.7754     C
C        0.993   0.2246   0.3183     C
C        0.993   0.2754   0.1817     C
C        0.993   0.7246   0.8183     C
C        0.993   0.7754   0.6817     C
C        0.997   0.2454   0.0737     C
C        0.997   0.2546   0.4263     C
C        0.997   0.7454   0.5737     C
C        0.997   0.7546   0.9263     C
C       0.9972   0.0735   0.2545     C
C       0.9972   0.4265   0.2455     C
C       0.9972   0.5735   0.7545     C
C       0.9972   0.9265   0.7455     C
