data_I
_chemical_name_common  '/home/zhangsd/repos/MofS-CGCNN/ML/data/TSD/clean_cifs/DOQHAT_clean'
_cell_length_a  7.22600
_cell_length_b 10.27450
_cell_length_c 13.29180
_cell_angle_alpha 90.00000
_cell_angle_beta  90.00000
_cell_angle_gamma 99.49300
_space_group_name_H-M_alt      'P 1'


loop_
_space_group_symop_operation_xyz
  'x, y, z' 

loop_
_atom_site_label
_atom_site_fract_x
_atom_site_fract_y
_atom_site_fract_z
_atom_site_type_symbol
C       0.0011   0.2255   0.6627     C
C       0.0011   0.7255   0.8373     C
O       0.0396   0.1693    0.743     O
O       0.0396   0.6693    0.757     O
C       0.0549   0.3745   0.6559     C
C       0.0549   0.8745   0.8441     C
H        0.059   0.0861   0.1487     H
H        0.059   0.5861   0.3513     H
O       0.0793   0.3337  0.08803     O
O       0.0793   0.8337  0.41197     O
H       0.1295   0.4987    0.757     H
H       0.1295   0.9987    0.743     H
O       0.1323   0.3681  0.45403     O
O       0.1323   0.8681  0.04597     O
O       0.1517   0.4245  0.74519     O
O       0.1517   0.9245  0.75481     O
Ce     0.16144  0.28177  0.90556    Ce
Ce     0.16144  0.78177  0.59444    Ce
P      0.21372  0.42755  0.55061     P
P      0.21372  0.92755  0.94939     P
O       0.2562   0.0753   0.9438     O
O       0.2562   0.5753   0.5562     O
O       0.3087   0.0194   0.5752     O
O       0.3087   0.5194   0.9248     O
O       0.3963   0.3731   0.5818     O
O       0.3963   0.8731   0.9182     O
H       0.4076   0.3095   0.5465     H
H       0.4076   0.8095   0.9535     H
C        0.454   0.0549   0.5253     C
C        0.454   0.5549   0.9747     C
O       0.4676   0.3282   0.0089     O
O       0.4676   0.8282   0.4911     O
O       0.5324   0.1718   0.5089     O
O       0.5324   0.6718   0.9911     O
C        0.546   0.4451   0.0253     C
C        0.546   0.9451   0.4747     C
H       0.5924   0.1905   0.0465     H
H       0.5924   0.6905   0.4535     H
O       0.6037   0.1269   0.0818     O
O       0.6037   0.6269   0.4182     O
O       0.6913   0.4806   0.0752     O
O       0.6913   0.9806   0.4248     O
O       0.7438   0.4247   0.4438     O
O       0.7438   0.9247   0.0562     O
P      0.78628  0.07245  0.05061     P
P      0.78628  0.57245  0.44939     P
Ce     0.83856  0.21823  0.40556    Ce
Ce     0.83856  0.71823  0.09444    Ce
O       0.8483   0.0755  0.24519     O
O       0.8483   0.5755  0.25481     O
O       0.8677   0.1319  0.95403     O
O       0.8677   0.6319  0.54597     O
H       0.8705   0.0013    0.257     H
H       0.8705   0.5013    0.243     H
O       0.9207   0.1663  0.58803     O
O       0.9207   0.6663  0.91197     O
H        0.941   0.4139   0.6487     H
H        0.941   0.9139   0.8513     H
C       0.9451   0.1255   0.1559     C
C       0.9451   0.6255   0.3441     C
O       0.9604   0.3307    0.243     O
O       0.9604   0.8307    0.257     O
C       0.9989   0.2745   0.1627     C
C       0.9989   0.7745   0.3373     C
