data_I
_chemical_name_common  '/home/zhangsd/repos/MofS-CGCNN/ML/data/TSD/clean_cifs/DOQHOH_clean'
_cell_length_a  7.23510
_cell_length_b 10.19990
_cell_length_c 13.05500
_cell_angle_alpha 90.00000
_cell_angle_beta  90.00000
_cell_angle_gamma 100.42700
_space_group_name_H-M_alt      'P 1'


loop_
_space_group_symop_operation_xyz
  'x, y, z' 

loop_
_atom_site_label
_atom_site_fract_x
_atom_site_fract_y
_atom_site_fract_z
_atom_site_type_symbol
C          0.0   0.2256   0.6638     C
C          0.0   0.2744   0.1638     C
C          0.0   0.7256   0.8362     C
C          0.0   0.7744   0.3362     C
O        0.039   0.1694    0.745     O
O        0.039   0.6694    0.755     O
C       0.0563   0.3757    0.657     C
C       0.0563   0.8757    0.843     C
H       0.0573   0.0851   0.1507     H
H       0.0573   0.5851   0.3493     H
O       0.0813   0.3336   0.0874     O
O       0.0813   0.8336   0.4126     O
O       0.1283   0.3682   0.4516     O
O       0.1283   0.8682   0.0484     O
H       0.1341   0.0007   0.7399     H
H       0.1341   0.5007   0.7601     H
O       0.1554   0.4261   0.7475     O
O       0.1554   0.9261   0.7525     O
Sm     0.16364  0.28216  0.90595    Sm
Sm     0.16364  0.78216  0.59405    Sm
P      0.21159  0.43059   0.5491     P
P      0.21159  0.93059   0.9509     P
O       0.2535   0.0795   0.9463     O
O       0.2535   0.5795   0.5537     O
O       0.3031   0.0183   0.5719     O
O       0.3031   0.5183   0.9281     O
O       0.3963   0.3782   0.5799     O
O       0.3963   0.8782   0.9201     O
H        0.407   0.3139   0.5441     H
H        0.407   0.8139   0.9559     H
C       0.4532   0.0549   0.5242     C
C       0.4532   0.5549   0.9758     C
O        0.466   0.3273   0.0095     O
O        0.466   0.8273   0.4905     O
O        0.534   0.1727   0.5095     O
O        0.534   0.6727   0.9905     O
C       0.5468   0.4451   0.0242     C
C       0.5468   0.9451   0.4758     C
H        0.593   0.1861   0.0441     H
H        0.593   0.6861   0.4559     H
O       0.6037   0.1218   0.0799     O
O       0.6037   0.6218   0.4201     O
O       0.6969   0.4817   0.0719     O
O       0.6969   0.9817   0.4281     O
O       0.7465   0.4205   0.4463     O
O       0.7465   0.9205   0.0537     O
P      0.78841  0.06941   0.0491     P
P      0.78841  0.56941   0.4509     P
Sm     0.83636  0.21784  0.40595    Sm
Sm     0.83636  0.71784  0.09405    Sm
O       0.8446   0.0739   0.2475     O
O       0.8446   0.5739   0.2525     O
H       0.8659   0.4993   0.2399     H
H       0.8659   0.9993   0.2601     H
O       0.8717   0.1318   0.9516     O
O       0.8717   0.6318   0.5484     O
O       0.9187   0.1664   0.5874     O
O       0.9187   0.6664   0.9126     O
H       0.9427   0.4149   0.6507     H
H       0.9427   0.9149   0.8493     H
C       0.9437   0.1243    0.157     C
C       0.9437   0.6243    0.343     C
O        0.961   0.3306    0.245     O
O        0.961   0.8306    0.255     O
