data_I
_chemical_name_common  '/home/zhangsd/repos/MofS-CGCNN/ML/data/TSD/clean_cifs/DOQHIB_clean'
_cell_length_a  7.23260
_cell_length_b 10.23370
_cell_length_c 13.15580
_cell_angle_alpha 90.00000
_cell_angle_beta  90.00000
_cell_angle_gamma 100.10700
_space_group_name_H-M_alt      'P 1'


loop_
_space_group_symop_operation_xyz
  'x, y, z' 

loop_
_atom_site_label
_atom_site_fract_x
_atom_site_fract_y
_atom_site_fract_z
_atom_site_type_symbol
C       0.0003   0.2255   0.6634     C
C       0.0003   0.7255   0.8366     C
O       0.0391   0.1694   0.7442     O
O       0.0391   0.6694   0.7558     O
C       0.0559   0.3748   0.6562     C
C       0.0559   0.8748   0.8438     C
H       0.0577    0.086   0.1495     H
H       0.0577    0.586   0.3505     H
O       0.0809   0.3338   0.0874     O
O       0.0809   0.8338   0.4126     O
O       0.1304   0.3686   0.4523     O
O       0.1304   0.8686   0.0477     O
H       0.1321   0.4996   0.7586     H
H       0.1321   0.9996   0.7414     H
O       0.1539   0.4252   0.7464     O
O       0.1539   0.9252   0.7536     O
Nd       0.163  0.28187  0.90549    Nd
Nd       0.163  0.78187  0.59451    Nd
P      0.21255  0.42931  0.54946     P
P      0.21255  0.92931  0.95054     P
O       0.2546   0.0777   0.9456     O
O       0.2546   0.5777   0.5544     O
O       0.3051   0.0186   0.5731     O
O       0.3051   0.5186   0.9269     O
O       0.3963   0.3759   0.5804     O
O       0.3963   0.8759   0.9196     O
H       0.4071    0.312   0.5447     H
H       0.4071    0.812   0.9553     H
C       0.4531   0.0553   0.5243     C
C       0.4531   0.5553   0.9757     C
O       0.4672    0.328   0.0086     O
O       0.4672    0.828   0.4914     O
O       0.5328    0.172   0.5086     O
O       0.5328    0.672   0.9914     O
C       0.5469   0.4447   0.0243     C
C       0.5469   0.9447   0.4757     C
H       0.5929    0.188   0.0447     H
H       0.5929    0.688   0.4553     H
O       0.6037   0.1241   0.0804     O
O       0.6037   0.6241   0.4196     O
O       0.6949   0.4814   0.0731     O
O       0.6949   0.9814   0.4269     O
O       0.7454   0.4223   0.4456     O
O       0.7454   0.9223   0.0544     O
P      0.78745  0.07069  0.04946     P
P      0.78745  0.57069  0.45054     P
Nd       0.837  0.21813  0.40549    Nd
Nd       0.837  0.71813  0.09451    Nd
O       0.8461   0.0748   0.2464     O
O       0.8461   0.5748   0.2536     O
H       0.8679   0.0004   0.2586     H
H       0.8679   0.5004   0.2414     H
O       0.8696   0.1314   0.9523     O
O       0.8696   0.6314   0.5477     O
O       0.9191   0.1662   0.5874     O
O       0.9191   0.6662   0.9126     O
H       0.9423    0.414   0.6495     H
H       0.9423    0.914   0.8505     H
C       0.9441   0.1252   0.1562     C
C       0.9441   0.6252   0.3438     C
O       0.9609   0.3306   0.2442     O
O       0.9609   0.8306   0.2558     O
C       0.9997   0.2745   0.1634     C
C       0.9997   0.7745   0.3366     C
