data_I
_chemical_name_common  '/home/zhangsd/repos/MofS-CGCNN/ML/data/TSD/clean_cifs/DOTFID_clean'
_cell_length_a 41.18950
_cell_length_b 20.63340
_cell_length_c 27.09790
_cell_angle_alpha 90.00000
_cell_angle_beta  129.77200
_cell_angle_gamma 90.00000
_space_group_name_H-M_alt      'P 1'


loop_
_space_group_symop_operation_xyz
  'x, y, z' 

loop_
_atom_site_label
_atom_site_fract_x
_atom_site_fract_y
_atom_site_fract_z
_atom_site_type_symbol
Cu         0.0   0.2499     0.75    Cu
Cu         0.0   0.7501     0.25    Cu
C       0.0005   0.4728    0.593     C
C       0.0005   0.5272    0.093     C
N        0.001   0.3201   0.6982     N
N        0.001   0.6799   0.1982     N
C       0.0025   0.1408   0.0264     C
C       0.0025   0.8592   0.5264     C
C       0.0026   0.4197   0.6321     C
C       0.0026   0.5803   0.1321     C
H       0.0028   0.3613    0.507     H
H       0.0028   0.6387    0.007     H
C       0.0036    0.382   0.4351     C
C       0.0036    0.618   0.9351     C
N       0.0039   0.1788   0.8054     N
N       0.0039   0.8212   0.3054     N
C       0.0041   0.1478   0.1145     C
C       0.0041   0.8522   0.6145     C
H       0.0058   0.1331    0.364     H
H       0.0058   0.8669    0.864     H
H       0.0084   0.1221   0.5136     H
H       0.0084   0.8779   0.0136     H
C        0.009   0.0778   0.8771     C
C        0.009   0.9222   0.3771     C
C       0.0115    0.024   0.9156     C
C       0.0115    0.976   0.4156     C
O       0.0124    0.022   0.5704     O
O       0.0124    0.978   0.0704     O
C       0.0127   0.1201   0.4443     C
C       0.0127   0.8799   0.9443     C
H        0.016   0.3867   0.3736     H
H        0.016   0.6133   0.8736     H
C       0.0165   0.3508   0.4902     C
C       0.0165   0.6492   0.9902     C
O       0.0204   0.4707   0.9642     O
O       0.0204   0.5293   0.4642     O
C       0.0218   0.1229   0.6491     C
C       0.0218   0.8771   0.1491     C
C       0.0231   0.1732   0.6848     C
C       0.0231   0.8268   0.1848     C
C       0.0239   0.3654   0.4109     C
C       0.0239   0.6346   0.9109     C
H       0.0241   0.2432   0.1973     H
H       0.0241   0.7568   0.6973     H
C       0.0251   0.3196   0.8657     C
C       0.0251   0.6804   0.3657     C
H       0.0254   0.2071   0.9719     H
C       0.0254   0.3673   0.9004     C
C       0.0254   0.6327   0.4004     C
H       0.0254   0.7929   0.4719     H
O       0.0274   0.4802   0.1303     O
O       0.0274   0.5198   0.6303     O
C       0.0292   0.3694   0.7297     C
C       0.0292   0.6306   0.2297     C
C       0.0296   0.4199   0.6972     C
C       0.0296   0.5801   0.1972     C
C       0.0329   0.4283   0.0986     C
C       0.0329   0.5717   0.5986     C
C       0.0334   0.1884   0.0528     C
C       0.0334   0.8116   0.5528     C
C       0.0339   0.1948   0.1424     C
C       0.0339   0.8052   0.6424     C
C       0.0344   0.1343   0.8318     C
C       0.0344   0.8657   0.3318     C
H       0.0348   0.4476   0.0671     H
H       0.0348   0.5524   0.5671     H
C       0.0375   0.0837   0.8674     C
C       0.0375   0.9163   0.3674     C
H        0.039   0.2772   0.5837     H
H        0.039   0.7228   0.0837     H
O       0.0395    0.019   0.4326     O
O       0.0395    0.981   0.9326     O
H       0.0422   0.1204   0.6434     H
H       0.0422   0.8796   0.1434     H
H       0.0442   0.3652   0.9459     H
H       0.0442   0.6348   0.4459     H
H       0.0443   0.2846   0.8878     H
H       0.0443   0.7154   0.3878     H
H       0.0448   0.2048   0.7029     H
H       0.0448   0.7952   0.2029     H
C       0.0472   0.0695    0.477     C
C       0.0472   0.9305    0.977     C
C        0.048    0.222    0.204     C
C        0.048    0.778    0.704     C
C       0.0482   0.3056   0.5217     C
C       0.0482   0.6944   0.0217     C
C       0.0486    0.209   0.0189     C
C       0.0486    0.791   0.5189     C
H       0.0488   0.4549   0.7202     H
H       0.0488   0.5451   0.2202     H
H        0.049   0.3689   0.7753     H
H        0.049   0.6311   0.2753     H
H       0.0493   0.0492   0.5121     H
H       0.0493   0.9508   0.0121     H
C       0.0495   0.2145   0.1117     C
C       0.0495   0.7855   0.6117     C
H       0.0546   0.1379   0.8256     H
H       0.0546   0.8621   0.3256     H
C       0.0548   0.3196   0.4395     C
C       0.0548   0.6804   0.9395     C
H       0.0585   0.1863   0.2354     H
H       0.0585   0.8137   0.7354     H
H       0.0592   0.2541   0.0308     H
H       0.0592   0.7459   0.5308     H
H       0.0595   0.4046    0.131     H
H       0.0595   0.5954    0.631     H
H       0.0596   0.0527   0.8854     H
H       0.0596   0.9473   0.3854     H
H       0.0603   0.2964   0.3667     H
H       0.0603   0.7036   0.8667     H
C       0.0623   0.2767    0.582     C
C       0.0623   0.7233    0.082     C
C       0.0686   0.2897   0.4972     C
C       0.0686   0.7103   0.9972     C
H        0.071   0.2312   0.5851     H
H        0.071   0.7688   0.0851     H
H       0.0713   0.2461   0.1314     H
H       0.0713   0.7539   0.6314     H
O       0.0728    0.186    0.385     O
O       0.0728    0.814    0.885     O
H       0.0745   0.0908   0.4965     H
H       0.0745   0.9092   0.9965     H
C         0.08    0.311    0.412     C
C         0.08    0.689    0.912     C
O       0.0818   0.2683    0.227     O
O       0.0818   0.7317    0.727     O
O        0.083   0.1646   0.0377     O
O        0.083   0.2873   0.6975     O
O        0.083   0.7127   0.1975     O
O        0.083   0.8354   0.5377     O
H       0.0913   0.2595   0.5188     H
H       0.0913   0.7405   0.0188     H
H       0.0922   0.3533   0.4136     H
H       0.0922   0.6467   0.9136     H
O       0.0956   0.2251    0.983     O
O       0.0956   0.7749    0.483     O
O       0.0975   0.3141   0.6344     O
O       0.0975   0.6859   0.1344     O
C       0.1036   0.1798   0.0173     C
C       0.1036   0.8202   0.5173     C
C       0.1044   0.3162   0.6885     C
C       0.1044   0.6838   0.1885     C
C        0.106    0.207    0.431     C
C        0.106    0.793    0.931     C
O        0.107    0.253    0.328     O
C        0.107     0.28    0.288     C
C        0.107     0.72    0.788     C
O        0.107    0.747    0.828     O
O        0.113   0.2639   0.4516     O
O        0.113   0.7361   0.9516     O
H       0.1191   0.3759   0.7852     H
H       0.1191   0.6241   0.2852     H
H       0.1211   0.0905   0.4077     H
H       0.1211   0.9095   0.9077     H
H       0.1216   0.0622   0.0703     H
H       0.1216   0.9378   0.5703     H
H       0.1265   0.3466   0.2262     H
H       0.1265   0.6534   0.7262     H
C       0.1386   0.1342   0.0414     C
C       0.1386   0.8658   0.5414     C
C        0.139    0.335     0.31     C
C        0.139   0.3575   0.7356     C
C        0.139   0.6425   0.2356     C
C        0.139    0.665     0.81     C
C       0.1406   0.3854   0.7828     C
C       0.1406   0.6146   0.2828     C
C       0.1415     0.16    0.473     C
C       0.1415     0.84    0.973     C
C       0.1421   0.0755   0.0667     C
C       0.1421   0.9245   0.5667     C
C       0.1428    0.103    0.451     C
C       0.1428    0.897    0.951     C
C       0.1437   0.3604   0.2697     C
C       0.1437   0.6396   0.7697     C
H       0.1634   0.3299   0.4022     H
H       0.1634   0.6701   0.9022     H
C       0.1652    0.351    0.373     C
C       0.1652    0.649    0.873     C
H       0.1676   0.1918   0.0194     H
H       0.1676   0.8082   0.5194     H
C       0.1694   0.1518   0.0384     C
C       0.1694   0.8482   0.5384     C
C       0.1712   0.3741   0.7349     C
C       0.1712   0.6259   0.2349     C
H       0.1713    0.357   0.7024     H
H       0.1713    0.643   0.2024     H
H       0.1728   0.2165    0.551     H
H       0.1728   0.7835    0.051     H
C       0.1732    0.176    0.534     C
C       0.1732    0.824    0.034     C
C       0.1733   0.4279   0.8277     C
C       0.1733   0.5721   0.3277     C
C       0.1735    0.406   0.2921     C
C       0.1735    0.594   0.7921     C
H       0.1738   0.4458   0.8605     H
H       0.1738   0.5542   0.3605     H
C        0.175   0.0349    0.087     C
C        0.175   0.9651    0.587     C
H       0.1758   0.0069   0.6025     H
H       0.1758   0.4255   0.2627     H
H       0.1758   0.5745   0.7627     H
H       0.1758   0.9931   0.1025     H
C       0.1771   0.0624   0.4938     C
C       0.1771   0.9376   0.9938     C
H       0.1777   0.0214   0.4784     H
H       0.1777   0.9786   0.9784     H
C       0.1954      0.4   0.3934     C
C       0.1954      0.6   0.8934     C
N       0.2002   0.4256   0.3534     N
N       0.2002   0.5744   0.8534     N
C       0.2028   0.1106    0.063     C
C       0.2028   0.8894    0.563     C
C        0.203   0.4148   0.7803     C
C        0.203   0.5852   0.2803     C
N       0.2031   0.4433   0.8253     N
N       0.2031   0.5567   0.3253     N
N       0.2057   0.0519   0.0859     N
N       0.2057   0.9481   0.5859     N
C        0.208    0.132    0.574     C
C        0.208    0.868    0.074     C
N       0.2083   0.0772   0.5534     N
N       0.2083   0.9228   0.0534     N
H       0.2125   0.4148   0.4365     H
H       0.2125   0.5852   0.9365     H
H       0.2251   0.1249   0.0639     H
H       0.2251   0.8751   0.5639     H
H       0.2256   0.4232   0.7802     H
H       0.2256   0.5768   0.2802     H
H       0.2312   0.1444   0.6169     H
H       0.2312   0.8556   0.1169     H
Cu     0.24712  0.49004   0.3864    Cu
Cu     0.24712  0.50996   0.8864    Cu
Cu     0.25288  0.00996   0.6136    Cu
Cu     0.25288  0.99004   0.1136    Cu
H       0.2688   0.3556   0.3831     H
H       0.2688   0.6444   0.8831     H
H       0.2744   0.0768   0.2198     H
H       0.2744   0.9232   0.7198     H
H       0.2749   0.3751   0.9361     H
H       0.2749   0.6249   0.4361     H
H       0.2875   0.0852   0.5635     H
H       0.2875   0.9148   0.0635     H
N       0.2917   0.4228   0.4466     N
N       0.2917   0.5772   0.9466     N
C        0.292    0.368    0.426     C
C        0.292    0.632    0.926     C
N       0.2943   0.4481   0.9141     N
N       0.2943   0.5519   0.4141     N
N       0.2969   0.0567   0.1747     N
N       0.2969   0.9433   0.6747     N
C        0.297   0.0852   0.2197     C
C        0.297   0.9148   0.7197     C
C       0.2972   0.3894    0.937     C
C       0.2972   0.6106    0.437     C
N       0.2998   0.0744   0.6466     N
N       0.2998   0.9256   0.1466     N
C       0.3046      0.1   0.6066     C
C       0.3046      0.9   0.1066     C
H       0.3223   0.4786   0.5216     H
H       0.3223   0.5214   0.0216     H
C       0.3229   0.4376   0.5062     C
C       0.3229   0.5624   0.0062     C
H       0.3242   0.0745   0.7373     H
H       0.3242   0.4931   0.3975     H
H       0.3242   0.5069   0.8975     H
H       0.3242   0.9255   0.2373     H
C        0.325   0.4651    0.913     C
C        0.325   0.5349    0.413     C
H       0.3262   0.0542   0.1395     H
H       0.3262   0.9458   0.6395     H
C       0.3265    0.094   0.7079     C
C       0.3265    0.906   0.2079     C
C       0.3267   0.0721   0.1723     C
C       0.3267   0.9279   0.6723     C
C       0.3268    0.324    0.466     C
C       0.3268    0.676    0.966     C
H       0.3272   0.2835    0.449     H
H       0.3272   0.7165    0.949     H
H       0.3287    0.143   0.2976     H
H       0.3287    0.857   0.7976     H
C       0.3288   0.1259   0.2651     C
C       0.3288   0.8741   0.7651     C
C       0.3306   0.3482   0.9616     C
C       0.3306   0.6518   0.4616     C
H       0.3324   0.3082   0.9806     H
H       0.3324   0.6918   0.4806     H
C       0.3348    0.149    0.627     C
C       0.3348    0.851    0.127     C
H       0.3366   0.1701   0.5978     H
H       0.3366   0.8299   0.0978     H
C       0.3563   0.1396   0.7303     C
C       0.3563   0.8604   0.2303     C
C       0.3572    0.397    0.549     C
C       0.3572    0.603    0.049     C
C       0.3579   0.4245   0.9333     C
C       0.3579   0.5755   0.4333     C
C       0.3585     0.34    0.527     C
C       0.3585     0.66    0.027     C
C       0.3594   0.1146   0.2172     C
C       0.3594   0.8854   0.7172     C
C        0.361   0.1425   0.2644     C
C        0.361    0.165     0.69     C
C        0.361    0.835     0.19     C
C        0.361   0.8575   0.7644     C
C       0.3614   0.3658   0.9586     C
C       0.3614   0.6342   0.4586     C
H       0.3735   0.1534   0.7738     H
H       0.3735   0.8466   0.2738     H
H       0.3784   0.4378   0.9297     H
H       0.3784   0.5622   0.4297     H
H       0.3789   0.4095   0.5923     H
H       0.3789   0.5905   0.0923     H
H       0.3809   0.1241   0.2148     H
H       0.3809   0.8759   0.7148     H
O        0.387   0.2361   0.5484     O
O        0.387   0.7639   0.0484     O
C        0.393     0.22    0.712     C
O        0.393    0.247    0.672     O
O        0.393    0.753    0.172     O
C        0.393     0.78    0.212     C
C        0.394    0.293    0.569     C
C        0.394    0.707    0.069     C
C       0.3956   0.1838   0.3115     C
C       0.3956   0.8162   0.8115     C
C       0.3964   0.3202   0.9827     C
C       0.3964   0.6798   0.4827     C
O       0.4025   0.1859   0.3656     O
O       0.4025   0.8141   0.8656     O
O       0.4044   0.2749    0.017     O
O       0.4044   0.7251    0.517     O
H       0.4078   0.1467   0.5864     H
H       0.4078   0.8533   0.0864     H
H       0.4087   0.2405   0.4812     H
H       0.4087   0.7595   0.9812     H
O        0.417   0.2127   0.3025     O
O        0.417   0.3354   0.9623     O
O        0.417   0.6646   0.4623     O
O        0.417   0.7873   0.8025     O
O       0.4182   0.2317    0.773     O
O       0.4182   0.7683    0.273     O
C         0.42    0.189    0.588     C
C         0.42    0.811    0.088     C
H       0.4255   0.4092   0.5035     H
H       0.4255   0.5908   0.0035     H
O       0.4272    0.314    0.615     O
O       0.4272    0.686    0.115     O
H       0.4287   0.2539   0.8686     H
H       0.4287   0.7461   0.3686     H
H        0.429   0.2688   0.4149     H
H        0.429   0.7312   0.9149     H
C       0.4314   0.2103   0.5028     C
C       0.4314   0.7897   0.0028     C
C       0.4377   0.2233    0.418     C
C       0.4377   0.7767    0.918     C
H       0.4397   0.2036   0.6333     H
H       0.4397   0.7964   0.1333     H
H       0.4404   0.4473   0.1146     H
H       0.4404   0.5527   0.6146     H
H       0.4405   0.0954    0.869     H
H       0.4405   0.9046    0.369     H
H       0.4408   0.2459   0.9692     H
H       0.4408   0.7541   0.4692     H
H       0.4415   0.3137   0.7646     H
H       0.4415   0.6863   0.2646     H
C       0.4452   0.1804   0.5605     C
C       0.4452   0.8196   0.0605     C
H       0.4454   0.3621   0.1744     H
H       0.4454   0.6379   0.6744     H
C       0.4505   0.2855   0.8883     C
C       0.4505   0.7145   0.3883     C
H       0.4507   0.4508   0.4879     H
H       0.4507   0.5492   0.9879     H
H        0.451   0.1311   0.2247     H
H        0.451   0.8689   0.7247     H
H       0.4512   0.0451   0.2798     H
H       0.4512   0.9549   0.7798     H
C       0.4514    0.291   0.9811     C
C       0.4514    0.709   0.4811     C
C       0.4518   0.1944   0.4783     C
C       0.4518   0.8056   0.9783     C
C        0.452    0.278    0.796     C
C        0.452    0.722    0.296     C
C       0.4528   0.4305    0.523     C
C       0.4528   0.5695    0.023     C
H       0.4552   0.2952   0.2971     H
H       0.4552   0.7048   0.7971     H
H       0.4557   0.2154   0.1122     H
H       0.4557   0.7846   0.6122     H
H       0.4558   0.1348   0.0541     H
H       0.4558   0.8652   0.5541     H
H       0.4578   0.3796   0.3566     H
H       0.4578   0.6204   0.8566     H
O       0.4605    0.481   0.5674     O
O       0.4605    0.519   0.0674     O
H        0.461   0.2228   0.4163     H
H        0.461   0.7772   0.9163     H
C       0.4625   0.4163   0.1326     C
C       0.4625   0.5837   0.6326     C
H       0.4652   0.0524   0.9329     H
H       0.4652   0.9476   0.4329     H
C       0.4656   0.3657   0.1682     C
C       0.4656   0.6343   0.6682     C
C       0.4661   0.3052   0.8576     C
C       0.4661   0.6948   0.3576     C
C       0.4666   0.3116   0.9472     C
C       0.4666   0.6884   0.4472     C
C       0.4671   0.0717   0.9014     C
C       0.4671   0.9283   0.4014     C
C       0.4704   0.0801   0.3028     C
C       0.4704   0.9199   0.8028     C
C       0.4708   0.1306   0.2703     C
C       0.4708   0.8694   0.7703     C
O       0.4726   0.0198   0.8697     O
O       0.4726   0.9802   0.3697     O
C       0.4746   0.1327   0.0996     C
H       0.4746   0.2929   0.0281     H
H       0.4746   0.7071   0.5281     H
C       0.4746   0.8673   0.5996     C
C       0.4749   0.1804   0.1343     C
C       0.4749   0.8196   0.6343     C
H       0.4759   0.2568   0.8027     H
H       0.4759   0.7432   0.3027     H
C       0.4761   0.1346   0.5891     C
C       0.4761   0.8654   0.0891     C
C       0.4769   0.3268   0.3152     C
C       0.4769   0.6732   0.8152     C
C       0.4782   0.3771   0.3509     C
C       0.4782   0.6229   0.8509     C
O       0.4796   0.0293   0.0358     O
O       0.4796   0.9707   0.5358     O
C       0.4835   0.1492   0.5098     C
C       0.4835   0.8508   0.0098     C
H        0.484   0.1133   0.6264     H
H        0.484   0.8867   0.1264     H
C       0.4873   0.3799   0.5557     C
C       0.4873   0.6201   0.0557     C
O       0.4876    0.478   0.4296     O
O       0.4876    0.522   0.9296     O
C       0.4885    0.476   0.0844     C
C       0.4885    0.524   0.5844     C
C        0.491   0.4222   0.1229     C
C        0.491   0.5778   0.6229     C
H       0.4916   0.3779   0.4864     H
H       0.4916   0.6221   0.9864     H
H       0.4942   0.3669    0.636     H
H       0.4942   0.6331    0.136     H
C       0.4959   0.3522   0.8855     C
C       0.4959   0.6478   0.3855     C
N       0.4961   0.3212   0.1946     N
N       0.4961   0.6788   0.6946     N
C       0.4964    0.118   0.5649     C
C       0.4964    0.882   0.0649     C
H       0.4972   0.1387    0.493     H
H       0.4972   0.8613    0.993     H
C       0.4974   0.0803   0.3679     C
C       0.4974   0.9197   0.8679     C
C       0.4975   0.3592   0.9736     C
C       0.4975   0.6408   0.4736     C
N        0.499   0.1799   0.3018     N
N        0.499   0.8201   0.8018     N
C       0.4995   0.0272    0.407     C
C       0.4995   0.9728    0.907     C
Cu         0.5   0.2501     0.25    Cu
Cu         0.5   0.7499     0.75    Cu
C       0.5005   0.0272    0.093     C
C       0.5005   0.9728    0.593     C
N        0.501   0.1799   0.1982     N
N        0.501   0.8201   0.6982     N
C       0.5025   0.3592   0.5264     C
C       0.5025   0.6408   0.0264     C
C       0.5026   0.0803   0.1321     C
C       0.5026   0.9197   0.6321     C
H       0.5028   0.1387    0.007     H
H       0.5028   0.8613    0.507     H
C       0.5036    0.118   0.9351     C
C       0.5036    0.882   0.4351     C
N       0.5039   0.3212   0.3054     N
N       0.5039   0.6788   0.8054     N
C       0.5041   0.3522   0.6145     C
C       0.5041   0.6478   0.1145     C
H       0.5058   0.3669    0.864     H
H       0.5058   0.6331    0.364     H
H       0.5084   0.3779   0.0136     H
H       0.5084   0.6221   0.5136     H
C        0.509   0.4222   0.3771     C
C        0.509   0.5778   0.8771     C
C       0.5115    0.476   0.4156     C
C       0.5115    0.524   0.9156     C
O       0.5124    0.478   0.0704     O
O       0.5124    0.522   0.5704     O
C       0.5127   0.3799   0.9443     C
C       0.5127   0.6201   0.4443     C
H        0.516   0.1133   0.8736     H
H        0.516   0.8867   0.3736     H
C       0.5165   0.1492   0.9902     C
C       0.5165   0.8508   0.4902     C
O       0.5204   0.0293   0.4642     O
O       0.5204   0.9707   0.9642     O
C       0.5218   0.3771   0.1491     C
C       0.5218   0.6229   0.6491     C
C       0.5231   0.3268   0.1848     C
C       0.5231   0.6732   0.6848     C
C       0.5239   0.1346   0.9109     C
C       0.5239   0.8654   0.4109     C
H       0.5241   0.2568   0.6973     H
H       0.5241   0.7432   0.1973     H
C       0.5251   0.1804   0.3657     C
C       0.5251   0.8196   0.8657     C
C       0.5254   0.1327   0.4004     C
H       0.5254   0.2929   0.4719     H
H       0.5254   0.7071   0.9719     H
C       0.5254   0.8673   0.9004     C
O       0.5274   0.0198   0.6303     O
O       0.5274   0.9802   0.1303     O
C       0.5292   0.1306   0.2297     C
C       0.5292   0.8694   0.7297     C
C       0.5296   0.0801   0.1972     C
C       0.5296   0.9199   0.6972     C
C       0.5329   0.0717   0.5986     C
C       0.5329   0.9283   0.0986     C
C       0.5334   0.3116   0.5528     C
C       0.5334   0.6884   0.0528     C
C       0.5339   0.3052   0.6424     C
C       0.5339   0.6948   0.1424     C
C       0.5344   0.3657   0.3318     C
C       0.5344   0.6343   0.8318     C
H       0.5348   0.0524   0.5671     H
H       0.5348   0.9476   0.0671     H
C       0.5375   0.4163   0.3674     C
C       0.5375   0.5837   0.8674     C
H        0.539   0.2228   0.0837     H
H        0.539   0.7772   0.5837     H
O       0.5395    0.481   0.9326     O
O       0.5395    0.519   0.4326     O
H       0.5422   0.3796   0.1434     H
H       0.5422   0.6204   0.6434     H
H       0.5442   0.1348   0.4459     H
H       0.5442   0.8652   0.9459     H
H       0.5443   0.2154   0.3878     H
H       0.5443   0.7846   0.8878     H
H       0.5448   0.2952   0.2029     H
H       0.5448   0.7048   0.7029     H
C       0.5472   0.4305    0.977     C
C       0.5472   0.5695    0.477     C
C        0.548    0.278    0.704     C
C        0.548    0.722    0.204     C
C       0.5482   0.1944   0.0217     C
C       0.5482   0.8056   0.5217     C
C       0.5486    0.291   0.5189     C
C       0.5486    0.709   0.0189     C
H       0.5488   0.0451   0.2202     H
H       0.5488   0.9549   0.7202     H
H        0.549   0.1311   0.2753     H
H        0.549   0.8689   0.7753     H
H       0.5493   0.4508   0.0121     H
H       0.5493   0.5492   0.5121     H
C       0.5495   0.2855   0.6117     C
C       0.5495   0.7145   0.1117     C
H       0.5546   0.3621   0.3256     H
H       0.5546   0.6379   0.8256     H
C       0.5548   0.1804   0.9395     C
C       0.5548   0.8196   0.4395     C
H       0.5585   0.3137   0.7354     H
H       0.5585   0.6863   0.2354     H
H       0.5592   0.2459   0.5308     H
H       0.5592   0.7541   0.0308     H
H       0.5595   0.0954    0.631     H
H       0.5595   0.9046    0.131     H
H       0.5596   0.4473   0.3854     H
H       0.5596   0.5527   0.8854     H
H       0.5603   0.2036   0.8667     H
H       0.5603   0.7964   0.3667     H
C       0.5623   0.2233    0.082     C
C       0.5623   0.7767    0.582     C
C       0.5686   0.2103   0.9972     C
C       0.5686   0.7897   0.4972     C
H        0.571   0.2688   0.0851     H
H        0.571   0.7312   0.5851     H
H       0.5713   0.2539   0.6314     H
H       0.5713   0.7461   0.1314     H
O       0.5728    0.314    0.885     O
O       0.5728    0.686    0.385     O
H       0.5745   0.4092   0.9965     H
H       0.5745   0.5908   0.4965     H
C         0.58    0.189    0.912     C
C         0.58    0.811    0.412     C
O       0.5818   0.2317    0.727     O
O       0.5818   0.7683    0.227     O
O        0.583   0.2127   0.1975     O
O        0.583   0.3354   0.5377     O
O        0.583   0.6646   0.0377     O
O        0.583   0.7873   0.6975     O
H       0.5913   0.2405   0.0188     H
H       0.5913   0.7595   0.5188     H
H       0.5922   0.1467   0.9136     H
H       0.5922   0.8533   0.4136     H
O       0.5956   0.2749    0.483     O
O       0.5956   0.7251    0.983     O
O       0.5975   0.1859   0.1344     O
O       0.5975   0.8141   0.6344     O
C       0.6036   0.3202   0.5173     C
C       0.6036   0.6798   0.0173     C
C       0.6044   0.1838   0.1885     C
C       0.6044   0.8162   0.6885     C
C        0.606    0.293    0.931     C
C        0.606    0.707    0.431     C
C        0.607     0.22    0.788     C
O        0.607    0.247    0.828     O
O        0.607    0.753    0.328     O
C        0.607     0.78    0.288     C
O        0.613   0.2361   0.9516     O
O        0.613   0.7639   0.4516     O
H       0.6191   0.1241   0.2852     H
H       0.6191   0.8759   0.7852     H
H       0.6211   0.4095   0.9077     H
H       0.6211   0.5905   0.4077     H
H       0.6216   0.4378   0.5703     H
H       0.6216   0.5622   0.0703     H
H       0.6265   0.1534   0.7262     H
H       0.6265   0.8466   0.2262     H
C       0.6386   0.3658   0.5414     C
C       0.6386   0.6342   0.0414     C
C        0.639   0.1425   0.2356     C
C        0.639    0.165     0.81     C
C        0.639    0.835     0.31     C
C        0.639   0.8575   0.7356     C
C       0.6406   0.1146   0.2828     C
C       0.6406   0.8854   0.7828     C
C       0.6415     0.34    0.973     C
C       0.6415     0.66    0.473     C
C       0.6421   0.4245   0.5667     C
C       0.6421   0.5755   0.0667     C
C       0.6428    0.397    0.951     C
C       0.6428    0.603    0.451     C
C       0.6437   0.1396   0.7697     C
C       0.6437   0.8604   0.2697     C
H       0.6634   0.1701   0.9022     H
H       0.6634   0.8299   0.4022     H
C       0.6652    0.149    0.873     C
C       0.6652    0.851    0.373     C
H       0.6676   0.3082   0.5194     H
H       0.6676   0.6918   0.0194     H
C       0.6694   0.3482   0.5384     C
C       0.6694   0.6518   0.0384     C
C       0.6712   0.1259   0.2349     C
C       0.6712   0.8741   0.7349     C
H       0.6713    0.143   0.2024     H
H       0.6713    0.857   0.7024     H
H       0.6728   0.2835    0.051     H
H       0.6728   0.7165    0.551     H
C       0.6732    0.324    0.034     C
C       0.6732    0.676    0.534     C
C       0.6733   0.0721   0.3277     C
C       0.6733   0.9279   0.8277     C
C       0.6735    0.094   0.7921     C
C       0.6735    0.906   0.2921     C
H       0.6738   0.0542   0.3605     H
H       0.6738   0.9458   0.8605     H
C        0.675   0.4651    0.587     C
C        0.675   0.5349    0.087     C
H       0.6758   0.0745   0.7627     H
H       0.6758   0.4931   0.1025     H
H       0.6758   0.5069   0.6025     H
H       0.6758   0.9255   0.2627     H
C       0.6771   0.4376   0.9938     C
C       0.6771   0.5624   0.4938     C
H       0.6777   0.4786   0.9784     H
H       0.6777   0.5214   0.4784     H
C       0.6954      0.1   0.8934     C
C       0.6954      0.9   0.3934     C
N       0.7002   0.0744   0.8534     N
N       0.7002   0.9256   0.3534     N
C       0.7028   0.3894    0.563     C
C       0.7028   0.6106    0.063     C
C        0.703   0.0852   0.2803     C
C        0.703   0.9148   0.7803     C
N       0.7031   0.0567   0.3253     N
N       0.7031   0.9433   0.8253     N
N       0.7057   0.4481   0.5859     N
N       0.7057   0.5519   0.0859     N
C        0.708    0.368    0.074     C
C        0.708    0.632    0.574     C
N       0.7083   0.4228   0.0534     N
N       0.7083   0.5772   0.5534     N
H       0.7125   0.0852   0.9365     H
H       0.7125   0.9148   0.4365     H
H       0.7251   0.3751   0.5639     H
H       0.7251   0.6249   0.0639     H
H       0.7256   0.0768   0.2802     H
H       0.7256   0.9232   0.7802     H
H       0.7312   0.3556   0.1169     H
H       0.7312   0.6444   0.6169     H
Cu     0.74712  0.00996   0.8864    Cu
Cu     0.74712  0.99004   0.3864    Cu
Cu     0.75288  0.49004   0.1136    Cu
Cu     0.75288  0.50996   0.6136    Cu
H       0.7688   0.1444   0.8831     H
H       0.7688   0.8556   0.3831     H
H       0.7744   0.4232   0.7198     H
H       0.7744   0.5768   0.2198     H
H       0.7749   0.1249   0.4361     H
H       0.7749   0.8751   0.9361     H
H       0.7875   0.4148   0.0635     H
H       0.7875   0.5852   0.5635     H
N       0.7917   0.0772   0.9466     N
N       0.7917   0.9228   0.4466     N
C        0.792    0.132    0.926     C
C        0.792    0.868    0.426     C
N       0.7943   0.0519   0.4141     N
N       0.7943   0.9481   0.9141     N
N       0.7969   0.4433   0.6747     N
N       0.7969   0.5567   0.1747     N
C        0.797   0.4148   0.7197     C
C        0.797   0.5852   0.2197     C
C       0.7972   0.1106    0.437     C
C       0.7972   0.8894    0.937     C
N       0.7998   0.4256   0.1466     N
N       0.7998   0.5744   0.6466     N
C       0.8046      0.4   0.1066     C
C       0.8046      0.6   0.6066     C
H       0.8223   0.0214   0.0216     H
H       0.8223   0.9786   0.5216     H
C       0.8229   0.0624   0.0062     C
C       0.8229   0.9376   0.5062     C
H       0.8242   0.0069   0.8975     H
H       0.8242   0.4255   0.2373     H
H       0.8242   0.5745   0.7373     H
H       0.8242   0.9931   0.3975     H
C        0.825   0.0349    0.413     C
C        0.825   0.9651    0.913     C
H       0.8262   0.4458   0.6395     H
H       0.8262   0.5542   0.1395     H
C       0.8265    0.406   0.2079     C
C       0.8265    0.594   0.7079     C
C       0.8267   0.4279   0.6723     C
C       0.8267   0.5721   0.1723     C
C       0.8268    0.176    0.966     C
C       0.8268    0.824    0.466     C
H       0.8272   0.2165    0.949     H
H       0.8272   0.7835    0.449     H
H       0.8287    0.357   0.7976     H
H       0.8287    0.643   0.2976     H
C       0.8288   0.3741   0.7651     C
C       0.8288   0.6259   0.2651     C
C       0.8306   0.1518   0.4616     C
C       0.8306   0.8482   0.9616     C
H       0.8324   0.1918   0.4806     H
H       0.8324   0.8082   0.9806     H
C       0.8348    0.351    0.127     C
C       0.8348    0.649    0.627     C
H       0.8366   0.3299   0.0978     H
H       0.8366   0.6701   0.5978     H
C       0.8563   0.3604   0.2303     C
C       0.8563   0.6396   0.7303     C
C       0.8572    0.103    0.049     C
C       0.8572    0.897    0.549     C
C       0.8579   0.0755   0.4333     C
C       0.8579   0.9245   0.9333     C
C       0.8585     0.16    0.027     C
C       0.8585     0.84    0.527     C
C       0.8594   0.3854   0.7172     C
C       0.8594   0.6146   0.2172     C
C        0.861    0.335     0.19     C
C        0.861   0.3575   0.7644     C
C        0.861   0.6425   0.2644     C
C        0.861    0.665     0.69     C
C       0.8614   0.1342   0.4586     C
C       0.8614   0.8658   0.9586     C
H       0.8735   0.3466   0.2738     H
H       0.8735   0.6534   0.7738     H
H       0.8784   0.0622   0.4297     H
H       0.8784   0.9378   0.9297     H
H       0.8789   0.0905   0.0923     H
H       0.8789   0.9095   0.5923     H
H       0.8809   0.3759   0.7148     H
H       0.8809   0.6241   0.2148     H
O        0.887   0.2639   0.0484     O
O        0.887   0.7361   0.5484     O
O        0.893    0.253    0.172     O
C        0.893     0.28    0.212     C
C        0.893     0.72    0.712     C
O        0.893    0.747    0.672     O
C        0.894    0.207    0.069     C
C        0.894    0.793    0.569     C
C       0.8956   0.3162   0.8115     C
C       0.8956   0.6838   0.3115     C
C       0.8964   0.1798   0.4827     C
C       0.8964   0.8202   0.9827     C
O       0.9025   0.3141   0.8656     O
O       0.9025   0.6859   0.3656     O
O       0.9044   0.2251    0.517     O
O       0.9044   0.7749    0.017     O
H       0.9078   0.3533   0.0864     H
H       0.9078   0.6467   0.5864     H
H       0.9087   0.2595   0.9812     H
H       0.9087   0.7405   0.4812     H
O        0.917   0.1646   0.4623     O
O        0.917   0.2873   0.8025     O
O        0.917   0.7127   0.3025     O
O        0.917   0.8354   0.9623     O
O       0.9182   0.2683    0.273     O
O       0.9182   0.7317    0.773     O
C         0.92    0.311    0.088     C
C         0.92    0.689    0.588     C
H       0.9255   0.0908   0.0035     H
H       0.9255   0.9092   0.5035     H
O       0.9272    0.186    0.115     O
O       0.9272    0.814    0.615     O
H       0.9287   0.2461   0.3686     H
H       0.9287   0.7539   0.8686     H
H        0.929   0.2312   0.9149     H
H        0.929   0.7688   0.4149     H
C       0.9314   0.2897   0.0028     C
C       0.9314   0.7103   0.5028     C
C       0.9377   0.2767    0.918     C
C       0.9377   0.7233    0.418     C
H       0.9397   0.2964   0.1333     H
H       0.9397   0.7036   0.6333     H
H       0.9404   0.0527   0.6146     H
H       0.9404   0.9473   0.1146     H
H       0.9405   0.4046    0.369     H
H       0.9405   0.5954    0.869     H
H       0.9408   0.2541   0.4692     H
H       0.9408   0.7459   0.9692     H
H       0.9415   0.1863   0.2646     H
H       0.9415   0.8137   0.7646     H
C       0.9452   0.3196   0.0605     C
C       0.9452   0.6804   0.5605     C
H       0.9454   0.1379   0.6744     H
H       0.9454   0.8621   0.1744     H
C       0.9505   0.2145   0.3883     C
C       0.9505   0.7855   0.8883     C
H       0.9507   0.0492   0.9879     H
H       0.9507   0.9508   0.4879     H
H        0.951   0.3689   0.7247     H
H        0.951   0.6311   0.2247     H
H       0.9512   0.4549   0.7798     H
H       0.9512   0.5451   0.2798     H
C       0.9514    0.209   0.4811     C
C       0.9514    0.791   0.9811     C
C       0.9518   0.3056   0.9783     C
C       0.9518   0.6944   0.4783     C
C        0.952    0.222    0.296     C
C        0.952    0.778    0.796     C
C       0.9528   0.0695    0.023     C
C       0.9528   0.9305    0.523     C
H       0.9552   0.2048   0.7971     H
H       0.9552   0.7952   0.2971     H
H       0.9557   0.2846   0.6122     H
H       0.9557   0.7154   0.1122     H
H       0.9558   0.3652   0.5541     H
H       0.9558   0.6348   0.0541     H
H       0.9578   0.1204   0.8566     H
H       0.9578   0.8796   0.3566     H
O       0.9605    0.019   0.0674     O
O       0.9605    0.981   0.5674     O
H        0.961   0.2772   0.9163     H
H        0.961   0.7228   0.4163     H
C       0.9625   0.0837   0.6326     C
C       0.9625   0.9163   0.1326     C
H       0.9652   0.4476   0.4329     H
H       0.9652   0.5524   0.9329     H
C       0.9656   0.1343   0.6682     C
C       0.9656   0.8657   0.1682     C
C       0.9661   0.1948   0.3576     C
C       0.9661   0.8052   0.8576     C
C       0.9666   0.1884   0.4472     C
C       0.9666   0.8116   0.9472     C
C       0.9671   0.4283   0.4014     C
C       0.9671   0.5717   0.9014     C
C       0.9704   0.4199   0.8028     C
C       0.9704   0.5801   0.3028     C
C       0.9708   0.3694   0.7703     C
C       0.9708   0.6306   0.2703     C
O       0.9726   0.4802   0.3697     O
O       0.9726   0.5198   0.8697     O
H       0.9746   0.2071   0.5281     H
C       0.9746   0.3673   0.5996     C
C       0.9746   0.6327   0.0996     C
H       0.9746   0.7929   0.0281     H
C       0.9749   0.3196   0.6343     C
C       0.9749   0.6804   0.1343     C
H       0.9759   0.2432   0.3027     H
H       0.9759   0.7568   0.8027     H
C       0.9761   0.3654   0.0891     C
C       0.9761   0.6346   0.5891     C
C       0.9769   0.1732   0.8152     C
C       0.9769   0.8268   0.3152     C
C       0.9782   0.1229   0.8509     C
C       0.9782   0.8771   0.3509     C
O       0.9796   0.4707   0.5358     O
O       0.9796   0.5293   0.0358     O
C       0.9835   0.3508   0.0098     C
C       0.9835   0.6492   0.5098     C
H        0.984   0.3867   0.1264     H
H        0.984   0.6133   0.6264     H
C       0.9873   0.1201   0.0557     C
C       0.9873   0.8799   0.5557     C
O       0.9876    0.022   0.9296     O
O       0.9876    0.978   0.4296     O
C       0.9885    0.024   0.5844     C
C       0.9885    0.976   0.0844     C
C        0.991   0.0778   0.6229     C
C        0.991   0.9222   0.1229     C
H       0.9916   0.1221   0.9864     H
H       0.9916   0.8779   0.4864     H
H       0.9942   0.1331    0.136     H
H       0.9942   0.8669    0.636     H
C       0.9959   0.1478   0.3855     C
C       0.9959   0.8522   0.8855     C
N       0.9961   0.1788   0.6946     N
N       0.9961   0.8212   0.1946     N
C       0.9964    0.382   0.0649     C
C       0.9964    0.618   0.5649     C
H       0.9972   0.3613    0.993     H
H       0.9972   0.6387    0.493     H
C       0.9974   0.4197   0.8679     C
C       0.9974   0.5803   0.3679     C
C       0.9975   0.1408   0.4736     C
C       0.9975   0.8592   0.9736     C
N        0.999   0.3201   0.8018     N
N        0.999   0.6799   0.3018     N
C       0.9995   0.4728    0.907     C
C       0.9995   0.5272    0.407     C
