data_I
_chemical_name_common  '/home/zhangsd/repos/MofS-CGCNN/ML/data/TSD/clean_cifs/DOTTEM_clean'
_cell_length_a 17.41000
_cell_length_b  6.74440
_cell_length_c 12.16460
_cell_angle_alpha 90.00000
_cell_angle_beta  90.00000
_cell_angle_gamma 90.00000
_space_group_name_H-M_alt      'P 1'


loop_
_space_group_symop_operation_xyz
  'x, y, z' 

loop_
_atom_site_label
_atom_site_fract_x
_atom_site_fract_y
_atom_site_fract_z
_atom_site_type_symbol
Ga         0.0      0.0      0.0    Ga
Ga         0.0      0.5      0.0    Ga
O      0.00563     0.75   0.0713     O
H        0.018     0.75    0.114     H
O      0.07387  0.58308   0.8861     O
O      0.07387  0.91692   0.8861     O
O       0.0891   0.0832  0.08881     O
O       0.0891   0.4168  0.08881     O
C      0.10046     0.75     0.86     C
C      0.11712     0.25   0.1112     C
C      0.17169     0.75   0.7903     C
H       0.1828   0.0475   0.7802     H
H       0.1828   0.4525   0.7802     H
C      0.19204     0.25   0.1724     C
H       0.2035   0.5476   0.1818     H
H       0.2035   0.9524   0.1818     H
C      0.20571    0.572   0.7606     C
C      0.20571    0.928   0.7606     C
C      0.22625   0.0719   0.2017     C
C      0.22625   0.4281   0.2017     C
C      0.27375   0.5719   0.7017     C
C      0.27375   0.9281   0.7017     C
C      0.29429    0.072   0.2606     C
C      0.29429    0.428   0.2606     C
H       0.2965   0.0476   0.6818     H
H       0.2965   0.4524   0.6818     H
C      0.30796     0.75   0.6724     C
H       0.3172   0.5475   0.2802     H
H       0.3172   0.9525   0.2802     H
C      0.32831     0.25   0.2903     C
C      0.38288     0.75   0.6112     C
C      0.39954     0.25     0.36     C
O       0.4109   0.5832  0.58881     O
O       0.4109   0.9168  0.58881     O
O      0.42613  0.08308   0.3861     O
O      0.42613  0.41692   0.3861     O
H        0.482     0.25    0.614     H
O      0.49437     0.25   0.5713     O
Ga         0.5      0.0      0.5    Ga
Ga         0.5      0.5      0.5    Ga
O      0.50563     0.75   0.4287     O
H        0.518     0.75    0.386     H
O      0.57387  0.58308   0.6139     O
O      0.57387  0.91692   0.6139     O
O       0.5891   0.0832  0.41119     O
O       0.5891   0.4168  0.41119     O
C      0.60046     0.75     0.64     C
C      0.61712     0.25   0.3888     C
C      0.67169     0.75   0.7097     C
H       0.6828   0.0475   0.7198     H
H       0.6828   0.4525   0.7198     H
C      0.69204     0.25   0.3276     C
H       0.7035   0.5476   0.3182     H
H       0.7035   0.9524   0.3182     H
C      0.70571    0.572   0.7394     C
C      0.70571    0.928   0.7394     C
C      0.72625   0.0719   0.2983     C
C      0.72625   0.4281   0.2983     C
C      0.77375   0.5719   0.7983     C
C      0.77375   0.9281   0.7983     C
C      0.79429    0.072   0.2394     C
C      0.79429    0.428   0.2394     C
H       0.7965   0.0476   0.8182     H
H       0.7965   0.4524   0.8182     H
C      0.80796     0.75   0.8276     C
H       0.8172   0.5475   0.2198     H
H       0.8172   0.9525   0.2198     H
C      0.82831     0.25   0.2097     C
C      0.88288     0.75   0.8888     C
C      0.89954     0.25     0.14     C
O       0.9109   0.5832  0.91119     O
O       0.9109   0.9168  0.91119     O
O      0.92613  0.08308   0.1139     O
O      0.92613  0.41692   0.1139     O
H        0.982     0.25    0.886     H
O      0.99437     0.25   0.9287     O
