data_I
_chemical_name_common  '/home/zhangsd/repos/MofS-CGCNN/ML/data/TSD/clean_cifs/DOTYES_clean'
_cell_length_a 28.55200
_cell_length_b 27.84540
_cell_length_c 27.88700
_cell_angle_alpha 90.00000
_cell_angle_beta  120.61000
_cell_angle_gamma 90.00000
_space_group_name_H-M_alt      'P 1'


loop_
_space_group_symop_operation_xyz
  'x, y, z' 

loop_
_atom_site_label
_atom_site_fract_x
_atom_site_fract_y
_atom_site_fract_z
_atom_site_type_symbol
Ni         0.0   0.4498     0.25    Ni
C        0.001   0.4001    0.779     C
C        0.001   0.5999    0.279     C
N       0.0039   0.1559   0.0208     N
N       0.0039   0.8441   0.5208     N
H       0.0041     0.17     0.05     H
H       0.0041     0.83     0.55     H
H       0.0047   0.1781   0.5058     H
H       0.0047   0.8219   0.0058     H
N       0.0064   0.4938   0.8024     N
N       0.0064   0.5062   0.3024     N
C        0.007   0.4504    0.732     C
C        0.007   0.5496    0.232     C
H       0.0168    0.498   0.6852     H
H       0.0168    0.502   0.1852     H
H       0.0189   0.2576   0.3193     H
H       0.0189   0.7424   0.8193     H
C        0.019   0.2259    0.333     C
C        0.019   0.7741    0.833     C
H         0.02    0.096    0.467     H
H         0.02    0.904    0.967     H
C       0.0212   0.0834   0.5349     C
C       0.0212   0.9166   0.0349     C
H       0.0274   0.1004    0.568     H
H       0.0274   0.8996    0.068     H
H       0.0287   0.3832   0.7211     H
H       0.0287   0.6168   0.2211     H
H       0.0322   0.2033   0.3167     H
H       0.0322   0.7967   0.8167     H
N       0.0343   0.0688   0.9966     N
N       0.0343   0.9312   0.4966     N
H        0.036   0.3913   0.8108     H
H        0.036   0.6087   0.3108     H
C       0.0362   0.1158   0.5011     C
C       0.0362   0.8842   0.0011     C
H       0.0378   0.0435   0.0182     H
H       0.0378   0.9565   0.5182     H
C       0.0394   0.2123   0.1832     C
C       0.0394   0.7877   0.6832     C
H       0.0405   0.4919   0.8319     H
H       0.0405   0.5081   0.3319     H
H       0.0417   0.2254   0.3727     H
H       0.0417   0.7746   0.8727     H
H       0.0445   0.0553   0.5467     H
H       0.0445   0.9447   0.0467     H
H       0.0463   0.0602   0.9736     H
H       0.0463   0.9398   0.4736     H
H        0.047    0.453    0.755     H
H        0.047    0.547    0.255     H
H       0.0471   0.2767   0.7644     H
H       0.0471   0.7233   0.2644     H
O       0.0482   0.1912   0.1462     O
O       0.0482   0.8088   0.6462     O
O       0.0729    0.222   0.2343     O
O       0.0729    0.778   0.7343     O
O       0.0771   0.0524   0.2028     O
O       0.0771   0.9476   0.7028     O
Ni     0.07889   0.1261  0.04525    Ni
Ni     0.07889   0.8739  0.54525    Ni
H       0.0791   0.2294   0.7312     H
H       0.0791   0.7706   0.2312     H
C       0.0846   0.2687   0.7915     C
C       0.0846   0.7313   0.2915     C
C       0.0847   0.1185    0.509     C
C       0.0847   0.8815    0.009     C
H       0.0853    0.259   0.8253     H
O       0.0853    0.448   0.2847     O
O       0.0853    0.552   0.7847     O
H       0.0853    0.741   0.3253     H
O       0.0867   0.0983   0.1213     O
O       0.0867   0.9017   0.6213     O
H       0.0868   0.1453   0.4883     H
H       0.0868   0.8547   0.9883     H
H       0.0884   0.1997   0.7834     H
H       0.0884   0.8003   0.2834     H
W      0.08957  0.03648  0.14315     W
W      0.08957  0.96352  0.64315     W
O       0.0916   0.4325   0.1285     O
O       0.0916   0.5675   0.6285     O
H       0.0929   0.0894   0.4958     H
H       0.0929   0.9106   0.9958     H
W      0.09327  0.49583   0.6362     W
W      0.09327  0.50417   0.1362     W
C       0.0983   0.2288   0.7716     C
C       0.0983   0.7712   0.2716     C
H       0.1012   0.3335   0.7749     H
H       0.1012   0.6665   0.2749     H
H       0.1015   0.0482   0.4285     H
H       0.1015   0.9518   0.9285     H
O       0.1041   0.4949   0.5738     O
O       0.1041   0.5051   0.0738     O
O       0.1085   0.4889   0.2089     O
O       0.1085   0.5111   0.7089     O
H       0.1086   0.0405   0.3807     H
H       0.1086   0.9595   0.8807     H
H       0.1105   0.1227   0.5477     H
H       0.1105   0.8773   0.0477     H
W       0.1123  0.37155     0.16     W
W       0.1123  0.62845     0.66     W
O       0.1126   0.0294   0.6814     O
O       0.1126   0.9706   0.1814     O
O        0.116   0.4346   0.6558     O
O        0.116   0.5654   0.1558     O
N       0.1165   0.3136   0.8044     N
N       0.1165   0.6864   0.3044     N
H       0.1176   0.3286   0.8335     H
H       0.1176   0.6714   0.3335     H
Ni     0.11982   0.1617  0.16554    Ni
Ni     0.11982   0.8383  0.66554    Ni
O       0.1203     0.18    0.096     O
O       0.1203     0.82    0.596     O
H       0.1218   0.1785   0.3404     H
H       0.1218   0.8215   0.8404     H
O       0.1241   0.3982   0.2274     O
O       0.1241   0.6018   0.7274     O
N       0.1251   0.0385    0.418     N
N       0.1251   0.9615    0.918     N
O       0.1289   0.3541   0.1029     O
O       0.1289   0.6459   0.6029     O
O       0.1301   0.1375   0.2398     O
O       0.1301   0.8625   0.7398     O
O       0.1313   0.0172   0.1087     O
O       0.1313   0.9828   0.6087     O
H        0.135    0.243    0.374     H
H        0.135    0.757    0.874     H
W      0.13515  0.07968  0.27146     W
W      0.13515  0.92032  0.77146     W
O       0.1362    0.083    0.771     O
O       0.1362    0.917    0.271     O
W      0.14105  0.08806  0.70453     W
W      0.14105  0.91194  0.20453     W
W      0.14141   0.4545    0.277     W
W      0.14141   0.5455    0.777     W
W      0.14493  0.37207  0.69992     W
W      0.14493  0.62793  0.19992     W
O        0.145   0.0171   0.0164     O
O        0.145   0.9829   0.5164     O
Ni     0.15023  0.03122  0.94416    Ni
Ni     0.15023  0.96878  0.44416    Ni
O       0.1511   0.4088     0.76     O
O       0.1511   0.5912     0.26     O
H       0.1526   0.2925   0.2968     H
H       0.1526   0.7075   0.7968     H
O       0.1528   0.0109   0.2967     O
O       0.1528   0.9891   0.7967     O
Ni      0.1538  0.20489  0.27681    Ni
Ni      0.1538  0.79511  0.77681    Ni
N       0.1551   0.1882   0.3485     N
N       0.1551   0.8118   0.8485     N
O       0.1575   0.0502   0.8754     O
O       0.1575   0.9498   0.3754     O
N       0.1587   0.2304   0.7948     N
N       0.1587   0.7696   0.2948     N
H       0.1591   0.2017   0.4493     H
H       0.1591   0.7983   0.9493     H
O       0.1593    0.357   0.6412     O
O       0.1593    0.643   0.1412     O
O       0.1596   0.2195   0.2098     O
O       0.1596   0.7805   0.7098     O
O       0.1602   0.0981   0.0771     O
O       0.1602   0.9019   0.5771     O
O       0.1632   0.3212   0.2034     O
O       0.1632   0.6788   0.7034     O
H       0.1654   0.2209    0.768     H
H       0.1654   0.7791    0.268     H
H       0.1659   0.0928   0.4629     H
H       0.1659   0.9072   0.9629     H
O       0.1686    0.432   0.0795     O
O       0.1686    0.568   0.5795     O
O       0.1698   0.4899    0.815     O
O       0.1698   0.5101    0.315     O
C       0.1723   0.0672   0.4434     C
C       0.1723   0.2312   0.3877     C
C       0.1723   0.7688   0.8877     C
C       0.1723   0.9328   0.9434     C
H       0.1725   0.2981    0.379     H
H       0.1725   0.7019    0.879     H
O       0.1739   0.0867   0.6603     O
O       0.1739   0.9133   0.1603     O
H       0.1747   0.2091   0.8229     H
H       0.1747   0.7909   0.3229     H
O       0.1754   0.0585     0.22     O
O       0.1754   0.9415     0.72     O
H       0.1755    0.082   0.4137     H
H       0.1755    0.918   0.9137     H
W      0.17564  0.49659   0.5842     W
W      0.17564  0.50341   0.0842     W
H       0.1785   0.1638   0.3657     H
H       0.1785   0.8362   0.8657     H
N       0.1786   0.2706   0.3165     N
N       0.1786   0.7294   0.8165     N
W      0.17955   0.0357  0.08592     W
W      0.17955   0.9643  0.58592     W
H       0.1833   0.2537   0.4648     H
H       0.1833   0.7463   0.9648     H
W      0.18449  0.04455  0.83254     W
W      0.18449  0.95545  0.33254     W
C        0.185   0.2235   0.4493     C
C        0.185   0.7765   0.9493     C
O       0.1853   0.3239    0.743     O
O       0.1853    0.489   0.1707     O
O       0.1853    0.511   0.6707     O
O       0.1853   0.6761    0.243     O
O       0.1889   0.4352   0.6098     O
O       0.1889   0.5648   0.1098     O
C       0.1896   0.2701   0.3736     C
C       0.1896   0.7299   0.8736     C
O       0.1928   0.4152   0.3357     O
O       0.1928   0.5848   0.8357     O
Ni     0.19318  0.29535  0.82315    Ni
Ni     0.19318  0.70465  0.32315    Ni
O       0.1932   0.1412   0.7426     O
O       0.1932   0.8588   0.2426     O
W      0.19343  0.42158   0.8385     W
W      0.19343  0.57842   0.3385     W
Ni     0.19669  0.16168  0.11667    Ni
Ni     0.19669  0.83832  0.61667    Ni
O       0.1968   0.1916   0.0502     O
O       0.1968   0.8084   0.5502     O
H       0.1974   0.2616   0.9877     H
H       0.1974   0.7384   0.4877     H
W       0.1979  0.37127  0.10803     W
W       0.1979  0.62873  0.60803     W
O          0.2   0.1362   0.1905     O
O          0.2   0.8638   0.6905     O
O       0.2021   0.4006   0.1913     O
O       0.2021   0.5994   0.6913     O
O       0.2077   0.0905   0.3288     O
O       0.2077   0.9095   0.8288     O
H        0.209   0.2797   0.3168     H
H        0.209   0.7203   0.8168     H
H       0.2096   0.4182   0.5035     H
H       0.2096   0.5818   0.0035     H
H       0.2127   0.2136     0.97     H
H       0.2127   0.7864     0.47     H
O       0.2147   0.0299   0.6152     O
O       0.2147   0.9701   0.1152     O
H       0.2155   0.4244   0.4509     H
H       0.2155   0.5756   0.9509     H
O       0.2189   0.0443   0.7711     O
O       0.2189   0.9557   0.2711     O
O        0.219   0.2776   0.9052     O
O        0.219   0.7224   0.4052     O
O       0.2193   0.4557   0.2681     O
O       0.2193   0.5443   0.7681     O
C        0.221   0.0478    0.479     C
C        0.221   0.9522    0.979     C
H       0.2211   0.2103   0.4714     H
H       0.2211   0.7897   0.9714     H
P      0.22111  0.08552  0.21679     P
P      0.22111  0.91448  0.71679     P
P      0.22292  0.45127  0.21584     P
P      0.22292  0.54873  0.71584     P
O       0.2254   0.3641   0.8519     O
O       0.2254   0.6359   0.3519     O
C        0.226   0.2379   0.9989     C
C        0.226   0.7621   0.4989     C
N       0.2271   0.0006   0.9856     N
N       0.2271   0.9994   0.4856     N
W      0.22764  0.37196  0.64688     W
W      0.22764  0.62804  0.14688     W
H       0.2285    0.273   0.3988     H
H       0.2285    0.727   0.8988     H
O       0.2287   0.3212   0.1633     O
O       0.2287   0.6788   0.6633     O
O       0.2293   0.4079   0.7245     O
O       0.2293   0.5921   0.2245     O
H         0.23    0.046     0.45     H
H         0.23    0.954     0.95     H
W      0.23237  0.08865  0.64636     W
W      0.23237  0.91135  0.14636     W
O        0.233   0.1007   0.8615     O
O        0.233   0.2191   0.1643     O
O        0.233   0.7809   0.6643     O
O        0.233   0.8993   0.3615     O
C       0.2345   0.4169     0.49     C
C       0.2345   0.5831     0.99     C
C       0.2353   0.2146   0.0513     C
C       0.2353   0.7854   0.5513     C
O       0.2368   0.0576   0.1787     O
O       0.2368   0.9424   0.6787     O
O       0.2369   0.1762   0.3053     O
O       0.2369   0.8238   0.8053     O
Ni     0.23707  0.20084  0.23519    Ni
Ni     0.23707  0.79916  0.73519    Ni
O       0.2372   0.2294   0.7356     O
O       0.2372   0.7706   0.2356     O
W      0.24136  0.32862  0.23843     W
W      0.24136  0.67138  0.73843     W
O       0.2424   0.3582   0.2978     O
O       0.2424   0.6418   0.7978     O
H       0.2443   0.0083    0.022     H
H       0.2443   0.9917    0.522     H
H       0.2471   0.0114   0.9713     H
H       0.2471   0.9886   0.4713     H
O       0.2493   0.0513   0.0942     O
O       0.2493   0.9487   0.5942     O
H       0.2496   0.3852   0.4956     H
H       0.2496   0.6148   0.9956     H
O       0.2497   0.4894   0.1186     O
O       0.2497   0.5106   0.6186     O
O       0.2503   0.0106   0.8814     O
O       0.2503   0.9894   0.3814     O
H       0.2504   0.1148   0.5044     H
H       0.2504   0.8852   0.0044     H
O       0.2507   0.4487   0.9058     O
O       0.2507   0.5513   0.4058     O
H       0.2529   0.4886   0.0287     H
H       0.2529   0.5114   0.5287     H
H       0.2557   0.4917    0.978     H
H       0.2557   0.5083    0.478     H
O       0.2576   0.1418   0.7022     O
O       0.2576   0.8582   0.2022     O
W      0.25864  0.17138  0.76157     W
W      0.25864  0.82862  0.26157     W
O       0.2628   0.2706   0.2644     O
O       0.2628   0.7294   0.7644     O
Ni     0.26293  0.29916  0.76481    Ni
Ni     0.26293  0.70084  0.26481    Ni
O       0.2631   0.3238   0.6947     O
O       0.2631   0.6762   0.1947     O
O       0.2632   0.4424   0.8213     O
O       0.2632   0.5576   0.3213     O
C       0.2647   0.2854   0.9487     C
C       0.2647   0.7146   0.4487     C
C       0.2655   0.0831     0.51     C
C       0.2655   0.9169     0.01     C
O        0.267   0.2809   0.8357     O
O        0.267   0.3993   0.1385     O
O        0.267   0.6007   0.6385     O
O        0.267   0.7191   0.3357     O
W      0.26763  0.41135  0.35364     W
W      0.26763  0.58865  0.85364     W
H         0.27    0.454     0.55     H
H         0.27    0.546     0.05     H
O       0.2707   0.0921   0.2755     O
O       0.2707   0.9079   0.7755     O
O       0.2713   0.1788   0.8367     O
O       0.2713   0.8212   0.3367     O
H       0.2715    0.227   0.6012     H
H       0.2715    0.773   0.1012     H
W      0.27236  0.12804  0.35312     W
W      0.27236  0.87196  0.85312     W
N       0.2729   0.4994   0.0144     N
N       0.2729   0.5006   0.5144     N
C        0.274   0.2621   0.0011     C
C        0.274   0.7379   0.5011     C
O       0.2746   0.1359   0.1481     O
O       0.2746   0.8641   0.6481     O
P      0.27708  0.04873  0.78416     P
P      0.27708  0.95127  0.28416     P
P      0.27889  0.41448  0.78321     P
P      0.27889  0.58552  0.28321     P
H       0.2789   0.2897   0.5286     H
H       0.2789   0.7103   0.0286     H
C        0.279   0.4522    0.521     C
C        0.279   0.5478    0.021     C
O       0.2807   0.0443   0.7319     O
O       0.2807   0.9557   0.2319     O
O        0.281   0.2224   0.0948     O
O        0.281   0.7776   0.5948     O
O       0.2811   0.4557   0.2289     O
O       0.2811   0.5443   0.7289     O
H       0.2845   0.0756   0.5491     H
H       0.2845   0.9244   0.0491     H
O       0.2853   0.4701   0.3848     O
O       0.2853   0.5299   0.8848     O
H       0.2873   0.2864     0.03     H
H       0.2873   0.7136     0.53     H
H       0.2904   0.0818   0.4965     H
H       0.2904   0.9182   0.9965     H
H        0.291   0.2203   0.6832     H
H        0.291   0.7797   0.1832     H
O       0.2923   0.4095   0.6712     O
O       0.2923   0.5905   0.1712     O
O       0.2979   0.0994   0.8087     O
O       0.2979   0.9006   0.3087     O
O          0.3   0.3638   0.8095     O
O          0.3   0.6362   0.3095     O
W       0.3021  0.12873  0.89197     W
W       0.3021  0.87127  0.39197     W
H       0.3026   0.2384   0.0123     H
H       0.3026   0.7616   0.5123     H
O       0.3032   0.3084   0.9498     O
O       0.3032   0.6916   0.4498     O
Ni     0.30331  0.33832  0.88333    Ni
Ni     0.30331  0.66168  0.38333    Ni
W      0.30657  0.07842   0.1615     W
W      0.30657  0.92158   0.6615     W
O       0.3068   0.3588   0.2574     O
O       0.3068   0.6412   0.7574     O
Ni     0.30682  0.20465  0.17685    Ni
Ni     0.30682  0.79535  0.67685    Ni
O       0.3072   0.0848   0.6643     O
O       0.3072   0.9152   0.1643     O
C       0.3104   0.2299   0.6264     C
C       0.3104   0.7701   0.1264     C
O       0.3111   0.0648   0.3902     O
O       0.3111   0.9352   0.8902     O
O       0.3147    0.011   0.8293     O
O       0.3147   0.1761    0.257     O
O       0.3147   0.8239    0.757     O
O       0.3147    0.989   0.3293     O
C        0.315   0.2765   0.5507     C
C        0.315   0.7235   0.0507     C
W      0.31551  0.45545  0.16746     W
W      0.31551  0.54455  0.66746     W
H       0.3167   0.2463   0.5352     H
H       0.3167   0.7537   0.0352     H
W      0.32045   0.4643  0.91408     W
W      0.32045   0.5357  0.41408     W
N       0.3214   0.2294   0.6835     N
N       0.3214   0.7706   0.1835     N
H       0.3215   0.3362   0.6343     H
H       0.3215   0.6638   0.1343     H
W      0.32436  0.00341   0.4158     W
W      0.32436  0.99659   0.9158     W
H       0.3245    0.418   0.5863     H
H       0.3245    0.582   0.0863     H
O       0.3246   0.4415     0.78     O
O       0.3246   0.5585     0.28     O
H       0.3253   0.2909   0.1771     H
H       0.3253   0.7091   0.6771     H
O       0.3261   0.4133   0.3397     O
O       0.3261   0.5867   0.8397     O
H       0.3275   0.2019    0.621     H
H       0.3275   0.7981    0.121     H
C       0.3277   0.2688   0.6123     C
C       0.3277   0.4328   0.5566     C
C       0.3277   0.5672   0.0566     C
C       0.3277   0.7312   0.1123     C
O       0.3302   0.0101    0.185     O
O       0.3302   0.9899    0.685     O
O       0.3314    0.068   0.9205     O
O       0.3314    0.932   0.4205     O
H       0.3341   0.4072   0.5371     H
H       0.3341   0.5928   0.0371     H
H       0.3346   0.2791    0.232     H
H       0.3346   0.7209    0.732     H
O       0.3368   0.1788   0.7966     O
O       0.3368   0.8212   0.2966     O
O       0.3398   0.4019   0.9229     O
O       0.3398   0.5981   0.4229     O
O       0.3404   0.2805   0.7902     O
O       0.3404   0.7195   0.2902     O
O       0.3407    0.143   0.3588     O
O       0.3407    0.857   0.8588     O
H       0.3409   0.2983   0.5507     H
H       0.3409   0.7017   0.0507     H
N       0.3413   0.2696   0.2052     N
N       0.3413   0.7304   0.7052     N
O       0.3425   0.4498   0.1246     O
O       0.3425   0.5502   0.6246     O
N       0.3449   0.3118   0.6515     N
N       0.3449   0.6882   0.1515     N
Ni      0.3462  0.29511  0.72319    Ni
Ni      0.3462  0.70489  0.22319    Ni
O       0.3472   0.4891   0.7033     O
O       0.3472   0.5109   0.2033     O
H       0.3474   0.2075   0.7032     H
H       0.3474   0.7925   0.2032     H
O       0.3489   0.0912     0.24     O
O       0.3489   0.9088     0.74     O
Ni     0.34977  0.46878  0.05584    Ni
Ni     0.34977  0.53122  0.55584    Ni
O        0.355   0.4829   0.9836     O
O        0.355   0.5171   0.4836     O
W      0.35507  0.12793  0.30008     W
W      0.35507  0.87207  0.80008     W
W      0.35859   0.0455    0.723     W
W      0.35859   0.9545    0.223     W
W      0.35895  0.41194  0.29547     W
W      0.35895  0.58806  0.79547     W
O       0.3638    0.417    0.229     O
O       0.3638    0.583    0.729     O
W      0.36485  0.42032  0.72854     W
W      0.36485  0.57968  0.22854     W
H        0.365    0.257    0.626     H
H        0.365    0.743    0.126     H
O       0.3687   0.4828   0.8913     O
O       0.3687   0.5172   0.3913     O
O       0.3699   0.3625   0.7602     O
O       0.3699   0.6375   0.2602     O
O       0.3711   0.1459   0.8971     O
O       0.3711   0.8541   0.3971     O
N       0.3749   0.4615    0.582     N
N       0.3749   0.5385    0.082     N
O       0.3759   0.1018   0.7726     O
O       0.3759   0.8982   0.2726     O
H       0.3782   0.3215   0.6596     H
H       0.3782   0.6785   0.1596     H
O       0.3797     0.32    0.904     O
O       0.3797     0.68    0.404     O
Ni     0.38018   0.3383  0.83446    Ni
Ni     0.38018   0.6617  0.33446    Ni
H       0.3824   0.1714   0.1665     H
H       0.3824   0.8286   0.6665     H
N       0.3835   0.1864   0.1956     N
N       0.3835   0.8136   0.6956     N
O        0.384   0.0654   0.3442     O
O        0.384   0.9346   0.8442     O
O       0.3874   0.4706   0.3186     O
O       0.3874   0.5294   0.8186     O
W       0.3877  0.12845     0.84     W
W       0.3877  0.87155     0.34     W
H       0.3895   0.3773   0.4523     H
H       0.3895   0.6227   0.9523     H
H       0.3914   0.4595   0.6193     H
H       0.3914   0.5405   0.1193     H
O       0.3915   0.0111   0.7911     O
O       0.3915   0.9889   0.2911     O
O       0.3959   0.0051   0.4262     O
O       0.3959   0.9949   0.9262     O
H       0.3985   0.4518   0.5715     H
H       0.3985   0.5482   0.0715     H
H       0.3988   0.1665   0.2251     H
H       0.3988   0.8335   0.7251     H
C       0.4017   0.2712   0.2284     C
C       0.4017   0.7288   0.7284     C
W      0.40673  0.00417   0.3638     W
W      0.40673  0.99583   0.8638     W
H       0.4071   0.4106   0.5042     H
H       0.4071   0.5894   0.0042     H
O       0.4084   0.0675   0.8715     O
O       0.4084   0.9325   0.3715     O
W      0.41043  0.46352  0.85685     W
W      0.41043  0.53648  0.35685     W
H       0.4116   0.3003   0.2166     H
H       0.4116   0.6997   0.7166     H
H       0.4132   0.3547   0.5117     H
H       0.4132   0.6453   0.0117     H
O       0.4133   0.4017   0.8787     O
O       0.4133   0.5983   0.3787     O
O       0.4147    0.052   0.7153     O
H       0.4147    0.241   0.1747     H
H       0.4147    0.759   0.6747     H
O       0.4147    0.948   0.2153     O
C       0.4153   0.3815    0.491     C
C       0.4153   0.6185    0.991     C
C       0.4154   0.2313   0.2085     C
C       0.4154   0.7687   0.7085     C
H       0.4209   0.2706   0.2688     H
H       0.4209   0.7294   0.7688     H
Ni     0.42111   0.3739  0.95475    Ni
Ni     0.42111   0.6261  0.45475    Ni
O       0.4229   0.4476   0.7972     O
O       0.4229   0.5524   0.2972     O
O       0.4271    0.278   0.7657     O
O       0.4271    0.722   0.2657     O
O       0.4518   0.3088   0.8538     O
O       0.4518   0.6912   0.3538     O
H       0.4529   0.2233   0.2356     H
H       0.4529   0.7767   0.7356     H
H        0.453    0.047    0.245     H
H        0.453    0.953    0.745     H
H       0.4537   0.4398   0.0264     H
H       0.4537   0.5602   0.5264     H
H       0.4555   0.4447   0.4533     H
H       0.4555   0.5553   0.9533     H
H       0.4583   0.2746   0.6273     H
H       0.4583   0.7254   0.1273     H
H       0.4595   0.0081   0.1681     H
H       0.4595   0.9919   0.6681     H
C       0.4606   0.2877   0.8168     C
C       0.4606   0.7123   0.3168     C
H       0.4622   0.4565   0.9818     H
H       0.4622   0.5435   0.4818     H
C       0.4638   0.3842   0.4989     C
C       0.4638   0.6158   0.9989     C
H        0.464   0.1087   0.1892     H
H        0.464   0.8913   0.6892     H
N       0.4657   0.4312   0.0034     N
N       0.4657   0.5688   0.5034     N
H       0.4678   0.2967   0.6833     H
H       0.4678   0.7033   0.1833     H
H       0.4713   0.1168   0.2789     H
H       0.4713   0.8832   0.7789     H
H       0.4726   0.3996    0.432     H
H       0.4726   0.6004    0.932     H
C       0.4788   0.4166   0.4651     C
C       0.4788   0.5834   0.9651     C
H         0.48    0.404    0.533     H
H         0.48    0.596    0.033     H
C        0.481   0.2741    0.667     C
C        0.481   0.7259    0.167     C
H       0.4811   0.2424   0.6807     H
H       0.4811   0.7576   0.1807     H
H       0.4832    0.002   0.3148     H
H       0.4832    0.998   0.8148     H
C        0.493   0.0496    0.268     C
C        0.493   0.9504    0.768     C
N       0.4936   0.0062   0.1976     N
N       0.4936   0.9938   0.6976     N
H       0.4953   0.3219   0.4942     H
H       0.4953   0.6781   0.9942     H
H       0.4959     0.33     0.95     H
H       0.4959     0.67     0.45     H
N       0.4961   0.3441   0.9792     N
N       0.4961   0.6559   0.4792     N
C        0.499   0.0999    0.221     C
C        0.499   0.9001    0.721     C
Ni         0.5   0.0502     0.75    Ni
Ni         0.5   0.9498     0.25    Ni
C        0.501   0.0999    0.279     C
C        0.501   0.9001    0.779     C
N       0.5039   0.3441   0.5208     N
N       0.5039   0.6559   0.0208     N
H       0.5041     0.33     0.55     H
H       0.5041     0.67     0.05     H
H       0.5047   0.3219   0.0058     H
H       0.5047   0.6781   0.5058     H
N       0.5064   0.0062   0.3024     N
N       0.5064   0.9938   0.8024     N
C        0.507   0.0496    0.232     C
C        0.507   0.9504    0.732     C
H       0.5168    0.002   0.1852     H
H       0.5168    0.998   0.6852     H
H       0.5189   0.2424   0.8193     H
H       0.5189   0.7576   0.3193     H
C        0.519   0.2741    0.833     C
C        0.519   0.7259    0.333     C
H         0.52    0.404    0.967     H
H         0.52    0.596    0.467     H
C       0.5212   0.4166   0.0349     C
C       0.5212   0.5834   0.5349     C
H       0.5274   0.3996    0.068     H
H       0.5274   0.6004    0.568     H
H       0.5287   0.1168   0.2211     H
H       0.5287   0.8832   0.7211     H
H       0.5322   0.2967   0.8167     H
H       0.5322   0.7033   0.3167     H
N       0.5343   0.4312   0.4966     N
N       0.5343   0.5688   0.9966     N
H        0.536   0.1087   0.3108     H
H        0.536   0.8913   0.8108     H
C       0.5362   0.3842   0.0011     C
C       0.5362   0.6158   0.5011     C
H       0.5378   0.4565   0.5182     H
H       0.5378   0.5435   0.0182     H
C       0.5394   0.2877   0.6832     C
C       0.5394   0.7123   0.1832     C
H       0.5405   0.0081   0.3319     H
H       0.5405   0.9919   0.8319     H
H       0.5417   0.2746   0.8727     H
H       0.5417   0.7254   0.3727     H
H       0.5445   0.4447   0.0467     H
H       0.5445   0.5553   0.5467     H
H       0.5463   0.4398   0.4736     H
H       0.5463   0.5602   0.9736     H
H        0.547    0.047    0.255     H
H        0.547    0.953    0.755     H
H       0.5471   0.2233   0.2644     H
H       0.5471   0.7767   0.7644     H
O       0.5482   0.3088   0.6462     O
O       0.5482   0.6912   0.1462     O
O       0.5729    0.278   0.7343     O
O       0.5729    0.722   0.2343     O
O       0.5771   0.4476   0.7028     O
O       0.5771   0.5524   0.2028     O
Ni     0.57889   0.3739  0.54525    Ni
Ni     0.57889   0.6261  0.04525    Ni
H       0.5791   0.2706   0.2312     H
H       0.5791   0.7294   0.7312     H
C       0.5846   0.2313   0.2915     C
C       0.5846   0.7687   0.7915     C
C       0.5847   0.3815    0.009     C
C       0.5847   0.6185    0.509     C
O       0.5853    0.052   0.7847     O
H       0.5853    0.241   0.3253     H
H       0.5853    0.759   0.8253     H
O       0.5853    0.948   0.2847     O
O       0.5867   0.4017   0.6213     O
O       0.5867   0.5983   0.1213     O
H       0.5868   0.3547   0.9883     H
H       0.5868   0.6453   0.4883     H
H       0.5884   0.3003   0.2834     H
H       0.5884   0.6997   0.7834     H
W      0.58957  0.46352  0.64315     W
W      0.58957  0.53648  0.14315     W
O       0.5916   0.0675   0.6285     O
O       0.5916   0.9325   0.1285     O
H       0.5929   0.4106   0.9958     H
H       0.5929   0.5894   0.4958     H
W      0.59327  0.00417   0.1362     W
W      0.59327  0.99583   0.6362     W
C       0.5983   0.2712   0.2716     C
C       0.5983   0.7288   0.7716     C
H       0.6012   0.1665   0.2749     H
H       0.6012   0.8335   0.7749     H
H       0.6015   0.4518   0.9285     H
H       0.6015   0.5482   0.4285     H
O       0.6041   0.0051   0.0738     O
O       0.6041   0.9949   0.5738     O
O       0.6085   0.0111   0.7089     O
O       0.6085   0.9889   0.2089     O
H       0.6086   0.4595   0.8807     H
H       0.6086   0.5405   0.3807     H
H       0.6105   0.3773   0.0477     H
H       0.6105   0.6227   0.5477     H
W       0.6123  0.12845     0.66     W
W       0.6123  0.87155     0.16     W
O       0.6126   0.4706   0.1814     O
O       0.6126   0.5294   0.6814     O
O        0.616   0.0654   0.1558     O
O        0.616   0.9346   0.6558     O
N       0.6165   0.1864   0.3044     N
N       0.6165   0.8136   0.8044     N
H       0.6176   0.1714   0.3335     H
H       0.6176   0.8286   0.8335     H
Ni     0.61982   0.3383  0.66554    Ni
Ni     0.61982   0.6617  0.16554    Ni
O       0.6203     0.32    0.596     O
O       0.6203     0.68    0.096     O
H       0.6218   0.3215   0.8404     H
H       0.6218   0.6785   0.3404     H
O       0.6241   0.1018   0.7274     O
O       0.6241   0.8982   0.2274     O
N       0.6251   0.4615    0.918     N
N       0.6251   0.5385    0.418     N
O       0.6289   0.1459   0.6029     O
O       0.6289   0.8541   0.1029     O
O       0.6301   0.3625   0.7398     O
O       0.6301   0.6375   0.2398     O
O       0.6313   0.4828   0.6087     O
O       0.6313   0.5172   0.1087     O
H        0.635    0.257    0.874     H
H        0.635    0.743    0.374     H
W      0.63515  0.42032  0.77146     W
W      0.63515  0.57968  0.27146     W
O       0.6362    0.417    0.271     O
O       0.6362    0.583    0.771     O
W      0.64105  0.41194  0.20453     W
W      0.64105  0.58806  0.70453     W
W      0.64141   0.0455    0.777     W
W      0.64141   0.9545    0.277     W
W      0.64493  0.12793  0.19992     W
W      0.64493  0.87207  0.69992     W
O        0.645   0.4829   0.5164     O
O        0.645   0.5171   0.0164     O
Ni     0.65023  0.46878  0.44416    Ni
Ni     0.65023  0.53122  0.94416    Ni
O       0.6511   0.0912     0.26     O
O       0.6511   0.9088     0.76     O
H       0.6526   0.2075   0.7968     H
H       0.6526   0.7925   0.2968     H
O       0.6528   0.4891   0.7967     O
O       0.6528   0.5109   0.2967     O
Ni      0.6538  0.29511  0.77681    Ni
Ni      0.6538  0.70489  0.27681    Ni
N       0.6551   0.3118   0.8485     N
N       0.6551   0.6882   0.3485     N
O       0.6575   0.4498   0.3754     O
O       0.6575   0.5502   0.8754     O
N       0.6587   0.2696   0.2948     N
N       0.6587   0.7304   0.7948     N
H       0.6591   0.2983   0.9493     H
H       0.6591   0.7017   0.4493     H
O       0.6593    0.143   0.1412     O
O       0.6593    0.857   0.6412     O
O       0.6596   0.2805   0.7098     O
O       0.6596   0.7195   0.2098     O
O       0.6602   0.4019   0.5771     O
O       0.6602   0.5981   0.0771     O
O       0.6632   0.1788   0.7034     O
O       0.6632   0.8212   0.2034     O
H       0.6654   0.2791    0.268     H
H       0.6654   0.7209    0.768     H
H       0.6659   0.4072   0.9629     H
H       0.6659   0.5928   0.4629     H
O       0.6686    0.068   0.5795     O
O       0.6686    0.932   0.0795     O
O       0.6698   0.0101    0.315     O
O       0.6698   0.9899    0.815     O
C       0.6723   0.2688   0.8877     C
C       0.6723   0.4328   0.9434     C
C       0.6723   0.5672   0.4434     C
C       0.6723   0.7312   0.3877     C
H       0.6725   0.2019    0.879     H
H       0.6725   0.7981    0.379     H
O       0.6739   0.4133   0.1603     O
O       0.6739   0.5867   0.6603     O
H       0.6747   0.2909   0.3229     H
H       0.6747   0.7091   0.8229     H
O       0.6754   0.4415     0.72     O
O       0.6754   0.5585     0.22     O
H       0.6755    0.418   0.9137     H
H       0.6755    0.582   0.4137     H
W      0.67564  0.00341   0.0842     W
W      0.67564  0.99659   0.5842     W
H       0.6785   0.3362   0.8657     H
H       0.6785   0.6638   0.3657     H
N       0.6786   0.2294   0.8165     N
N       0.6786   0.7706   0.3165     N
W      0.67955   0.4643  0.58592     W
W      0.67955   0.5357  0.08592     W
H       0.6833   0.2463   0.9648     H
H       0.6833   0.7537   0.4648     H
W      0.68449  0.45545  0.33254     W
W      0.68449  0.54455  0.83254     W
C        0.685   0.2765   0.9493     C
C        0.685   0.7235   0.4493     C
O       0.6853    0.011   0.6707     O
O       0.6853   0.1761    0.243     O
O       0.6853   0.8239    0.743     O
O       0.6853    0.989   0.1707     O
O       0.6889   0.0648   0.1098     O
O       0.6889   0.9352   0.6098     O
C       0.6896   0.2299   0.8736     C
C       0.6896   0.7701   0.3736     C
O       0.6928   0.0848   0.8357     O
O       0.6928   0.9152   0.3357     O
Ni     0.69318  0.20465  0.32315    Ni
Ni     0.69318  0.79535  0.82315    Ni
O       0.6932   0.3588   0.2426     O
O       0.6932   0.6412   0.7426     O
W      0.69343  0.07842   0.3385     W
W      0.69343  0.92158   0.8385     W
Ni     0.69669  0.33832  0.61667    Ni
Ni     0.69669  0.66168  0.11667    Ni
O       0.6968   0.3084   0.5502     O
O       0.6968   0.6916   0.0502     O
H       0.6974   0.2384   0.4877     H
H       0.6974   0.7616   0.9877     H
W       0.6979  0.12873  0.60803     W
W       0.6979  0.87127  0.10803     W
O          0.7   0.3638   0.6905     O
O          0.7   0.6362   0.1905     O
O       0.7021   0.0994   0.6913     O
O       0.7021   0.9006   0.1913     O
O       0.7077   0.4095   0.8288     O
O       0.7077   0.5905   0.3288     O
H        0.709   0.2203   0.8168     H
H        0.709   0.7797   0.3168     H
H       0.7096   0.0818   0.0035     H
H       0.7096   0.9182   0.5035     H
H       0.7127   0.2864     0.47     H
H       0.7127   0.7136     0.97     H
O       0.7147   0.4701   0.1152     O
O       0.7147   0.5299   0.6152     O
H       0.7155   0.0756   0.9509     H
H       0.7155   0.9244   0.4509     H
O       0.7189   0.4557   0.2711     O
O       0.7189   0.5443   0.7711     O
O        0.719   0.2224   0.4052     O
O        0.719   0.7776   0.9052     O
O       0.7193   0.0443   0.7681     O
O       0.7193   0.9557   0.2681     O
C        0.721   0.4522    0.979     C
C        0.721   0.5478    0.479     C
H       0.7211   0.2897   0.9714     H
H       0.7211   0.7103   0.4714     H
P      0.72111  0.41448  0.71679     P
P      0.72111  0.58552  0.21679     P
P      0.72292  0.04873  0.71584     P
P      0.72292  0.95127  0.21584     P
O       0.7254   0.1359   0.3519     O
O       0.7254   0.8641   0.8519     O
C        0.726   0.2621   0.4989     C
C        0.726   0.7379   0.9989     C
N       0.7271   0.4994   0.4856     N
N       0.7271   0.5006   0.9856     N
W      0.72764  0.12804  0.14688     W
W      0.72764  0.87196  0.64688     W
H       0.7285    0.227   0.8988     H
H       0.7285    0.773   0.3988     H
O       0.7287   0.1788   0.6633     O
O       0.7287   0.8212   0.1633     O
O       0.7293   0.0921   0.2245     O
O       0.7293   0.9079   0.7245     O
H         0.73    0.454     0.95     H
H         0.73    0.546     0.45     H
W      0.73237  0.41135  0.14636     W
W      0.73237  0.58865  0.64636     W
O        0.733   0.2809   0.6643     O
O        0.733   0.3993   0.3615     O
O        0.733   0.6007   0.8615     O
O        0.733   0.7191   0.1643     O
C       0.7345   0.0831     0.99     C
C       0.7345   0.9169     0.49     C
C       0.7353   0.2854   0.5513     C
C       0.7353   0.7146   0.0513     C
O       0.7368   0.4424   0.6787     O
O       0.7368   0.5576   0.1787     O
O       0.7369   0.3238   0.8053     O
O       0.7369   0.6762   0.3053     O
Ni     0.73707  0.29916  0.73519    Ni
Ni     0.73707  0.70084  0.23519    Ni
O       0.7372   0.2706   0.2356     O
O       0.7372   0.7294   0.7356     O
W      0.74136  0.17138  0.73843     W
W      0.74136  0.82862  0.23843     W
O       0.7424   0.1418   0.7978     O
O       0.7424   0.8582   0.2978     O
H       0.7443   0.4917    0.522     H
H       0.7443   0.5083    0.022     H
H       0.7471   0.4886   0.4713     H
H       0.7471   0.5114   0.9713     H
O       0.7493   0.4487   0.5942     O
O       0.7493   0.5513   0.0942     O
H       0.7496   0.1148   0.9956     H
H       0.7496   0.8852   0.4956     H
O       0.7497   0.0106   0.6186     O
O       0.7497   0.9894   0.1186     O
O       0.7503   0.4894   0.3814     O
O       0.7503   0.5106   0.8814     O
H       0.7504   0.3852   0.0044     H
H       0.7504   0.6148   0.5044     H
O       0.7507   0.0513   0.4058     O
O       0.7507   0.9487   0.9058     O
H       0.7529   0.0114   0.5287     H
H       0.7529   0.9886   0.0287     H
H       0.7557   0.0083    0.478     H
H       0.7557   0.9917    0.978     H
O       0.7576   0.3582   0.2022     O
O       0.7576   0.6418   0.7022     O
W      0.75864  0.32862  0.26157     W
W      0.75864  0.67138  0.76157     W
O       0.7628   0.2294   0.7644     O
O       0.7628   0.7706   0.2644     O
Ni     0.76293  0.20084  0.26481    Ni
Ni     0.76293  0.79916  0.76481    Ni
O       0.7631   0.1762   0.1947     O
O       0.7631   0.8238   0.6947     O
O       0.7632   0.0576   0.3213     O
O       0.7632   0.9424   0.8213     O
C       0.7647   0.2146   0.4487     C
C       0.7647   0.7854   0.9487     C
C       0.7655   0.4169     0.01     C
C       0.7655   0.5831     0.51     C
O        0.767   0.1007   0.6385     O
O        0.767   0.2191   0.3357     O
O        0.767   0.7809   0.8357     O
O        0.767   0.8993   0.1385     O
W      0.76763  0.08865  0.85364     W
W      0.76763  0.91135  0.35364     W
H         0.77    0.046     0.05     H
H         0.77    0.954     0.55     H
O       0.7707   0.4079   0.7755     O
O       0.7707   0.5921   0.2755     O
O       0.7713   0.3212   0.3367     O
O       0.7713   0.6788   0.8367     O
H       0.7715    0.273   0.1012     H
H       0.7715    0.727   0.6012     H
W      0.77236  0.37196  0.85312     W
W      0.77236  0.62804  0.35312     W
N       0.7729   0.0006   0.5144     N
N       0.7729   0.9994   0.0144     N
C        0.774   0.2379   0.5011     C
C        0.774   0.7621   0.0011     C
O       0.7746   0.3641   0.6481     O
O       0.7746   0.6359   0.1481     O
P      0.77708  0.45127  0.28416     P
P      0.77708  0.54873  0.78416     P
P      0.77889  0.08552  0.28321     P
P      0.77889  0.91448  0.78321     P
H       0.7789   0.2103   0.0286     H
H       0.7789   0.7897   0.5286     H
C        0.779   0.0478    0.021     C
C        0.779   0.9522    0.521     C
O       0.7807   0.4557   0.2319     O
O       0.7807   0.5443   0.7319     O
O        0.781   0.2776   0.5948     O
O        0.781   0.7224   0.0948     O
O       0.7811   0.0443   0.7289     O
O       0.7811   0.9557   0.2289     O
H       0.7845   0.4244   0.0491     H
H       0.7845   0.5756   0.5491     H
O       0.7853   0.0299   0.8848     O
O       0.7853   0.9701   0.3848     O
H       0.7873   0.2136     0.53     H
H       0.7873   0.7864     0.03     H
H       0.7904   0.4182   0.9965     H
H       0.7904   0.5818   0.4965     H
H        0.791   0.2797   0.1832     H
H        0.791   0.7203   0.6832     H
O       0.7923   0.0905   0.1712     O
O       0.7923   0.9095   0.6712     O
O       0.7979   0.4006   0.3087     O
O       0.7979   0.5994   0.8087     O
O          0.8   0.1362   0.3095     O
O          0.8   0.8638   0.8095     O
W       0.8021  0.37127  0.39197     W
W       0.8021  0.62873  0.89197     W
H       0.8026   0.2616   0.5123     H
H       0.8026   0.7384   0.0123     H
O       0.8032   0.1916   0.4498     O
O       0.8032   0.8084   0.9498     O
Ni     0.80331  0.16168  0.38333    Ni
Ni     0.80331  0.83832  0.88333    Ni
W      0.80657  0.42158   0.6615     W
W      0.80657  0.57842   0.1615     W
O       0.8068   0.1412   0.7574     O
O       0.8068   0.8588   0.2574     O
Ni     0.80682  0.29535  0.67685    Ni
Ni     0.80682  0.70465  0.17685    Ni
O       0.8072   0.4152   0.1643     O
O       0.8072   0.5848   0.6643     O
C       0.8104   0.2701   0.1264     C
C       0.8104   0.7299   0.6264     C
O       0.8111   0.4352   0.8902     O
O       0.8111   0.5648   0.3902     O
O       0.8147   0.3239    0.757     O
O       0.8147    0.489   0.3293     O
O       0.8147    0.511   0.8293     O
O       0.8147   0.6761    0.257     O
C        0.815   0.2235   0.0507     C
C        0.815   0.7765   0.5507     C
W      0.81551  0.04455  0.66746     W
W      0.81551  0.95545  0.16746     W
H       0.8167   0.2537   0.0352     H
H       0.8167   0.7463   0.5352     H
W      0.82045   0.0357  0.41408     W
W      0.82045   0.9643  0.91408     W
N       0.8214   0.2706   0.1835     N
N       0.8214   0.7294   0.6835     N
H       0.8215   0.1638   0.1343     H
H       0.8215   0.8362   0.6343     H
W      0.82436  0.49659   0.9158     W
W      0.82436  0.50341   0.4158     W
H       0.8245    0.082   0.0863     H
H       0.8245    0.918   0.5863     H
O       0.8246   0.0585     0.28     O
O       0.8246   0.9415     0.78     O
H       0.8253   0.2091   0.6771     H
H       0.8253   0.7909   0.1771     H
O       0.8261   0.0867   0.8397     O
O       0.8261   0.9133   0.3397     O
H       0.8275   0.2981    0.121     H
H       0.8275   0.7019    0.621     H
C       0.8277   0.0672   0.0566     C
C       0.8277   0.2312   0.1123     C
C       0.8277   0.7688   0.6123     C
C       0.8277   0.9328   0.5566     C
O       0.8302   0.4899    0.685     O
O       0.8302   0.5101    0.185     O
O       0.8314    0.432   0.4205     O
O       0.8314    0.568   0.9205     O
H       0.8341   0.0928   0.0371     H
H       0.8341   0.9072   0.5371     H
H       0.8346   0.2209    0.732     H
H       0.8346   0.7791    0.232     H
O       0.8368   0.3212   0.2966     O
O       0.8368   0.6788   0.7966     O
O       0.8398   0.0981   0.4229     O
O       0.8398   0.9019   0.9229     O
O       0.8404   0.2195   0.2902     O
O       0.8404   0.7805   0.7902     O
O       0.8407    0.357   0.8588     O
O       0.8407    0.643   0.3588     O
H       0.8409   0.2017   0.0507     H
H       0.8409   0.7983   0.5507     H
N       0.8413   0.2304   0.7052     N
N       0.8413   0.7696   0.2052     N
O       0.8425   0.0502   0.6246     O
O       0.8425   0.9498   0.1246     O
N       0.8449   0.1882   0.1515     N
N       0.8449   0.8118   0.6515     N
Ni      0.8462  0.20489  0.22319    Ni
Ni      0.8462  0.79511  0.72319    Ni
O       0.8472   0.0109   0.2033     O
O       0.8472   0.9891   0.7033     O
H       0.8474   0.2925   0.2032     H
H       0.8474   0.7075   0.7032     H
O       0.8489   0.4088     0.74     O
O       0.8489   0.5912     0.24     O
Ni     0.84977  0.03122  0.55584    Ni
Ni     0.84977  0.96878  0.05584    Ni
O        0.855   0.0171   0.4836     O
O        0.855   0.9829   0.9836     O
W      0.85507  0.37207  0.80008     W
W      0.85507  0.62793  0.30008     W
W      0.85859   0.4545    0.223     W
W      0.85859   0.5455    0.723     W
W      0.85895  0.08806  0.79547     W
W      0.85895  0.91194  0.29547     W
O       0.8638    0.083    0.729     O
O       0.8638    0.917    0.229     O
W      0.86485  0.07968  0.22854     W
W      0.86485  0.92032  0.72854     W
H        0.865    0.243    0.126     H
H        0.865    0.757    0.626     H
O       0.8687   0.0172   0.3913     O
O       0.8687   0.9828   0.8913     O
O       0.8699   0.1375   0.2602     O
O       0.8699   0.8625   0.7602     O
O       0.8711   0.3541   0.3971     O
O       0.8711   0.6459   0.8971     O
N       0.8749   0.0385    0.082     N
N       0.8749   0.9615    0.582     N
O       0.8759   0.3982   0.2726     O
O       0.8759   0.6018   0.7726     O
H       0.8782   0.1785   0.1596     H
H       0.8782   0.8215   0.6596     H
O       0.8797     0.18    0.404     O
O       0.8797     0.82    0.904     O
Ni     0.88018   0.1617  0.33446    Ni
Ni     0.88018   0.8383  0.83446    Ni
H       0.8824   0.3286   0.6665     H
H       0.8824   0.6714   0.1665     H
N       0.8835   0.3136   0.6956     N
N       0.8835   0.6864   0.1956     N
O        0.884   0.4346   0.8442     O
O        0.884   0.5654   0.3442     O
O       0.8874   0.0294   0.8186     O
O       0.8874   0.9706   0.3186     O
W       0.8877  0.37155     0.34     W
W       0.8877  0.62845     0.84     W
H       0.8895   0.1227   0.9523     H
H       0.8895   0.8773   0.4523     H
H       0.8914   0.0405   0.1193     H
H       0.8914   0.9595   0.6193     H
O       0.8915   0.4889   0.2911     O
O       0.8915   0.5111   0.7911     O
O       0.8959   0.4949   0.9262     O
O       0.8959   0.5051   0.4262     O
H       0.8985   0.0482   0.0715     H
H       0.8985   0.9518   0.5715     H
H       0.8988   0.3335   0.7251     H
H       0.8988   0.6665   0.2251     H
C       0.9017   0.2288   0.7284     C
C       0.9017   0.7712   0.2284     C
W      0.90673  0.49583   0.8638     W
W      0.90673  0.50417   0.3638     W
H       0.9071   0.0894   0.0042     H
H       0.9071   0.9106   0.5042     H
O       0.9084   0.4325   0.3715     O
O       0.9084   0.5675   0.8715     O
W      0.91043  0.03648  0.35685     W
W      0.91043  0.96352  0.85685     W
H       0.9116   0.1997   0.7166     H
H       0.9116   0.8003   0.2166     H
H       0.9132   0.1453   0.0117     H
H       0.9132   0.8547   0.5117     H
O       0.9133   0.0983   0.3787     O
O       0.9133   0.9017   0.8787     O
H       0.9147    0.259   0.6747     H
O       0.9147    0.448   0.2153     O
O       0.9147    0.552   0.7153     O
H       0.9147    0.741   0.1747     H
C       0.9153   0.1185    0.991     C
C       0.9153   0.8815    0.491     C
C       0.9154   0.2687   0.7085     C
C       0.9154   0.7313   0.2085     C
H       0.9209   0.2294   0.7688     H
H       0.9209   0.7706   0.2688     H
Ni     0.92111   0.1261  0.45475    Ni
Ni     0.92111   0.8739  0.95475    Ni
O       0.9229   0.0524   0.2972     O
O       0.9229   0.9476   0.7972     O
O       0.9271    0.222   0.2657     O
O       0.9271    0.778   0.7657     O
O       0.9518   0.1912   0.3538     O
O       0.9518   0.8088   0.8538     O
H       0.9529   0.2767   0.7356     H
H       0.9529   0.7233   0.2356     H
H        0.953    0.453    0.745     H
H        0.953    0.547    0.245     H
H       0.9537   0.0602   0.5264     H
H       0.9537   0.9398   0.0264     H
H       0.9555   0.0553   0.9533     H
H       0.9555   0.9447   0.4533     H
H       0.9583   0.2254   0.1273     H
H       0.9583   0.7746   0.6273     H
H       0.9595   0.4919   0.6681     H
H       0.9595   0.5081   0.1681     H
C       0.9606   0.2123   0.3168     C
C       0.9606   0.7877   0.8168     C
H       0.9622   0.0435   0.4818     H
H       0.9622   0.9565   0.9818     H
C       0.9638   0.1158   0.9989     C
C       0.9638   0.8842   0.4989     C
H        0.964   0.3913   0.6892     H
H        0.964   0.6087   0.1892     H
N       0.9657   0.0688   0.5034     N
N       0.9657   0.9312   0.0034     N
H       0.9678   0.2033   0.1833     H
H       0.9678   0.7967   0.6833     H
H       0.9713   0.3832   0.7789     H
H       0.9713   0.6168   0.2789     H
H       0.9726   0.1004    0.932     H
H       0.9726   0.8996    0.432     H
C       0.9788   0.0834   0.9651     C
C       0.9788   0.9166   0.4651     C
H         0.98    0.096    0.033     H
H         0.98    0.904    0.533     H
C        0.981   0.2259    0.167     C
C        0.981   0.7741    0.667     C
H       0.9811   0.2576   0.1807     H
H       0.9811   0.7424   0.6807     H
H       0.9832    0.498   0.8148     H
H       0.9832    0.502   0.3148     H
C        0.993   0.4504    0.768     C
C        0.993   0.5496    0.268     C
N       0.9936   0.4938   0.6976     N
N       0.9936   0.5062   0.1976     N
H       0.9953   0.1781   0.9942     H
H       0.9953   0.8219   0.4942     H
H       0.9959     0.17     0.45     H
H       0.9959     0.83     0.95     H
N       0.9961   0.1559   0.4792     N
N       0.9961   0.8441   0.9792     N
C        0.999   0.4001    0.721     C
C        0.999   0.5999    0.221     C
Ni         1.0   0.5502     0.75    Ni
