data_I
_chemical_name_common  '/home/zhangsd/repos/MofS-CGCNN/ML/data/TSD/clean_cifs/DOYBEA_clean'
_cell_length_a  6.84190
_cell_length_b 12.08770
_cell_length_c 14.20700
_cell_angle_alpha 90.00000
_cell_angle_beta  122.54700
_cell_angle_gamma 90.00000
_space_group_name_H-M_alt      'P 1'


loop_
_space_group_symop_operation_xyz
  'x, y, z' 

loop_
_atom_site_label
_atom_site_fract_x
_atom_site_fract_y
_atom_site_fract_z
_atom_site_type_symbol
Al         0.0      0.0      0.5    Al
Al         0.0      0.5      0.0    Al
H      0.07705  0.02558  0.36934     H
H      0.07705  0.47442  0.86934     H
O      0.18012  0.51731  0.94015     O
O      0.18012  0.98269  0.44015     O
O      0.21724  0.61334  0.10058     O
O      0.21724  0.88666  0.60058     O
O      0.24705  0.09985  0.61591     O
O      0.24705  0.40015  0.11591     O
H      0.27032  0.73217  0.25694     H
H      0.27032  0.76783  0.75694     H
H      0.27772  0.24213  0.75162     H
H      0.27772  0.25787  0.25162     H
C      0.42131  0.64099   0.1396     C
C      0.42131  0.85901   0.6396     C
C      0.42977  0.15301  0.63382     C
C      0.42977  0.34699  0.13382     C
C      0.44556  0.73504  0.77797     C
C      0.44556  0.76496  0.27797     C
O       0.4506   0.0933  0.37967     O
O       0.4506   0.4067  0.87967     O
C      0.45578  0.22792  0.27381     C
C      0.45578  0.27208  0.77381     C
O      0.46156  0.63123  0.91562     O
O      0.46156  0.86877  0.41562     O
Al         0.5      0.0      0.5    Al
Al         0.5      0.5      0.0    Al
O      0.53844  0.13123  0.58438     O
O      0.53844  0.36877  0.08438     O
C      0.54422  0.72792  0.22619     C
C      0.54422  0.77208  0.72619     C
O       0.5494   0.5933  0.12033     O
O       0.5494   0.9067  0.62033     O
C      0.55444  0.23504  0.72203     C
C      0.55444  0.26496  0.22203     C
C      0.57023  0.65301  0.86618     C
C      0.57023  0.84699  0.36618     C
C      0.57869  0.14099   0.3604     C
C      0.57869  0.35901   0.8604     C
H      0.72228  0.74213  0.74838     H
H      0.72228  0.75787  0.24838     H
H      0.72968  0.23217  0.24306     H
H      0.72968  0.26783  0.74306     H
O      0.75295  0.59985  0.88409     O
O      0.75295  0.90015  0.38409     O
O      0.78276  0.11334  0.39942     O
O      0.78276  0.38666  0.89942     O
O      0.81988  0.01731  0.55985     O
O      0.81988  0.48269  0.05985     O
H      0.92295  0.52558  0.13066     H
H      0.92295  0.97442  0.63066     H
