data_I
_chemical_name_common  '/home/zhangsd/repos/MofS-CGCNN/ML/data/TSD/clean_cifs/DOZCEC_clean'
_cell_length_a 20.31570
_cell_length_b 20.31570
_cell_length_c 19.91800
_cell_angle_alpha 90.00000
_cell_angle_beta  90.00000
_cell_angle_gamma 90.00000
_space_group_name_H-M_alt      'P 1'


loop_
_space_group_symop_operation_xyz
  'x, y, z' 

loop_
_atom_site_label
_atom_site_fract_x
_atom_site_fract_y
_atom_site_fract_z
_atom_site_type_symbol
Cl         0.0      0.0      0.0    Cl
C          0.0   0.2001   0.1576     C
C          0.0   0.2001   0.8424     C
C          0.0   0.2434   0.2171     C
C          0.0   0.2434   0.7829     C
H          0.0   0.2559   0.4398     H
H          0.0   0.2559   0.5602     H
C          0.0    0.293   0.4672     C
C          0.0    0.293   0.5328     C
C          0.0   0.3304   0.3247     C
C          0.0   0.3304   0.6753     C
C          0.0   0.3602   0.4447     C
C          0.0   0.3602   0.5553     C
C          0.0   0.3797   0.3795     C
C          0.0   0.3797   0.6205     C
N          0.0   0.4016      0.5     N
H          0.0   0.4406   0.2528     H
H          0.0   0.4406   0.7472     H
C          0.0   0.4474   0.3582     C
C          0.0   0.4474   0.6418     C
C          0.0   0.4678   0.2904     C
C          0.0   0.4678   0.7096     C
N          0.0      0.5   0.4002     N
Mn         0.0      0.5      0.5    Mn
N          0.0      0.5   0.5998     N
C          0.0   0.5322   0.2904     C
C          0.0   0.5322   0.7096     C
C          0.0   0.5526   0.3582     C
C          0.0   0.5526   0.6418     C
H          0.0   0.5594   0.2528     H
H          0.0   0.5594   0.7472     H
N          0.0   0.5984      0.5     N
C          0.0   0.6203   0.3795     C
C          0.0   0.6203   0.6205     C
C          0.0   0.6398   0.4447     C
C          0.0   0.6398   0.5553     C
C          0.0   0.6696   0.3247     C
C          0.0   0.6696   0.6753     C
C          0.0    0.707   0.4672     C
C          0.0    0.707   0.5328     C
H          0.0   0.7441   0.4398     H
H          0.0   0.7441   0.5602     H
C          0.0   0.7566   0.2171     C
C          0.0   0.7566   0.7829     C
C          0.0   0.7999   0.1576     C
C          0.0   0.7999   0.8424     C
N      0.03192  0.14304  0.07726     N
N      0.03192  0.14304  0.92274     N
N      0.03192  0.85696  0.07726     N
N      0.03192  0.85696  0.92274     N
N      0.05469  0.17932  0.12765     N
N      0.05469  0.17932  0.87235     N
N      0.05469  0.82068  0.12765     N
N      0.05469  0.82068  0.87235     N
C       0.0571   0.2647   0.2445     C
C       0.0571   0.2647   0.7555     C
C       0.0571   0.7353   0.2445     C
C       0.0571   0.7353   0.7555     C
C       0.0588   0.3087   0.2992     C
C       0.0588   0.3087   0.7008     C
C       0.0588   0.6913   0.2992     C
C       0.0588   0.6913   0.7008     C
Mn     0.09427  0.09427      0.0    Mn
Mn     0.09427  0.90573      0.0    Mn
H       0.0967   0.2497   0.2266     H
H       0.0967   0.2497   0.7734     H
H       0.0967   0.7503   0.2266     H
H       0.0967   0.7503   0.7734     H
H       0.0985   0.3226   0.3175     H
H       0.0985   0.3226   0.6825     H
H       0.0985   0.6774   0.3175     H
H       0.0985   0.6774   0.6825     H
Cl      0.1258      0.5      0.5    Cl
N      0.14304  0.03192  0.07726     N
N      0.14304  0.03192  0.92274     N
N      0.14304  0.96808  0.07726     N
N      0.14304  0.96808  0.92274     N
N      0.17932  0.05469  0.12765     N
N      0.17932  0.05469  0.87235     N
N      0.17932  0.94531  0.12765     N
N      0.17932  0.94531  0.87235     N
C       0.2001      0.0   0.1576     C
C       0.2001      0.0   0.8424     C
C       0.2434      0.0   0.2171     C
C       0.2434      0.0   0.7829     C
H       0.2497   0.0967   0.2266     H
H       0.2497   0.0967   0.7734     H
H       0.2497   0.9033   0.2266     H
H       0.2497   0.9033   0.7734     H
H       0.2559      0.0   0.4398     H
H       0.2559      0.0   0.5602     H
C       0.2647   0.0571   0.2445     C
C       0.2647   0.0571   0.7555     C
C       0.2647   0.9429   0.2445     C
C       0.2647   0.9429   0.7555     C
C        0.293      0.0   0.4672     C
C        0.293      0.0   0.5328     C
C       0.3087   0.0588   0.2992     C
C       0.3087   0.0588   0.7008     C
C       0.3087   0.9412   0.2992     C
C       0.3087   0.9412   0.7008     C
H       0.3226   0.0985   0.3175     H
H       0.3226   0.0985   0.6825     H
H       0.3226   0.9015   0.3175     H
H       0.3226   0.9015   0.6825     H
C       0.3304      0.0   0.3247     C
C       0.3304      0.0   0.6753     C
C       0.3602      0.0   0.4447     C
C       0.3602      0.0   0.5553     C
C       0.3797      0.0   0.3795     C
C       0.3797      0.0   0.6205     C
N       0.4016      0.0      0.5     N
H       0.4406      0.0   0.2528     H
H       0.4406      0.0   0.7472     H
C       0.4474      0.0   0.3582     C
C       0.4474      0.0   0.6418     C
C       0.4678      0.0   0.2904     C
C       0.4678      0.0   0.7096     C
N          0.5      0.0   0.4002     N
Mn         0.5      0.0      0.5    Mn
N          0.5      0.0   0.5998     N
Cl         0.5   0.1258      0.5    Cl
Cl         0.5   0.8742      0.5    Cl
C       0.5322      0.0   0.2904     C
C       0.5322      0.0   0.7096     C
C       0.5526      0.0   0.3582     C
C       0.5526      0.0   0.6418     C
H       0.5594      0.0   0.2528     H
H       0.5594      0.0   0.7472     H
N       0.5984      0.0      0.5     N
C       0.6203      0.0   0.3795     C
C       0.6203      0.0   0.6205     C
C       0.6398      0.0   0.4447     C
C       0.6398      0.0   0.5553     C
C       0.6696      0.0   0.3247     C
C       0.6696      0.0   0.6753     C
H       0.6774   0.0985   0.3175     H
H       0.6774   0.0985   0.6825     H
H       0.6774   0.9015   0.3175     H
H       0.6774   0.9015   0.6825     H
C       0.6913   0.0588   0.2992     C
C       0.6913   0.0588   0.7008     C
C       0.6913   0.9412   0.2992     C
C       0.6913   0.9412   0.7008     C
C        0.707      0.0   0.4672     C
C        0.707      0.0   0.5328     C
C       0.7353   0.0571   0.2445     C
C       0.7353   0.0571   0.7555     C
C       0.7353   0.9429   0.2445     C
C       0.7353   0.9429   0.7555     C
H       0.7441      0.0   0.4398     H
H       0.7441      0.0   0.5602     H
H       0.7503   0.0967   0.2266     H
H       0.7503   0.0967   0.7734     H
H       0.7503   0.9033   0.2266     H
H       0.7503   0.9033   0.7734     H
C       0.7566      0.0   0.2171     C
C       0.7566      0.0   0.7829     C
C       0.7999      0.0   0.1576     C
C       0.7999      0.0   0.8424     C
N      0.82068  0.05469  0.12765     N
N      0.82068  0.05469  0.87235     N
N      0.82068  0.94531  0.12765     N
N      0.82068  0.94531  0.87235     N
N      0.85696  0.03192  0.07726     N
N      0.85696  0.03192  0.92274     N
N      0.85696  0.96808  0.07726     N
N      0.85696  0.96808  0.92274     N
Cl      0.8742      0.5      0.5    Cl
H       0.9015   0.3226   0.3175     H
H       0.9015   0.3226   0.6825     H
H       0.9015   0.6774   0.3175     H
H       0.9015   0.6774   0.6825     H
H       0.9033   0.2497   0.2266     H
H       0.9033   0.2497   0.7734     H
H       0.9033   0.7503   0.2266     H
H       0.9033   0.7503   0.7734     H
Mn     0.90573  0.09427      0.0    Mn
Mn     0.90573  0.90573      0.0    Mn
C       0.9412   0.3087   0.2992     C
C       0.9412   0.3087   0.7008     C
C       0.9412   0.6913   0.2992     C
C       0.9412   0.6913   0.7008     C
C       0.9429   0.2647   0.2445     C
C       0.9429   0.2647   0.7555     C
C       0.9429   0.7353   0.2445     C
C       0.9429   0.7353   0.7555     C
N      0.94531  0.17932  0.12765     N
N      0.94531  0.17932  0.87235     N
N      0.94531  0.82068  0.12765     N
N      0.94531  0.82068  0.87235     N
N      0.96808  0.14304  0.07726     N
N      0.96808  0.14304  0.92274     N
N      0.96808  0.85696  0.07726     N
N      0.96808  0.85696  0.92274     N
