data_I
_chemical_name_common  '/home/zhangsd/repos/MofS-CGCNN/ML/data/TSD/clean_cifs/DUGBAJ_clean'
_cell_length_a 15.19900
_cell_length_b 15.19900
_cell_length_c 15.58900
_cell_angle_alpha 90.00000
_cell_angle_beta  90.00000
_cell_angle_gamma 120.00000
_space_group_name_H-M_alt      'P 1'


loop_
_space_group_symop_operation_xyz
  'x, y, z' 

loop_
_atom_site_label
_atom_site_fract_x
_atom_site_fract_y
_atom_site_fract_z
_atom_site_type_symbol
Fe         0.0      0.5      0.0    Fe
Fe         0.0      0.5      0.5    Fe
H       0.0555   0.2879   0.3447     H
H       0.0555   0.2879   0.6553     H
H       0.0555   0.7676   0.1553     H
H       0.0555   0.7676   0.8447     H
O       0.0631   0.4479    0.408     O
O       0.0631   0.4479    0.592     O
O       0.0631   0.6152    0.092     O
O       0.0631   0.6152    0.908     O
H      0.09935   0.1987     0.25     H
H      0.09935   0.1987     0.75     H
H      0.09935  0.90065     0.25     H
H      0.09935  0.90065     0.75     H
C       0.1085   0.3222    0.306     C
C       0.1085   0.3222    0.694     C
C       0.1085   0.7863    0.194     C
C       0.1085   0.7863    0.806     C
C       0.1347   0.2694     0.25     C
C       0.1347   0.2694     0.75     C
C       0.1347   0.8653     0.25     C
C       0.1347   0.8653     0.75     C
C       0.1389   0.4918   0.3612     C
C       0.1389   0.4918   0.6388     C
C       0.1389   0.6471   0.1388     C
C       0.1389   0.6471   0.8612     C
C       0.1617   0.4264   0.3039     C
C       0.1617   0.4264   0.6961     C
C       0.1617   0.7353   0.1961     C
C       0.1617   0.7353   0.8039     C
H       0.1987  0.09935     0.25     H
H       0.1987  0.09935     0.75     H
O       0.1989   0.5864  0.35652     O
O       0.1989   0.5864  0.64348     O
O       0.1989   0.6125  0.14348     O
O       0.1989   0.6125  0.85652     O
C       0.2137   0.3222    0.194     C
C       0.2137   0.3222    0.806     C
C       0.2137   0.8915    0.306     C
C       0.2137   0.8915    0.694     C
H       0.2324   0.2879   0.1553     H
H       0.2324   0.2879   0.8447     H
H       0.2324   0.9445   0.3447     H
H       0.2324   0.9445   0.6553     H
N       0.2389   0.4778     0.25     N
N       0.2389   0.4778     0.75     N
N       0.2389   0.7611     0.25     N
N       0.2389   0.7611     0.75     N
C       0.2647   0.4264   0.1961     C
C       0.2647   0.4264   0.8039     C
C       0.2647   0.8383   0.3039     C
C       0.2647   0.8383   0.6961     C
C       0.2694   0.1347     0.25     C
C       0.2694   0.1347     0.75     C
H       0.2879   0.0555   0.1553     H
H       0.2879   0.0555   0.8447     H
H       0.2879   0.2324   0.3447     H
H       0.2879   0.2324   0.6553     H
C       0.3222   0.1085    0.194     C
C       0.3222   0.1085    0.806     C
C       0.3222   0.2137    0.306     C
C       0.3222   0.2137    0.694     C
Tb     0.33333  0.66666     0.25    Tb
Tb     0.33333  0.66666     0.75    Tb
C       0.3529   0.4918   0.1388     C
C       0.3529   0.4918   0.8612     C
C       0.3529   0.8611   0.3612     C
C       0.3529   0.8611   0.6388     C
O       0.3848   0.4479    0.092     O
O       0.3848   0.4479    0.908     O
O       0.3848   0.9369    0.408     O
O       0.3848   0.9369    0.592     O
O       0.3875   0.5864  0.14348     O
O       0.3875   0.5864  0.85652     O
O       0.3875   0.8011  0.35652     O
O       0.3875   0.8011  0.64348     O
O       0.4136   0.6125  0.35652     O
O       0.4136   0.6125  0.64348     O
O       0.4136   0.8011  0.14348     O
O       0.4136   0.8011  0.85652     O
C       0.4264   0.1617   0.1961     C
C       0.4264   0.1617   0.8039     C
C       0.4264   0.2647   0.3039     C
C       0.4264   0.2647   0.6961     C
O       0.4479   0.0631    0.092     O
O       0.4479   0.0631    0.908     O
O       0.4479   0.3848    0.408     O
O       0.4479   0.3848    0.592     O
N       0.4778   0.2389     0.25     N
N       0.4778   0.2389     0.75     N
C       0.4918   0.1389   0.1388     C
C       0.4918   0.1389   0.8612     C
C       0.4918   0.3529   0.3612     C
C       0.4918   0.3529   0.6388     C
Fe         0.5      0.0      0.0    Fe
Fe         0.5      0.0      0.5    Fe
Fe         0.5      0.5      0.0    Fe
Fe         0.5      0.5      0.5    Fe
C       0.5082   0.6471   0.3612     C
C       0.5082   0.6471   0.6388     C
C       0.5082   0.8611   0.1388     C
C       0.5082   0.8611   0.8612     C
N       0.5222   0.7611     0.25     N
N       0.5222   0.7611     0.75     N
O       0.5521   0.6152    0.408     O
O       0.5521   0.6152    0.592     O
O       0.5521   0.9369    0.092     O
O       0.5521   0.9369    0.908     O
C       0.5736   0.7353   0.3039     C
C       0.5736   0.7353   0.6961     C
C       0.5736   0.8383   0.1961     C
C       0.5736   0.8383   0.8039     C
O       0.5864   0.1989  0.14348     O
O       0.5864   0.1989  0.85652     O
O       0.5864   0.3875  0.35652     O
O       0.5864   0.3875  0.64348     O
O       0.6125   0.1989  0.35652     O
O       0.6125   0.1989  0.64348     O
O       0.6125   0.4136  0.14348     O
O       0.6125   0.4136  0.85652     O
O       0.6152   0.0631    0.408     O
O       0.6152   0.0631    0.592     O
O       0.6152   0.5521    0.092     O
O       0.6152   0.5521    0.908     O
C       0.6471   0.1389   0.3612     C
C       0.6471   0.1389   0.6388     C
C       0.6471   0.5082   0.1388     C
C       0.6471   0.5082   0.8612     C
Tb     0.66667  0.33334     0.25    Tb
Tb     0.66667  0.33334     0.75    Tb
C       0.6778   0.7863    0.306     C
C       0.6778   0.7863    0.694     C
C       0.6778   0.8915    0.194     C
C       0.6778   0.8915    0.806     C
H       0.7121   0.7676   0.3447     H
H       0.7121   0.7676   0.6553     H
H       0.7121   0.9445   0.1553     H
H       0.7121   0.9445   0.8447     H
C       0.7306   0.8653     0.25     C
C       0.7306   0.8653     0.75     C
C       0.7353   0.1617   0.3039     C
C       0.7353   0.1617   0.6961     C
C       0.7353   0.5736   0.1961     C
C       0.7353   0.5736   0.8039     C
N       0.7611   0.2389     0.25     N
N       0.7611   0.2389     0.75     N
N       0.7611   0.5222     0.25     N
N       0.7611   0.5222     0.75     N
H       0.7676   0.0555   0.3447     H
H       0.7676   0.0555   0.6553     H
H       0.7676   0.7121   0.1553     H
H       0.7676   0.7121   0.8447     H
C       0.7863   0.1085    0.306     C
C       0.7863   0.1085    0.694     C
C       0.7863   0.6778    0.194     C
C       0.7863   0.6778    0.806     C
O       0.8011   0.3875  0.14348     O
O       0.8011   0.3875  0.85652     O
O       0.8011   0.4136  0.35652     O
O       0.8011   0.4136  0.64348     O
H       0.8013  0.90065     0.25     H
H       0.8013  0.90065     0.75     H
C       0.8383   0.2647   0.1961     C
C       0.8383   0.2647   0.8039     C
C       0.8383   0.5736   0.3039     C
C       0.8383   0.5736   0.6961     C
C       0.8611   0.3529   0.1388     C
C       0.8611   0.3529   0.8612     C
C       0.8611   0.5082   0.3612     C
C       0.8611   0.5082   0.6388     C
C       0.8653   0.1347     0.25     C
C       0.8653   0.1347     0.75     C
C       0.8653   0.7306     0.25     C
C       0.8653   0.7306     0.75     C
C       0.8915   0.2137    0.194     C
C       0.8915   0.2137    0.806     C
C       0.8915   0.6778    0.306     C
C       0.8915   0.6778    0.694     C
H      0.90065  0.09935     0.25     H
H      0.90065  0.09935     0.75     H
H      0.90065   0.8013     0.25     H
H      0.90065   0.8013     0.75     H
O       0.9369   0.3848    0.092     O
O       0.9369   0.3848    0.908     O
O       0.9369   0.5521    0.408     O
O       0.9369   0.5521    0.592     O
H       0.9445   0.2324   0.1553     H
H       0.9445   0.2324   0.8447     H
H       0.9445   0.7121   0.3447     H
H       0.9445   0.7121   0.6553     H
