data_I
_chemical_name_common  '/home/zhangsd/repos/MofS-CGCNN/ML/data/TSD/clean_cifs/DUXMAL_clean'
_cell_length_a 10.23190
_cell_length_b 18.73300
_cell_length_c 20.28300
_cell_angle_alpha 90.00000
_cell_angle_beta  90.00000
_cell_angle_gamma 90.00000
_space_group_name_H-M_alt      'P 1'


loop_
_space_group_symop_operation_xyz
  'x, y, z' 

loop_
_atom_site_label
_atom_site_fract_x
_atom_site_fract_y
_atom_site_fract_z
_atom_site_type_symbol
O      0.01202  0.10354  0.07422     O
O      0.01202  0.89646  0.42578     O
H       0.0243   0.0737   0.4096     H
H       0.0243   0.9263   0.0904     H
C       0.0265   0.3833  0.60719     C
C       0.0265   0.6167  0.89281     C
C       0.0305  0.14306  0.83923     C
C       0.0305  0.85694  0.66077     C
H       0.0339   0.3019   0.1659     H
H       0.0339   0.6981   0.3341     H
C       0.0408  0.32329  0.64632     C
C       0.0408  0.67671  0.85368     C
H       0.0409   0.1748   0.3451     H
H       0.0409   0.8252   0.1549     H
C       0.0414  0.08268  0.87757     C
C       0.0414  0.91732  0.62243     C
O       0.0469  0.27427  0.77872     O
O       0.0469  0.72573  0.72128     O
C       0.1075  0.41278   0.0949     C
C       0.1075  0.58722   0.4051     C
C       0.1128  0.22615  0.75546     C
C       0.1128  0.77385  0.74454     C
O       0.1186  0.46667  0.05867     O
O       0.1186  0.53333  0.44133     O
C       0.1228  0.07842   0.0603     C
C       0.1228  0.92158   0.4397     C
C       0.1247  0.15691   0.7921     C
C       0.1247  0.84309   0.7079     C
H        0.126   0.4547   0.5507     H
H        0.126   0.5453   0.9493     H
C       0.1358  0.41408  0.57823     C
C       0.1358  0.58592  0.92177     C
N       0.1389  0.03653  0.87204     N
N       0.1389  0.96347  0.62796     N
O      0.13957  0.02433  0.02535     O
O      0.13957  0.97567  0.47465     O
H       0.1424   0.1939   0.1362     H
H       0.1424   0.8061   0.3638     H
Mn     0.16315  0.05031  0.55107    Mn
Mn     0.16315  0.94969  0.94893    Mn
C       0.1639  0.29414  0.65706     C
C       0.1639  0.70586  0.84294     C
N       0.1768  0.23171  0.69679     N
N       0.1768  0.76829  0.80321     N
H       0.2032   0.4841   0.3198     H
H       0.2032   0.5159   0.1802     H
O      0.20638  0.38186  0.11916     O
O      0.20638  0.61814  0.38084     O
H       0.2095   0.3842   0.2525     H
H       0.2095   0.6158   0.2475     H
C       0.2246   0.1086  0.78482     C
C       0.2246   0.8914  0.71518     C
H       0.2266   0.1964   0.6832     H
H       0.2266   0.8036   0.8168     H
C       0.2268  0.17437  0.12871     C
C       0.2268  0.82563  0.37129     C
C       0.2278   0.0493  0.82542     C
C       0.2278   0.9507  0.67458     C
C       0.2413  0.11409  0.08928     C
C       0.2413  0.88591  0.41072     C
C       0.2587  0.38591  0.58928     C
C       0.2587  0.61409  0.91072     C
C       0.2722   0.4507  0.32542     C
C       0.2722   0.5493  0.17458     C
C       0.2732  0.32563  0.62871     C
C       0.2732  0.67437  0.87129     C
H       0.2734   0.3036   0.1832     H
H       0.2734   0.6964   0.3168     H
C       0.2754   0.3914  0.28482     C
C       0.2754   0.6086  0.21518     C
H       0.2905   0.1158   0.7525     H
H       0.2905   0.8842   0.7475     H
O      0.29362  0.11814  0.61916     O
O      0.29362  0.88186  0.88084     O
H       0.2968   0.0159   0.8198     H
H       0.2968   0.9841   0.6802     H
N       0.3232  0.26829  0.19679     N
N       0.3232  0.73171  0.30321     N
C       0.3361  0.20586  0.15706     C
C       0.3361  0.79414  0.34294     C
Mn     0.33685  0.44969  0.05107    Mn
Mn     0.33685  0.55031  0.44893    Mn
H       0.3576   0.3061   0.6362     H
H       0.3576   0.6939   0.8638     H
O      0.36043  0.47567  0.52535     O
O      0.36043  0.52433  0.97465     O
N       0.3611  0.46347  0.37204     N
N       0.3611  0.53653  0.12796     N
C       0.3642  0.08592  0.07823     C
C       0.3642  0.91408  0.42177     C
H        0.374   0.0453   0.0507     H
H        0.374   0.9547   0.4493     H
C       0.3753  0.34309   0.2921     C
C       0.3753  0.65691   0.2079     C
C       0.3772  0.42158   0.5603     C
C       0.3772  0.57842   0.9397     C
O       0.3814  0.03333  0.55867     O
O       0.3814  0.96667  0.94133     O
C       0.3872  0.27385  0.25546     C
C       0.3872  0.72615  0.24454     C
C       0.3925  0.08722   0.5949     C
C       0.3925  0.91278   0.9051     C
O       0.4531  0.22573  0.27872     O
O       0.4531  0.77427  0.22128     O
C       0.4586  0.41732  0.37757     C
C       0.4586  0.58268  0.12243     C
H       0.4591   0.3252   0.8451     H
H       0.4591   0.6748   0.6549     H
C       0.4592  0.17671  0.14632     C
C       0.4592  0.82329  0.35368     C
H       0.4661   0.1981   0.6659     H
H       0.4661   0.8019   0.8341     H
C       0.4695  0.35694  0.33923     C
C       0.4695  0.64306  0.16077     C
C       0.4735   0.1167  0.10719     C
C       0.4735   0.8833  0.39281     C
H       0.4757   0.4263   0.9096     H
H       0.4757   0.5737   0.5904     H
O      0.48798  0.39646  0.57422     O
O      0.48798  0.60354  0.92578     O
O      0.51202  0.39646  0.07422     O
O      0.51202  0.60354  0.42578     O
H       0.5243   0.4263   0.4096     H
H       0.5243   0.5737   0.0904     H
C       0.5265   0.1167  0.60719     C
C       0.5265   0.8833  0.89281     C
C       0.5305  0.35694  0.83923     C
C       0.5305  0.64306  0.66077     C
H       0.5339   0.1981   0.1659     H
H       0.5339   0.8019   0.3341     H
C       0.5408  0.17671  0.64632     C
C       0.5408  0.82329  0.85368     C
H       0.5409   0.3252   0.3451     H
H       0.5409   0.6748   0.1549     H
C       0.5414  0.41732  0.87757     C
C       0.5414  0.58268  0.62243     C
O       0.5469  0.22573  0.77872     O
O       0.5469  0.77427  0.72128     O
C       0.6075  0.08722   0.0949     C
C       0.6075  0.91278   0.4051     C
C       0.6128  0.27385  0.75546     C
C       0.6128  0.72615  0.74454     C
O       0.6186  0.03333  0.05867     O
O       0.6186  0.96667  0.44133     O
C       0.6228  0.42158   0.0603     C
C       0.6228  0.57842   0.4397     C
C       0.6247  0.34309   0.7921     C
C       0.6247  0.65691   0.7079     C
H        0.626   0.0453   0.5507     H
H        0.626   0.9547   0.9493     H
C       0.6358  0.08592  0.57823     C
C       0.6358  0.91408  0.92177     C
N       0.6389  0.46347  0.87204     N
N       0.6389  0.53653  0.62796     N
O      0.63957  0.47567  0.02535     O
O      0.63957  0.52433  0.47465     O
H       0.6424   0.3061   0.1362     H
H       0.6424   0.6939   0.3638     H
Mn     0.66315  0.44969  0.55107    Mn
Mn     0.66315  0.55031  0.94893    Mn
C       0.6639  0.20586  0.65706     C
C       0.6639  0.79414  0.84294     C
N       0.6768  0.26829  0.69679     N
N       0.6768  0.73171  0.80321     N
H       0.7032   0.0159   0.3198     H
H       0.7032   0.9841   0.1802     H
O      0.70638  0.11814  0.11916     O
O      0.70638  0.88186  0.38084     O
H       0.7095   0.1158   0.2525     H
H       0.7095   0.8842   0.2475     H
C       0.7246   0.3914  0.78482     C
C       0.7246   0.6086  0.71518     C
H       0.7266   0.3036   0.6832     H
H       0.7266   0.6964   0.8168     H
C       0.7268  0.32563  0.12871     C
C       0.7268  0.67437  0.37129     C
C       0.7278   0.4507  0.82542     C
C       0.7278   0.5493  0.67458     C
C       0.7413  0.38591  0.08928     C
C       0.7413  0.61409  0.41072     C
C       0.7587  0.11409  0.58928     C
C       0.7587  0.88591  0.91072     C
C       0.7722   0.0493  0.32542     C
C       0.7722   0.9507  0.17458     C
C       0.7732  0.17437  0.62871     C
C       0.7732  0.82563  0.87129     C
H       0.7734   0.1964   0.1832     H
H       0.7734   0.8036   0.3168     H
C       0.7754   0.1086  0.28482     C
C       0.7754   0.8914  0.21518     C
H       0.7905   0.3842   0.7525     H
H       0.7905   0.6158   0.7475     H
O      0.79362  0.38186  0.61916     O
O      0.79362  0.61814  0.88084     O
H       0.7968   0.4841   0.8198     H
H       0.7968   0.5159   0.6802     H
N       0.8232  0.23171  0.19679     N
N       0.8232  0.76829  0.30321     N
C       0.8361  0.29414  0.15706     C
C       0.8361  0.70586  0.34294     C
Mn     0.83685  0.05031  0.05107    Mn
Mn     0.83685  0.94969  0.44893    Mn
H       0.8576   0.1939   0.6362     H
H       0.8576   0.8061   0.8638     H
O      0.86043  0.02433  0.52535     O
O      0.86043  0.97567  0.97465     O
N       0.8611  0.03653  0.37204     N
N       0.8611  0.96347  0.12796     N
C       0.8642  0.41408  0.07823     C
C       0.8642  0.58592  0.42177     C
H        0.874   0.4547   0.0507     H
H        0.874   0.5453   0.4493     H
C       0.8753  0.15691   0.2921     C
C       0.8753  0.84309   0.2079     C
C       0.8772  0.07842   0.5603     C
C       0.8772  0.92158   0.9397     C
O       0.8814  0.46667  0.55867     O
O       0.8814  0.53333  0.94133     O
C       0.8872  0.22615  0.25546     C
C       0.8872  0.77385  0.24454     C
C       0.8925  0.41278   0.5949     C
C       0.8925  0.58722   0.9051     C
O       0.9531  0.27427  0.27872     O
O       0.9531  0.72573  0.22128     O
C       0.9586  0.08268  0.37757     C
C       0.9586  0.91732  0.12243     C
H       0.9591   0.1748   0.8451     H
H       0.9591   0.8252   0.6549     H
C       0.9592  0.32329  0.14632     C
C       0.9592  0.67671  0.35368     C
H       0.9661   0.3019   0.6659     H
H       0.9661   0.6981   0.8341     H
C       0.9695  0.14306  0.33923     C
C       0.9695  0.85694  0.16077     C
C       0.9735   0.3833  0.10719     C
C       0.9735   0.6167  0.39281     C
H       0.9757   0.0737   0.9096     H
H       0.9757   0.9263   0.5904     H
O      0.98798  0.10354  0.57422     O
O      0.98798  0.89646  0.92578     O
