data_I
_chemical_name_common  '/home/zhangsd/repos/MofS-CGCNN/ML/data/TSD/clean_cifs/EBAVAH_auto'
_cell_length_a 18.82760
_cell_length_b 18.82760
_cell_length_c 54.14900
_cell_angle_alpha 90.00000
_cell_angle_beta  90.00000
_cell_angle_gamma 120.00000
_space_group_name_H-M_alt      'P 1'


loop_
_space_group_symop_operation_xyz
  'x, y, z' 

loop_
_atom_site_label
_atom_site_fract_x
_atom_site_fract_y
_atom_site_fract_z
_atom_site_type_symbol
S     -0.05374  0.09038  0.80446     S
H     -0.02239  0.21852  0.69104     H
H     -0.02135  0.70801  0.69078     H
C     -0.01004  0.74257  0.27738     C
C     -0.00992  0.19609  0.27749     C
N     -0.00128  0.14239  0.77895     N
O       0.0049   0.7697  0.29839     O
O      0.00499  0.18395   0.2985     O
C      0.00868  0.18464  0.65612     C
C      0.00908  0.77356  0.65596     C
N      0.01188  0.16856  0.82293     N
H      0.02117  0.81351  0.77781     H
C      0.02271  0.21018    0.681     C
C      0.02358  0.76159  0.68075     C
C      0.02525  0.48716  0.35964     C
H      0.02867  0.60218  0.35737     H
H      0.02879  0.37559  0.35746     H
H      0.03429  0.80003   0.8225     H
C      0.03758  0.55763   0.3472     C
C      0.03765  0.42896  0.34725     C
O       0.0408  0.73524  0.26526     O
O      0.04091  0.25428  0.26538     O
H      0.04628  0.35688  0.89651     H
H      0.04697   0.6371   0.8966     H
H       0.0572  0.85679  0.62484     H
H      0.05737  0.15059   0.6249     H
C       0.0629   0.2157  0.78482     C
C      0.06399  0.57246  0.32234     C
C      0.06404  0.44039  0.32239     C
C      0.06811  0.17212  0.64382     C
C      0.06818  0.80108  0.78442     C
C       0.0683  0.84566  0.64369     C
C      0.07036  0.23052  0.80975     C
O      0.07375  0.70104  0.32344     O
O      0.07387  0.32159  0.32354     O
C      0.07575   0.7934  0.81009     C
C      0.07646  0.51262  0.31004     C
C       0.0825  0.64825    0.311     C
C      0.08258  0.38309  0.31109     C
C      0.09304  0.22215  0.69348     C
C      0.09419  0.81969  0.69317     C
H       0.0981  0.52339  0.29113     H
Cu     0.09905  0.80993  0.31814    Cu
Cu     0.09916  0.23795  0.31824    Cu
C       0.0995  0.36483   0.9066     C
C      0.10003  0.68242  0.90674     C
C      0.10286  0.24194  0.71961     C
C      0.10445  0.80937  0.71923     C
C      0.11018  0.25678  0.74155     C
O      0.11022  0.66427  0.28902     O
O      0.11028  0.39474   0.2891     O
C      0.11067   0.3898  0.93153     C
C      0.11091  0.66872   0.9317     C
C      0.11204   0.8016  0.74112     C
C      0.11818  0.27313   0.7679     C
C      0.12023  0.79301  0.76742     C
C      0.13369  0.30386  0.81959     C
C      0.13572  0.77744  0.81975     C
O      0.13939  0.90616  0.29926     O
O      0.13948  0.18207  0.29932     O
C      0.13989  0.18439  0.65617     C
C      0.14033  0.90491  0.65599     C
C       0.1414  0.31964  0.84597     C
C      0.14293  0.76935  0.84612     C
C      0.14845   0.3339  0.86795     C
C      0.14956  0.76214   0.8681     C
Cu     0.14977  0.76037  0.27007    Cu
Cu     0.14985  0.33822  0.27016    Cu
C      0.15132  0.20994  0.68105     C
C      0.15226  0.89037  0.68078     C
H      0.15318  0.05096  0.29672     H
H      0.15679  0.01648  0.14358     H
C      0.15794  0.35297  0.89413     C
C      0.15862  0.75268   0.8943     C
C      0.16776  0.92233  0.27736     C
C      0.16784  0.19429  0.27742     C
C      0.17519    0.062  0.27785     C
O      0.17624  0.86966   0.2648     O
O      0.17634  0.25546  0.26487     O
C      0.18234  0.40184   0.9439     C
C      0.18236  0.34736   0.7773     C
C      0.18244  0.72839  0.94412     C
C      0.18336  0.77623  0.77733     C
H      0.18425  0.03023  0.09868     H
O      0.18704  0.13613  0.62231     O
O      0.18715  0.00066  0.62223     O
C       0.1879   0.0026  0.26553     C
C      0.18796  0.13418  0.26556     C
C      0.19004  0.36263  0.80297     C
C      0.19068  0.76886   0.8021     C
H      0.19281  0.71787   0.9631     H
H      0.19289  0.42298  0.96286     H
C      0.19967  0.16428  0.64423     C
C      0.19989 -0.01501  0.64411     C
H      0.20464  0.21811  0.69113     H
H      0.20579  0.93531  0.69082     H
O      0.20803  0.83675  0.32362     O
O      0.20817  0.32003   0.3237     O
C      0.21402  0.01711  0.24069     C
C      0.21409  0.14588  0.24073     C
C      0.21674  0.06233  0.13696     C
H      0.22253 -0.02784  0.23063     H
H      0.22265   0.1994  0.23068     H
C      0.22642   0.0877  0.22827     C
H      0.22642  0.39336  0.76486     H
C      0.22814  0.36466  0.90663     C
C      0.22862  0.81125  0.90684     C
C       0.2324  0.07021  0.11131     C
N      0.23802  0.76682  0.76397     N
H      0.23984  0.42016   0.8098     H
Cu     0.24155  0.09573  0.60292    Cu
C       0.2419  0.38964  0.93156     C
C      0.24211  0.80014   0.9318     C
O      0.24529  0.80063  0.28919     O
O      0.24537  0.39341  0.28927     O
C      0.24669  0.09789  0.20215     C
N      0.25101   0.7537  0.80794     N
O      0.26089  0.17267  0.65671     O
C      0.26096  0.82871  0.31111     C
O      0.26106  0.03779  0.65661     O
C       0.2611  0.38097  0.31118     C
C      0.26178   0.1054  0.18021     C
H      0.27338  0.35662  0.89656     H
H      0.27396  0.86449  0.89677     H
C      0.27816  0.11342  0.15383     C
S      0.28118  0.75637  0.47143     S
S          0.3  0.74841  0.78234     S
C      0.30971  0.12932  0.10215     C
H      0.30999  0.88317  0.35791     H
H      0.31048  0.37532  0.35793     H
C      0.32166  0.40951  0.94355     C
C      0.32179  0.86007   0.9438     C
O      0.32443  0.06979  0.59756     O
O      0.32443  0.20455  0.59761     O
C      0.32617  0.13748  0.07578     C
N      0.33299 -0.19163  0.44585     N
O      0.33722  0.43783  0.96546     O
O      0.33735  0.84736  0.96571     O
C      0.34065  0.14462  0.05381     C
C      0.34104  0.84917  0.32301     C
C      0.34128  0.44048  0.32304     C
Cu     0.34378  0.14672  0.65134    Cu
N      0.34657 -0.16495   0.4898     N
C       0.3546  0.17177  0.14425     C
H      0.35493  0.48538  0.44476     H
C      0.35519  0.87504  0.34785     C
C      0.35563  0.42866  0.34786     C
C      0.35963    0.154  1.02761     C
H       0.3632  0.26941  1.02511     H
H      0.36342  0.04225  1.02523     H
H      0.36875  0.47216  0.48968     H
C      0.36982  0.17943  0.11933     C
C      0.37108  0.22406  1.01505     C
C      0.37121  0.09537  1.01512     C
O      0.37441  0.40091  0.93111     O
O      0.37452  0.92141  0.93135     O
H      0.38082  0.02481  0.56309     H
H      0.38118  0.30558  0.56311     H
C      0.38568  0.07823  0.61003     C
C      0.38569   0.2573  0.61009     C
H      0.38985  0.81519  0.29179     H
H      0.38986  0.52336  0.29184     H
C      0.39549  0.23747  0.99006     C
C      0.39561  0.10619  0.99013     C
C       0.3968 -0.11795  0.45162     C
O      0.39831  0.24175  0.63201     O
O      0.39834  0.10638  0.63195     O
C      0.40067  0.83699  0.31068     C
C      0.40082   0.4714  0.45143     C
C      0.40083   0.5123  0.31071     C
C      0.40451 -0.10285  0.47652     C
O      0.40635  0.36985  0.99037     O
O      0.40664  0.98473  0.99052     O
C      0.40741  0.17772  0.97772     C
C      0.40872   0.4639  0.47708     C
C      0.41496  0.31702  0.97797     C
C      0.41517   1.0461  0.97809     C
S      0.41683  0.62249  0.78211     S
N       0.4194  0.22497  0.15768     N
C      0.42582  0.88768  0.36028     C
C      0.42639  0.48658  0.36025     C
H      0.42807  0.18799  0.95872     H
Cu     0.43223  0.47857  0.98484    Cu
Cu     0.43245  0.90176  0.98502    Cu
C      0.43412  0.03292  0.57316     C
C       0.4344  0.35085  0.57319     C
C       0.4358  -0.0922  0.38637     C
C      0.43647  0.47651  0.38634     C
O      0.44297  0.33235  0.95603     O
O      0.44312   1.0587  0.95615     O
C      0.44329 -0.07709  0.40829     C
C      0.44394  0.46905  0.40827     C
C       0.4455  0.05821  0.59806     C
C      0.44558  0.33709  0.59813     C
N      0.44625  0.23846  0.11373     N
C      0.45152 -0.06043  0.43461     C
C      0.45193  0.46092  0.43462     C
C      0.46753 -0.02911  0.48625     C
C       0.4679  0.44587  0.48627     C
N       0.4711  0.66963  0.80789     N
O      0.47257  0.57339  0.96541     O
O      0.47269  0.84722  0.96554     O
C      0.47277  0.84994    0.323     C
C      0.47304  0.57139  0.32299     C
C       0.4755 -0.01303   0.5126     C
C      0.47608  0.43783  0.51261     C
C      0.48275   0.0015  0.53455     C
Cu     0.48325  0.42708  0.93649    Cu
C      0.48331  0.43064  0.53456     C
Cu     0.48335   1.0042  0.93665    Cu
C      0.48429  0.87581  0.34785     C
C      0.48477  0.55694  0.34781     C
H      0.48732  0.71759  0.96283     H
C      0.49247  0.02091   0.5607     C
C      0.49286   0.4211  0.56072     C
N      0.49827  0.68358  0.76397     N
C      0.50059  0.58878  0.94347     C
C      0.50068  0.85988   0.9436     C
S      0.50077  0.28571  0.13947     S
C      0.50827  0.72814  0.94386     C
O       0.5091  0.53593  0.93104     O
O      0.50918  0.92126  0.93118     O
C      0.51035    0.443  0.44423     C
C      0.51538   0.0142   0.4439     C
C      0.51726  0.39672  0.61049     C
C      0.51727  0.07042   0.6104     C
C      0.51804  0.43572  0.46915     C
C      0.52028  0.66851  0.93146     C
C      0.52034   0.7999  0.93154     C
O      0.52059  0.80222  0.28916     O
O      0.52066  0.66701  0.28917     O
C      0.52331  0.02976  0.46955     C
H      0.52783  0.38616  0.62945     H
H      0.52797  0.09179  0.62934     H
C      0.53287  0.83016   0.3111     C
C      0.53302   0.6513   0.3111     C
H      0.53785  0.88453   0.3579     H
H      0.53841  0.60175  0.35784     H
O      0.54111  0.50455  0.99015     O
O      0.54137  0.98451   0.9903     O
C      0.54506  0.68231  0.90651     C
C      0.54514  0.81111  0.90659     C
C      0.54751  0.72886  0.80236     C
H      0.55302  0.63708   0.8964     H
H      0.55317  0.86442  0.89654     H
C      0.55681  0.75264  0.89405     C
H        0.559  0.06027  0.43139     H
C      0.56279  0.03279  0.57316     C
C       0.5629  0.73678  0.77746     C
C      0.56305  0.47962   0.5732     C
N      0.56356  0.43132  0.43084     N
H      0.57285  0.08759   0.4763     H
Cu     0.57568  0.76216   0.2699    Cu
C      0.57615  0.76251  0.86789     C
C      0.57675  0.05808  0.59806     C
C      0.57682  0.46846  0.59813     C
N      0.57711  0.41844   0.4748     N
O      0.57834  0.46775   0.9558     O
O      0.57846  1.05853  0.95594     O
C      0.59086  0.77015  0.84593     C
C      0.59386  0.49596  0.97771     C
O      0.59402  0.83862  0.32364     O
C       0.5941   1.0458  0.97783     C
O      0.59416  0.70399  0.32364     O
C      0.60747  0.77884  0.81958     C
H      0.60794  0.02461  0.56309     H
H      0.60827  0.53288  0.56312     H
S      0.62437  0.41095   0.4491     S
C      0.63939   0.7953  0.76794     C
H      0.64176  0.54796  1.02477     H
H      0.64269  0.04122  1.02478     H
C      0.65599  0.80332  0.74159     C
C      0.65658  0.07806  0.61002     C
C      0.65658  0.52838  0.61009     C
O      0.65843  0.73587  0.26474     O
O      0.65856   0.8712  0.26478     O
C      0.67117  0.81074  0.71966     C
O      0.67217   0.1064  0.63191     O
O       0.6722  0.51569  0.63199     O
C      0.67355  0.51563  0.98971     C
C      0.67394  0.10565  0.98976     C
Cu     0.67717  0.81288  0.31844    Cu
C      0.68479  0.83822   0.8105     C
C      0.68708  0.54011  1.01468     C
C      0.68787  0.09447  1.01468     C
C      0.69143  0.82077  0.69355     C
H      0.69525  0.93631  0.69111     H
H      0.69538  0.70909  0.69118     H
C      0.70064  0.84638  0.78486     C
C      0.70369  0.89125  0.68109     C
C      0.70377  0.76253  0.68113     C
O      0.70929  0.58969  0.59763     O
O      0.70934   0.0695  0.59756     O
H      0.71315   0.6878  0.23069     H
H      0.71398 -0.02649  0.23063     H
C      0.71936  0.74394  0.27731     C
C       0.7195  0.92405  0.27735     C
H      0.72276  0.18794  0.95844     H
H      0.72283  0.48285  0.95835     H
C      0.72956  0.90544  0.65623     C
C      0.72963  0.77411  0.65627     C
O      0.73195  0.77234   0.2992     O
O      0.73201  0.90825  0.29925     O
H      0.73281  0.87814  0.82317     H
C      0.73322  0.50363  0.97734     C
C      0.73344  0.17737  0.97739     C
O      0.74123  0.03821  0.65668     O
O      0.74138  0.65304  0.65675     O
C      0.74212  0.84602  0.64394     C
S      0.74447  0.40691  0.13908     S
S      0.74947  0.29213  0.44831     S
C      0.74965 -0.01469  0.64425     C
C      0.74975  0.71432   0.6443     C
N      0.75216  0.46148  0.11321     N
C      0.75713   0.5515  1.02719     C
C      0.75817  0.15298  1.02712     C
H       0.7606   0.8924  0.77829     H
H      0.76386  0.85686  0.62505     H
N       0.7657  0.48791  0.15769     N
C      0.76634  0.56995  0.05339     C
C      0.76653  0.69606  0.24075     C
C      0.76716  0.01878  0.24073     C
Cu     0.76724  0.14708  0.65123    Cu
Cu     0.76732  0.57012  0.65128    Cu
C      0.76788  0.14349  0.05328     C
C      0.77017  0.53813  0.11863     C
H      0.77219  0.23364  0.11162     H
C      0.77326  0.58373  0.07539     C
C      0.77524   0.1364  0.07523     C
O      0.77783  0.00075  0.62233     O
O      0.77785    0.727  0.62237     O
C      0.77807  0.55357  0.14465     C
C      0.77868  0.72284   0.2655     C
C      0.77893  0.00441  0.26555     C
C      0.78054  0.18415  0.11839     C
C      0.78105    0.599  0.10178     C
C       0.7835  0.12848  0.10157     C
H      0.78575  0.22085  0.15645     H
C      0.78827  0.17679  0.14415     C
C      0.79425  0.06572  0.11124     C
C       0.7969  0.63007  0.15411     C
N      0.79854  0.00718   0.0984     N
C      0.79916  0.11346  0.15392     C
C      0.79989  0.67611  0.11135     C
C      0.80204  0.05827  0.13727     C
N      0.80425  0.33865  0.47407     N
C      0.80478  0.51543  0.98973     C
C      0.80521  0.23698  0.98971     C
C      0.80573  0.64676  0.18042     C
O      0.80747  0.51556  0.63176     O
O      0.80751  0.24182  0.63172     O
C      0.80752   0.1063  0.18029     C
C       0.8077  0.69139  0.13709     C
H      0.80872  0.72489  0.09889     H
N      0.81192 -0.00555  0.14289     N
S      0.81197 -0.05746  0.11721     S
C       0.8137   0.6621  0.20233     C
C      0.81504  0.09937  0.20224     C
C       0.8157  0.53989   1.0147     C
C      0.81655  0.22321  1.01463     C
Cu     0.81816  0.67252   0.6029    Cu
Cu     0.81824   0.0956  0.60288    Cu
H      0.82229  0.38607  0.62909     H
H      0.82238  0.75154  0.14369     H
C      0.82417  0.68273  0.22839     C
C      0.82498  0.08961  0.22836     C
N      0.83125  0.35212  0.43014     N
C      0.83541  0.52818  0.60981     C
C       0.8355  0.25718  0.60978     C
C      0.84308  0.39649   0.6101     C
O      0.84395  0.58957  0.59739     O
O      0.84408  0.20436  0.59736     O
C      0.85056  0.73517  0.27782     C
C      0.85063   0.0641  0.27791     C
O      0.85217  0.46766   0.9558     O
O      0.85232   0.3323  0.95582     O
C      0.85499  0.46814  0.59775     C
C      0.85505  0.33682  0.59773     C
H      0.86171  0.05302  0.29676     H
H      0.86189  0.75776  0.29663     H
C      0.86476  0.49569  0.97774     C
C      0.86502  0.31676  0.97773     C
H      0.86878  0.54759  1.02481     H
H      0.86985  0.26847  1.02469     H
O      0.87609  0.17319   0.6566     O
O      0.87626  0.65276  0.65656     O
C      0.87957  0.47918  0.57277     C
C      0.87961  0.35044  0.57275     C
C      0.88106  0.39689  0.46852     C
H      0.88748  0.53241   0.5627     H
H      0.88753  0.30516  0.56266     H
C      0.89121  0.42065  0.56025     C
C      0.89462  0.69479  0.24081     C
C       0.8952  0.14816  0.24083     C
C      0.89636  0.40454   0.4436     C
Cu     0.90676  0.42729  0.93644    Cu
C      0.90949  0.72161  0.26558     C
C      0.90971  0.13648  0.26565     C
C      0.91038  0.43033  0.53406     C
O      0.91328  0.13631  0.62225     O
O      0.91331   0.7268   0.6222     O
C      0.92498  0.43776  0.51209     C
O      0.92604  0.50415   0.9902     O
O       0.9263  0.36952  0.99019     O
C      0.92885  0.16463  0.64415     C
C      0.92902  0.71398  0.64407     C
H      0.93927  0.68569  0.23078     H
H      0.94001  0.20179  0.23079     H
C      0.94148  0.44617  0.48573     C
C      0.97321  0.46206  0.43406     C
O      0.98954  0.40125  0.93105     O
C      0.98971  0.46985  0.40769     C
O      0.98971  0.53616  0.93116     O
C      1.00487  0.47714  0.38575     C
Cu     1.00904  0.47832  0.98486    Cu
C      1.01918  0.50455  0.47661     C
C      1.03493  0.51242  0.45096     C
C      1.05081  0.40973  0.94351     C
C      1.05096  0.58892  0.94365     C
O      1.06348   0.4379  0.96543     O
O      1.06356  0.57337  0.96556     O
H      1.06758  0.54391  0.48926     H
H      1.09519  0.55767  0.44437     H
