data_I
_chemical_name_common  '/home/zhangsd/repos/MofS-CGCNN/ML/data/TSD/clean_cifs/EBEWIT_clean'
_cell_length_a 10.36040
_cell_length_b 10.36040
_cell_length_c 14.50590
_cell_angle_alpha 90.00000
_cell_angle_beta  90.00000
_cell_angle_gamma 90.00000
_space_group_name_H-M_alt      'P 1'


loop_
_space_group_symop_operation_xyz
  'x, y, z' 

loop_
_atom_site_label
_atom_site_fract_x
_atom_site_fract_y
_atom_site_fract_z
_atom_site_type_symbol
H          0.0   0.1096      0.0     H
C          0.0   0.1994      0.0     C
C          0.0   0.3893      0.5     C
C          0.0   0.4629      0.0     C
C          0.0   0.5371      0.5     C
H          0.0   0.8904      0.5     H
C       0.0399   0.2625    0.078     C
C       0.0399   0.7375    0.422     C
C       0.0412   0.3978    0.077     C
C       0.0412   0.6022    0.423     C
O       0.0692   0.3355   0.4414     O
O       0.0692   0.6645   0.0586     O
H       0.0698   0.4434   0.1283     H
H       0.0698   0.5566   0.3717     H
O       0.0724   0.1069   0.5955     O
O       0.0724   0.8931   0.9045     O
C       0.0828    0.189   0.1606     C
C       0.0828    0.811   0.3394     C
O       0.0895   0.2475   0.2362     O
O       0.0895   0.7525   0.2638     O
O       0.1069   0.0724   0.1545     O
O       0.1069   0.9276   0.3455     O
H       0.1096      0.0     0.75     H
Gd     0.14567  0.14567    0.375    Gd
Gd     0.14567  0.85433    0.125    Gd
C        0.189   0.0828   0.5894     C
C        0.189   0.9172   0.9106     C
C       0.1994      0.0     0.75     C
O       0.2475   0.0895   0.5138     O
O       0.2475   0.9105   0.9862     O
C       0.2625   0.0399    0.672     C
C       0.2625   0.9601    0.828     C
O       0.3355   0.0692   0.3086     O
O       0.3355   0.9308   0.1914     O
C       0.3893      0.0     0.25     C
C       0.3978   0.0412    0.673     C
C       0.3978   0.9588    0.827     C
H       0.4434   0.0698   0.6217     H
H       0.4434   0.9302   0.8783     H
C       0.4629      0.0     0.75     C
C       0.5371      0.0     0.25     C
H       0.5566   0.0698   0.3783     H
H       0.5566   0.9302   0.1217     H
C       0.6022   0.0412    0.327     C
C       0.6022   0.9588    0.173     C
C       0.6107      0.0     0.75     C
O       0.6645   0.0692   0.6914     O
O       0.6645   0.9308   0.8086     O
C       0.7375   0.0399    0.328     C
C       0.7375   0.9601    0.172     C
O       0.7525   0.0895   0.4862     O
O       0.7525   0.9105   0.0138     O
C       0.8006      0.0     0.25     C
C        0.811   0.0828   0.4106     C
C        0.811   0.9172   0.0894     C
Gd     0.85433  0.14567    0.625    Gd
Gd     0.85433  0.85433    0.875    Gd
H       0.8904      0.0     0.25     H
O       0.8931   0.0724   0.8455     O
O       0.8931   0.9276   0.6545     O
O       0.9105   0.2475   0.7638     O
O       0.9105   0.7525   0.7362     O
C       0.9172    0.189   0.8394     C
C       0.9172    0.811   0.6606     C
O       0.9276   0.1069   0.4045     O
O       0.9276   0.8931   0.0955     O
H       0.9302   0.4434   0.8717     H
H       0.9302   0.5566   0.6283     H
O       0.9308   0.3355   0.5586     O
O       0.9308   0.6645   0.9414     O
C       0.9588   0.3978    0.923     C
C       0.9588   0.6022    0.577     C
C       0.9601   0.2625    0.922     C
C       0.9601   0.7375    0.578     C
C          1.0   0.6107      0.0     C
C          1.0   0.8006      0.5     C
