data_I
_chemical_name_common  '/home/zhangsd/repos/MofS-CGCNN/ML/data/TSD/clean_cifs/EBINUA02_clean'
_cell_length_a 25.05400
_cell_length_b 13.21540
_cell_length_c 17.38850
_cell_angle_alpha 90.00000
_cell_angle_beta  90.00000
_cell_angle_gamma 90.00000
_space_group_name_H-M_alt      'P 1'


loop_
_space_group_symop_operation_xyz
  'x, y, z' 

loop_
_atom_site_label
_atom_site_fract_x
_atom_site_fract_y
_atom_site_fract_z
_atom_site_type_symbol
N       0.0039     0.33    0.582     N
N       0.0039     0.42    0.168     N
N       0.0039     0.83    0.082     N
N       0.0039     0.92    0.668     N
H       0.0099    0.327   0.3045     H
H       0.0099    0.423   0.4455     H
H       0.0099    0.827   0.8045     H
H       0.0099    0.923   0.9455     H
C       0.0146   0.0433   0.0198     C
C       0.0146   0.2067   0.2302     C
C       0.0146   0.5433   0.5198     C
C       0.0146   0.7067   0.7302     C
N        0.019   0.3678    0.651     N
N        0.019   0.3822    0.099     N
N        0.019   0.8678    0.151     N
N        0.019   0.8822    0.599     N
H       0.0307   0.0384   0.7298     H
H       0.0307   0.2116   0.5202     H
H       0.0307   0.5384   0.2298     H
H       0.0307   0.7116   0.0202     H
C       0.0337   0.0002   0.6852     C
C       0.0337   0.2498   0.5648     C
C       0.0337   0.5002   0.1852     C
C       0.0337   0.7498   0.0648     C
C       0.0373   0.1206   0.9644     C
C       0.0373   0.1294   0.2856     C
C       0.0373   0.6206   0.4644     C
C       0.0373   0.6294   0.7856     C
H       0.0435   0.0156   0.0504     H
H       0.0435   0.2344   0.1996     H
H       0.0435   0.5156   0.5504     H
H       0.0435   0.7344   0.6996     H
H       0.0565   0.0783   0.2567     H
H       0.0565   0.1717   0.9933     H
H       0.0565   0.5783   0.7567     H
H       0.0565   0.6717   0.4933     H
C       0.0572   0.3065   0.6716     C
C       0.0572   0.4435   0.0784     C
C       0.0572   0.8065   0.1716     C
C       0.0572   0.9435   0.5784     C
H       0.0625   0.0874   0.9304     H
H       0.0625   0.1626   0.3196     H
H       0.0625   0.5874   0.4304     H
H       0.0625   0.6626   0.8196     H
N       0.0679   0.0173   0.6294     N
N       0.0679   0.2327   0.6206     N
N       0.0679   0.5173   0.1294     N
N       0.0679   0.7327   0.1206     N
H       0.0756   0.3133   0.7178     H
H       0.0756   0.4367   0.0322     H
H       0.0756   0.8133   0.2178     H
H       0.0756   0.9367   0.5322     H
Cu       0.125    0.125    0.625    Cu
Cu       0.125    0.625    0.125    Cu
H       0.1744   0.3133   0.5322     H
H       0.1744   0.4367   0.2178     H
H       0.1744   0.8133   0.0322     H
H       0.1744   0.9367   0.7178     H
N       0.1821   0.0173   0.6206     N
N       0.1821   0.2327   0.6294     N
N       0.1821   0.5173   0.1206     N
N       0.1821   0.7327   0.1294     N
H       0.1875   0.0874   0.3196     H
H       0.1875   0.1626   0.9304     H
H       0.1875   0.5874   0.8196     H
H       0.1875   0.6626   0.4304     H
C       0.1928   0.3065   0.5784     C
C       0.1928   0.4435   0.1716     C
C       0.1928   0.8065   0.0784     C
C       0.1928   0.9435   0.6716     C
H       0.1935   0.0783   0.9933     H
H       0.1935   0.1717   0.2567     H
H       0.1935   0.5783   0.4933     H
H       0.1935   0.6717   0.7567     H
H       0.2065   0.0156   0.1996     H
H       0.2065   0.2344   0.0504     H
H       0.2065   0.5156   0.6996     H
H       0.2065   0.7344   0.5504     H
C       0.2127   0.1206   0.2856     C
C       0.2127   0.1294   0.9644     C
C       0.2127   0.6206   0.7856     C
C       0.2127   0.6294   0.4644     C
C       0.2163   0.0002   0.5648     C
C       0.2163   0.2498   0.6852     C
C       0.2163   0.5002   0.0648     C
C       0.2163   0.7498   0.1852     C
H       0.2193   0.0384   0.5202     H
H       0.2193   0.2116   0.7298     H
H       0.2193   0.5384   0.0202     H
H       0.2193   0.7116   0.2298     H
N        0.231   0.3678    0.599     N
N        0.231   0.3822    0.151     N
N        0.231   0.8678    0.099     N
N        0.231   0.8822    0.651     N
C       0.2354   0.0433   0.2302     C
C       0.2354   0.2067   0.0198     C
C       0.2354   0.5433   0.7302     C
C       0.2354   0.7067   0.5198     C
H       0.2401    0.327   0.9455     H
H       0.2401    0.423   0.8045     H
H       0.2401    0.827   0.4455     H
H       0.2401    0.923   0.3045     H
N       0.2461     0.33    0.668     N
N       0.2461     0.42    0.082     N
N       0.2461     0.83    0.168     N
N       0.2461     0.92    0.582     N
N       0.2539     0.08    0.918     N
N       0.2539     0.17    0.332     N
N       0.2539     0.58    0.418     N
N       0.2539     0.67    0.832     N
H       0.2599    0.077   0.1955     H
H       0.2599    0.173   0.0545     H
H       0.2599    0.577   0.6955     H
H       0.2599    0.673   0.5545     H
C       0.2646   0.2933   0.9802     C
C       0.2646   0.4567   0.7698     C
C       0.2646   0.7933   0.4802     C
C       0.2646   0.9567   0.2698     C
N        0.269   0.1178    0.849     N
N        0.269   0.1322    0.401     N
N        0.269   0.6178    0.349     N
N        0.269   0.6322    0.901     N
H       0.2807   0.2884   0.2702     H
H       0.2807   0.4616   0.4798     H
H       0.2807   0.7884   0.7702     H
H       0.2807   0.9616   0.9798     H
C       0.2837   0.2502   0.3148     C
C       0.2837   0.4998   0.4352     C
C       0.2837   0.7502   0.8148     C
C       0.2837   0.9998   0.9352     C
C       0.2873   0.3706   0.0356     C
C       0.2873   0.3794   0.7144     C
C       0.2873   0.8706   0.5356     C
C       0.2873   0.8794   0.2144     C
H       0.2935   0.2656   0.9496     H
H       0.2935   0.4844   0.8004     H
H       0.2935   0.7656   0.4496     H
H       0.2935   0.9844   0.3004     H
H       0.3065   0.3283   0.7433     H
H       0.3065   0.4217   0.0067     H
H       0.3065   0.8283   0.2433     H
H       0.3065   0.9217   0.5067     H
C       0.3072   0.0565   0.8284     C
C       0.3072   0.1935   0.4216     C
C       0.3072   0.5565   0.3284     C
C       0.3072   0.6935   0.9216     C
H       0.3125   0.3374   0.0696     H
H       0.3125   0.4126   0.6804     H
H       0.3125   0.8374   0.5696     H
H       0.3125   0.9126   0.1804     H
N       0.3179   0.2673   0.3706     N
N       0.3179   0.4827   0.3794     N
N       0.3179   0.7673   0.8706     N
N       0.3179   0.9827   0.8794     N
H       0.3256   0.0633   0.7822     H
H       0.3256   0.1867   0.4678     H
H       0.3256   0.5633   0.2822     H
H       0.3256   0.6867   0.9678     H
Cu       0.375    0.375    0.375    Cu
Cu       0.375    0.875    0.875    Cu
H       0.4244   0.0633   0.9678     H
H       0.4244   0.1867   0.2822     H
H       0.4244   0.5633   0.4678     H
H       0.4244   0.6867   0.7822     H
N       0.4321   0.2673   0.3794     N
N       0.4321   0.4827   0.3706     N
N       0.4321   0.7673   0.8794     N
N       0.4321   0.9827   0.8706     N
H       0.4375   0.3374   0.6804     H
H       0.4375   0.4126   0.0696     H
H       0.4375   0.8374   0.1804     H
H       0.4375   0.9126   0.5696     H
C       0.4428   0.0565   0.9216     C
C       0.4428   0.1935   0.3284     C
C       0.4428   0.5565   0.4216     C
C       0.4428   0.6935   0.8284     C
H       0.4435   0.3283   0.0067     H
H       0.4435   0.4217   0.7433     H
H       0.4435   0.8283   0.5067     H
H       0.4435   0.9217   0.2433     H
H       0.4565   0.2656   0.8004     H
H       0.4565   0.4844   0.9496     H
H       0.4565   0.7656   0.3004     H
H       0.4565   0.9844   0.4496     H
C       0.4627   0.3706   0.7144     C
C       0.4627   0.3794   0.0356     C
C       0.4627   0.8706   0.2144     C
C       0.4627   0.8794   0.5356     C
C       0.4663   0.2502   0.4352     C
C       0.4663   0.4998   0.3148     C
C       0.4663   0.7502   0.9352     C
C       0.4663   0.9998   0.8148     C
H       0.4693   0.2884   0.4798     H
H       0.4693   0.4616   0.2702     H
H       0.4693   0.7884   0.9798     H
H       0.4693   0.9616   0.7702     H
N        0.481   0.1178    0.901     N
N        0.481   0.1322    0.349     N
N        0.481   0.6178    0.401     N
N        0.481   0.6322    0.849     N
C       0.4854   0.2933   0.7698     C
C       0.4854   0.4567   0.9802     C
C       0.4854   0.7933   0.2698     C
C       0.4854   0.9567   0.4802     C
H       0.4901    0.077   0.5545     H
H       0.4901    0.173   0.6955     H
H       0.4901    0.577   0.0545     H
H       0.4901    0.673   0.1955     H
N       0.4961     0.08    0.832     N
N       0.4961     0.17    0.418     N
N       0.4961     0.58    0.332     N
N       0.4961     0.67    0.918     N
N       0.5039     0.33    0.082     N
N       0.5039     0.42    0.668     N
N       0.5039     0.83    0.582     N
N       0.5039     0.92    0.168     N
H       0.5099    0.327   0.8045     H
H       0.5099    0.423   0.9455     H
H       0.5099    0.827   0.3045     H
H       0.5099    0.923   0.4455     H
C       0.5146   0.0433   0.5198     C
C       0.5146   0.2067   0.7302     C
C       0.5146   0.5433   0.0198     C
C       0.5146   0.7067   0.2302     C
N        0.519   0.3678    0.151     N
N        0.519   0.3822    0.599     N
N        0.519   0.8678    0.651     N
N        0.519   0.8822    0.099     N
H       0.5307   0.0384   0.2298     H
H       0.5307   0.2116   0.0202     H
H       0.5307   0.5384   0.7298     H
H       0.5307   0.7116   0.5202     H
C       0.5337   0.0002   0.1852     C
C       0.5337   0.2498   0.0648     C
C       0.5337   0.5002   0.6852     C
C       0.5337   0.7498   0.5648     C
C       0.5373   0.1206   0.4644     C
C       0.5373   0.1294   0.7856     C
C       0.5373   0.6206   0.9644     C
C       0.5373   0.6294   0.2856     C
H       0.5435   0.0156   0.5504     H
H       0.5435   0.2344   0.6996     H
H       0.5435   0.5156   0.0504     H
H       0.5435   0.7344   0.1996     H
H       0.5565   0.0783   0.7567     H
H       0.5565   0.1717   0.4933     H
H       0.5565   0.5783   0.2567     H
H       0.5565   0.6717   0.9933     H
C       0.5572   0.3065   0.1716     C
C       0.5572   0.4435   0.5784     C
C       0.5572   0.8065   0.6716     C
C       0.5572   0.9435   0.0784     C
H       0.5625   0.0874   0.4304     H
H       0.5625   0.1626   0.8196     H
H       0.5625   0.5874   0.9304     H
H       0.5625   0.6626   0.3196     H
N       0.5679   0.0173   0.1294     N
N       0.5679   0.2327   0.1206     N
N       0.5679   0.5173   0.6294     N
N       0.5679   0.7327   0.6206     N
H       0.5756   0.3133   0.2178     H
H       0.5756   0.4367   0.5322     H
H       0.5756   0.8133   0.7178     H
H       0.5756   0.9367   0.0322     H
Cu       0.625    0.125    0.125    Cu
Cu       0.625    0.625    0.625    Cu
H       0.6744   0.3133   0.0322     H
H       0.6744   0.4367   0.7178     H
H       0.6744   0.8133   0.5322     H
H       0.6744   0.9367   0.2178     H
N       0.6821   0.0173   0.1206     N
N       0.6821   0.2327   0.1294     N
N       0.6821   0.5173   0.6206     N
N       0.6821   0.7327   0.6294     N
H       0.6875   0.0874   0.8196     H
H       0.6875   0.1626   0.4304     H
H       0.6875   0.5874   0.3196     H
H       0.6875   0.6626   0.9304     H
C       0.6928   0.3065   0.0784     C
C       0.6928   0.4435   0.6716     C
C       0.6928   0.8065   0.5784     C
C       0.6928   0.9435   0.1716     C
H       0.6935   0.0783   0.4933     H
H       0.6935   0.1717   0.7567     H
H       0.6935   0.5783   0.9933     H
H       0.6935   0.6717   0.2567     H
H       0.7065   0.0156   0.6996     H
H       0.7065   0.2344   0.5504     H
H       0.7065   0.5156   0.1996     H
H       0.7065   0.7344   0.0504     H
C       0.7127   0.1206   0.7856     C
C       0.7127   0.1294   0.4644     C
C       0.7127   0.6206   0.2856     C
C       0.7127   0.6294   0.9644     C
C       0.7163   0.0002   0.0648     C
C       0.7163   0.2498   0.1852     C
C       0.7163   0.5002   0.5648     C
C       0.7163   0.7498   0.6852     C
H       0.7193   0.0384   0.0202     H
H       0.7193   0.2116   0.2298     H
H       0.7193   0.5384   0.5202     H
H       0.7193   0.7116   0.7298     H
N        0.731   0.3678    0.099     N
N        0.731   0.3822    0.651     N
N        0.731   0.8678    0.599     N
N        0.731   0.8822    0.151     N
C       0.7354   0.0433   0.7302     C
C       0.7354   0.2067   0.5198     C
C       0.7354   0.5433   0.2302     C
C       0.7354   0.7067   0.0198     C
H       0.7401    0.327   0.4455     H
H       0.7401    0.423   0.3045     H
H       0.7401    0.827   0.9455     H
H       0.7401    0.923   0.8045     H
N       0.7461     0.33    0.168     N
N       0.7461     0.42    0.582     N
N       0.7461     0.83    0.668     N
N       0.7461     0.92    0.082     N
N       0.7539     0.08    0.418     N
N       0.7539     0.17    0.832     N
N       0.7539     0.58    0.918     N
N       0.7539     0.67    0.332     N
H       0.7599    0.077   0.6955     H
H       0.7599    0.173   0.5545     H
H       0.7599    0.577   0.1955     H
H       0.7599    0.673   0.0545     H
C       0.7646   0.2933   0.4802     C
C       0.7646   0.4567   0.2698     C
C       0.7646   0.7933   0.9802     C
C       0.7646   0.9567   0.7698     C
N        0.769   0.1178    0.349     N
N        0.769   0.1322    0.901     N
N        0.769   0.6178    0.849     N
N        0.769   0.6322    0.401     N
H       0.7807   0.2884   0.7702     H
H       0.7807   0.4616   0.9798     H
H       0.7807   0.7884   0.2702     H
H       0.7807   0.9616   0.4798     H
C       0.7837   0.2502   0.8148     C
C       0.7837   0.4998   0.9352     C
C       0.7837   0.7502   0.3148     C
C       0.7837   0.9998   0.4352     C
C       0.7873   0.3706   0.5356     C
C       0.7873   0.3794   0.2144     C
C       0.7873   0.8706   0.0356     C
C       0.7873   0.8794   0.7144     C
H       0.7935   0.2656   0.4496     H
H       0.7935   0.4844   0.3004     H
H       0.7935   0.7656   0.9496     H
H       0.7935   0.9844   0.8004     H
H       0.8065   0.3283   0.2433     H
H       0.8065   0.4217   0.5067     H
H       0.8065   0.8283   0.7433     H
H       0.8065   0.9217   0.0067     H
C       0.8072   0.0565   0.3284     C
C       0.8072   0.1935   0.9216     C
C       0.8072   0.5565   0.8284     C
C       0.8072   0.6935   0.4216     C
H       0.8125   0.3374   0.5696     H
H       0.8125   0.4126   0.1804     H
H       0.8125   0.8374   0.0696     H
H       0.8125   0.9126   0.6804     H
N       0.8179   0.2673   0.8706     N
N       0.8179   0.4827   0.8794     N
N       0.8179   0.7673   0.3706     N
N       0.8179   0.9827   0.3794     N
H       0.8256   0.0633   0.2822     H
H       0.8256   0.1867   0.9678     H
H       0.8256   0.5633   0.7822     H
H       0.8256   0.6867   0.4678     H
Cu       0.875    0.375    0.875    Cu
Cu       0.875    0.875    0.375    Cu
H       0.9244   0.0633   0.4678     H
H       0.9244   0.1867   0.7822     H
H       0.9244   0.5633   0.9678     H
H       0.9244   0.6867   0.2822     H
N       0.9321   0.2673   0.8794     N
N       0.9321   0.4827   0.8706     N
N       0.9321   0.7673   0.3794     N
N       0.9321   0.9827   0.3706     N
H       0.9375   0.3374   0.1804     H
H       0.9375   0.4126   0.5696     H
H       0.9375   0.8374   0.6804     H
H       0.9375   0.9126   0.0696     H
C       0.9428   0.0565   0.4216     C
C       0.9428   0.1935   0.8284     C
C       0.9428   0.5565   0.9216     C
C       0.9428   0.6935   0.3284     C
H       0.9435   0.3283   0.5067     H
H       0.9435   0.4217   0.2433     H
H       0.9435   0.8283   0.0067     H
H       0.9435   0.9217   0.7433     H
H       0.9565   0.2656   0.3004     H
H       0.9565   0.4844   0.4496     H
H       0.9565   0.7656   0.8004     H
H       0.9565   0.9844   0.9496     H
C       0.9627   0.3706   0.2144     C
C       0.9627   0.3794   0.5356     C
C       0.9627   0.8706   0.7144     C
C       0.9627   0.8794   0.0356     C
C       0.9663   0.2502   0.9352     C
C       0.9663   0.4998   0.8148     C
C       0.9663   0.7502   0.4352     C
C       0.9663   0.9998   0.3148     C
H       0.9693   0.2884   0.9798     H
H       0.9693   0.4616   0.7702     H
H       0.9693   0.7884   0.4798     H
H       0.9693   0.9616   0.2702     H
N        0.981   0.1178    0.401     N
N        0.981   0.1322    0.849     N
N        0.981   0.6178    0.901     N
N        0.981   0.6322    0.349     N
C       0.9854   0.2933   0.2698     C
C       0.9854   0.4567   0.4802     C
C       0.9854   0.7933   0.7698     C
C       0.9854   0.9567   0.9802     C
H       0.9901    0.077   0.0545     H
H       0.9901    0.173   0.1955     H
H       0.9901    0.577   0.5545     H
H       0.9901    0.673   0.6955     H
N       0.9961     0.08    0.332     N
N       0.9961     0.17    0.918     N
N       0.9961     0.58    0.832     N
N       0.9961     0.67    0.418     N
