data_I
_chemical_name_common  '/home/zhangsd/repos/MofS-CGCNN/ML/data/TSD/clean_cifs/EBOBIJ_clean'
_cell_length_a  8.89790
_cell_length_b 21.45870
_cell_length_c 13.48510
_cell_angle_alpha 90.00000
_cell_angle_beta  96.78040
_cell_angle_gamma 90.00000
_space_group_name_H-M_alt      'P 1'


loop_
_space_group_symop_operation_xyz
  'x, y, z' 

loop_
_atom_site_label
_atom_site_fract_x
_atom_site_fract_y
_atom_site_fract_z
_atom_site_type_symbol
Zn         0.0  0.14732     0.75    Zn
Zn         0.0  0.85268     0.25    Zn
H       0.0048    0.027    0.639     H
H       0.0048    0.973    0.139     H
H       0.0178    0.401   0.3819     H
H       0.0178    0.599   0.8819     H
C       0.0672   0.4923   0.9908     C
C       0.0672   0.5077   0.4908     C
C       0.1023  0.04151   0.6348     C
C       0.1023  0.95849   0.1348     C
O       0.1028  0.20593  0.84632     O
O       0.1028  0.79407  0.34632     O
H       0.1084   0.4558   0.0194     H
H       0.1084   0.5442   0.5194     H
C       0.1143  0.41678   0.3781     C
C       0.1143  0.58322   0.8781     C
N       0.1467   0.0949  0.68182     N
N       0.1467   0.9051  0.18182     N
C       0.1598  0.47146   0.4274     C
C       0.1598  0.52854   0.9274     C
H       0.1617   0.0294   0.0497     H
H       0.1617   0.9706   0.5497     H
H       0.1716   0.2984    0.954     H
H       0.1716   0.7016    0.454     H
H       0.1792   0.3501   0.2886     H
H       0.1792   0.6499   0.7886     H
C       0.1871  0.17905   0.9168     C
C       0.1871  0.82095   0.4168     C
C       0.1959   0.0075   0.5807     C
C       0.1959   0.9925   0.0807     C
O       0.2071  0.12298   0.9219     O
O       0.2071  0.87702   0.4219     O
C       0.2128   0.3859   0.3233     C
C       0.2128   0.6141   0.8233     C
C        0.239  0.27991   0.0033     C
C        0.239  0.72009   0.5033     C
C        0.261  0.22009   0.9967     C
C        0.261  0.77991   0.4967     C
C       0.2872   0.1141   0.6767     C
C       0.2872   0.8859   0.1767     C
O       0.2929  0.37702   0.0781     O
O       0.2929  0.62298   0.5781     O
C       0.3041   0.4925   0.4193     C
C       0.3041   0.5075   0.9193     C
C       0.3129  0.32095   0.0832     C
C       0.3129  0.67905   0.5832     C
H       0.3208   0.1499   0.7114     H
H       0.3208   0.8501   0.2114     H
H       0.3284   0.2016    0.046     H
H       0.3284   0.7984    0.546     H
H       0.3383   0.4706   0.9503     H
H       0.3383   0.5294   0.4503     H
C       0.3402  0.02854   0.5726     C
C       0.3402  0.97146   0.0726     C
N       0.3533   0.4051  0.31818     N
N       0.3533   0.5949  0.81818     N
C       0.3857  0.08322   0.6219     C
C       0.3857  0.91678   0.1219     C
H       0.3916   0.0442   0.9806     H
H       0.3916   0.9558   0.4806     H
O       0.3972  0.29407  0.15368     O
O       0.3972  0.70593  0.65368     O
C       0.3977  0.45849   0.3652     C
C       0.3977  0.54151   0.8652     C
C       0.4328   0.0077   0.0092     C
C       0.4328   0.9923   0.5092     C
H       0.4822    0.099   0.6181     H
H       0.4822    0.901   0.1181     H
H       0.4952    0.473    0.361     H
H       0.4952    0.527    0.861     H
Zn         0.5  0.35268     0.25    Zn
Zn         0.5  0.64732     0.75    Zn
H       0.5048    0.473    0.139     H
H       0.5048    0.527    0.639     H
H       0.5178    0.099   0.8819     H
H       0.5178    0.901   0.3819     H
C       0.5672   0.0077   0.4908     C
C       0.5672   0.9923   0.9908     C
C       0.6023  0.45849   0.1348     C
C       0.6023  0.54151   0.6348     C
O       0.6028  0.29407  0.34632     O
O       0.6028  0.70593  0.84632     O
H       0.6084   0.0442   0.5194     H
H       0.6084   0.9558   0.0194     H
C       0.6143  0.08322   0.8781     C
C       0.6143  0.91678   0.3781     C
N       0.6467   0.4051  0.18182     N
N       0.6467   0.5949  0.68182     N
C       0.6598  0.02854   0.9274     C
C       0.6598  0.97146   0.4274     C
H       0.6617   0.4706   0.5497     H
H       0.6617   0.5294   0.0497     H
H       0.6716   0.2016    0.454     H
H       0.6716   0.7984    0.954     H
H       0.6792   0.1499   0.7886     H
H       0.6792   0.8501   0.2886     H
C       0.6871  0.32095   0.4168     C
C       0.6871  0.67905   0.9168     C
C       0.6959   0.4925   0.0807     C
C       0.6959   0.5075   0.5807     C
O       0.7071  0.37702   0.4219     O
O       0.7071  0.62298   0.9219     O
C       0.7128   0.1141   0.8233     C
C       0.7128   0.8859   0.3233     C
C        0.739  0.22009   0.5033     C
C        0.739  0.77991   0.0033     C
C        0.761  0.27991   0.4967     C
C        0.761  0.72009   0.9967     C
C       0.7872   0.3859   0.1767     C
C       0.7872   0.6141   0.6767     C
O       0.7929  0.12298   0.5781     O
O       0.7929  0.87702   0.0781     O
C       0.8041   0.0075   0.9193     C
C       0.8041   0.9925   0.4193     C
C       0.8129  0.17905   0.5832     C
C       0.8129  0.82095   0.0832     C
H       0.8208   0.3501   0.2114     H
H       0.8208   0.6499   0.7114     H
H       0.8284   0.2984    0.546     H
H       0.8284   0.7016    0.046     H
H       0.8383   0.0294   0.4503     H
H       0.8383   0.9706   0.9503     H
C       0.8402  0.47146   0.0726     C
C       0.8402  0.52854   0.5726     C
N       0.8533   0.0949  0.81818     N
N       0.8533   0.9051  0.31818     N
C       0.8857  0.41678   0.1219     C
C       0.8857  0.58322   0.6219     C
H       0.8916   0.4558   0.4806     H
H       0.8916   0.5442   0.9806     H
O       0.8972  0.20593  0.65368     O
O       0.8972  0.79407  0.15368     O
C       0.8977  0.04151   0.8652     C
C       0.8977  0.95849   0.3652     C
C       0.9328   0.4923   0.5092     C
C       0.9328   0.5077   0.0092     C
H       0.9822    0.401   0.1181     H
H       0.9822    0.599   0.6181     H
H       0.9952    0.027    0.861     H
H       0.9952    0.973    0.361     H
