data_I
_chemical_name_common  '/home/zhangsd/repos/MofS-CGCNN/ML/data/TSD/clean_cifs/EBOJOV_clean'
_cell_length_a 25.95300
_cell_length_b 11.01500
_cell_length_c 13.24600
_cell_angle_alpha 90.00000
_cell_angle_beta  119.16000
_cell_angle_gamma 90.00000
_space_group_name_H-M_alt      'P 1'


loop_
_space_group_symop_operation_xyz
  'x, y, z' 

loop_
_atom_site_label
_atom_site_fract_x
_atom_site_fract_y
_atom_site_fract_z
_atom_site_type_symbol
O          0.0      0.0      0.0     O
Eu         0.0   0.2592      0.0    Eu
O          0.0      0.5      0.0     O
Eu         0.0   0.7408      0.0    Eu
Eu      0.0063      0.5   0.2072    Eu
O        0.011    0.149     0.17     O
O        0.011    0.851     0.17     O
O        0.033     0.32    0.361     O
O        0.033     0.68    0.361     O
C        0.053    0.134    0.496     C
C        0.053    0.866    0.496     C
C        0.064    0.212    0.411     C
C        0.064    0.788    0.411     C
O        0.066    0.274     0.68     O
O        0.066    0.361     0.93     O
O        0.066    0.639     0.93     O
O        0.066    0.726     0.68     O
O        0.067      0.5    0.743     O
O        0.074    0.363    0.182     O
O        0.074    0.637    0.182     O
Eu      0.0788      0.0   0.9171    Eu
O        0.093    0.132    0.076     O
O        0.093    0.868    0.076     O
Eu      0.0936      0.0   0.2266    Eu
C        0.094    0.183    0.705     C
C        0.094    0.817    0.705     C
O        0.095     0.16    0.364     O
O        0.095     0.84    0.364     O
C        0.099    0.124    0.615     C
C        0.099    0.876    0.615     C
O        0.101     0.13    0.797     O
O        0.101     0.87    0.797     O
Eu      0.1152      0.5   0.0978    Eu
C        0.122      0.5    0.816     C
O        0.138      0.5    0.927     O
C        0.163      0.5    0.769     C
O        0.187      0.0    0.015     O
C        0.221      0.5    0.826     C
O        0.235      0.5    0.013     O
C        0.244      0.0    0.056     C
C        0.256      0.5    0.944     C
O        0.265      0.0    0.987     O
C        0.279      0.0    0.174     C
O        0.313      0.5    0.985     O
C        0.337      0.0    0.231     C
O        0.362      0.0    0.073     O
C        0.378      0.0    0.184     C
Eu      0.3848      0.0   0.9022    Eu
O        0.399     0.37    0.203     O
O        0.399     0.63    0.203     O
C        0.401    0.376    0.385     C
C        0.401    0.624    0.385     C
O        0.405     0.34    0.636     O
O        0.405     0.66    0.636     O
C        0.406    0.317    0.295     C
C        0.406    0.683    0.295     C
Eu      0.4064      0.5   0.7734    Eu
O        0.407    0.368    0.924     O
O        0.407    0.632    0.924     O
Eu      0.4212      0.5   0.0829    Eu
O        0.426    0.137    0.818     O
O        0.426    0.863    0.818     O
O        0.433      0.0    0.257     O
O        0.434    0.139     0.07     O
O        0.434    0.226     0.32     O
O        0.434    0.774     0.32     O
O        0.434    0.861     0.07     O
C        0.436    0.288    0.589     C
C        0.436    0.712    0.589     C
C        0.447    0.366    0.504     C
C        0.447    0.634    0.504     C
O        0.467     0.18    0.639     O
O        0.467     0.82    0.639     O
O        0.489    0.351     0.83     O
O        0.489    0.649     0.83     O
Eu      0.4937      0.0   0.7928    Eu
O          0.5      0.0      0.0     O
Eu         0.5   0.2408      0.0    Eu
O          0.5      0.5      0.0     O
Eu         0.5   0.7592      0.0    Eu
Eu      0.5063      0.0   0.2072    Eu
O        0.511    0.351     0.17     O
O        0.511    0.649     0.17     O
O        0.533     0.18    0.361     O
O        0.533     0.82    0.361     O
C        0.553    0.366    0.496     C
C        0.553    0.634    0.496     C
C        0.564    0.288    0.411     C
C        0.564    0.712    0.411     C
O        0.566    0.139     0.93     O
O        0.566    0.226     0.68     O
O        0.566    0.774     0.68     O
O        0.566    0.861     0.93     O
O        0.567      0.0    0.743     O
O        0.574    0.137    0.182     O
O        0.574    0.863    0.182     O
Eu      0.5788      0.5   0.9171    Eu
O        0.593    0.368    0.076     O
O        0.593    0.632    0.076     O
Eu      0.5936      0.5   0.2266    Eu
C        0.594    0.317    0.705     C
C        0.594    0.683    0.705     C
O        0.595     0.34    0.364     O
O        0.595     0.66    0.364     O
C        0.599    0.376    0.615     C
C        0.599    0.624    0.615     C
O        0.601     0.37    0.797     O
O        0.601     0.63    0.797     O
Eu      0.6152      0.0   0.0978    Eu
C        0.622      0.0    0.816     C
O        0.638      0.0    0.927     O
C        0.663      0.0    0.769     C
O        0.687      0.5    0.015     O
C        0.721      0.0    0.826     C
O        0.735      0.0    0.013     O
C        0.744      0.5    0.056     C
C        0.756      0.0    0.944     C
O        0.765      0.5    0.987     O
C        0.779      0.5    0.174     C
O        0.813      0.0    0.985     O
C        0.837      0.5    0.231     C
O        0.862      0.5    0.073     O
C        0.878      0.5    0.184     C
Eu      0.8848      0.5   0.9022    Eu
O        0.899     0.13    0.203     O
O        0.899     0.87    0.203     O
C        0.901    0.124    0.385     C
C        0.901    0.876    0.385     C
O        0.905     0.16    0.636     O
O        0.905     0.84    0.636     O
C        0.906    0.183    0.295     C
C        0.906    0.817    0.295     C
Eu      0.9064      0.0   0.7734    Eu
O        0.907    0.132    0.924     O
O        0.907    0.868    0.924     O
Eu      0.9212      0.0   0.0829    Eu
O        0.926    0.363    0.818     O
O        0.926    0.637    0.818     O
O        0.933      0.5    0.257     O
O        0.934    0.274     0.32     O
O        0.934    0.361     0.07     O
O        0.934    0.639     0.07     O
O        0.934    0.726     0.32     O
C        0.936    0.212    0.589     C
C        0.936    0.788    0.589     C
C        0.947    0.134    0.504     C
C        0.947    0.866    0.504     C
O        0.967     0.32    0.639     O
O        0.967     0.68    0.639     O
O        0.989    0.149     0.83     O
O        0.989    0.851     0.83     O
Eu      0.9937      0.5   0.7928    Eu
