data_I
_chemical_name_common  '/home/zhangsd/repos/MofS-CGCNN/ML/data/TSD/clean_cifs/ECIWOC_clean'
_cell_length_a  6.78020
_cell_length_b 22.02780
_cell_length_c 24.39920
_cell_angle_alpha 105.09600
_cell_angle_beta  90.00000
_cell_angle_gamma 90.00000
_space_group_name_H-M_alt      'P 1'


loop_
_space_group_symop_operation_xyz
  'x, y, z' 

loop_
_atom_site_label
_atom_site_fract_x
_atom_site_fract_y
_atom_site_fract_z
_atom_site_type_symbol
C       0.0065   0.2259   0.7129     C
C        0.008   0.6048   0.9222     C
C       0.0106   0.9909   0.5933     C
H       0.0119   0.5151   0.9316     H
Zn     0.02504  0.26492  0.08171    Zn
Zn     0.02972  0.23876   0.9367    Zn
C       0.0298    0.862   0.4564     C
C       0.0337   0.8879   0.0751     C
H       0.0342   0.4179   0.6066     H
H       0.0367   0.0006   0.9429     H
C       0.0387   0.2848    0.704     C
H         0.04    0.219    0.005     H
H       0.0451   0.8335   0.8605     H
C       0.0522    0.743   0.6925     C
C       0.0564   0.9029   0.4212     C
C       0.0593    0.787   0.6608     C
H       0.0603   0.6247   0.2753     H
C       0.0788   0.0442   0.5786     C
H       0.0801   0.1327   0.5187     H
C       0.0805   0.5365   0.6017     C
H       0.0849   0.9048    0.601     H
C       0.0852   0.6653     0.27     C
H       0.0869   0.1766   0.3935     H
H       0.0915   0.1918   0.6961     H
C       0.0921   0.5473   0.9238     C
C       0.0932   0.3919    0.462     C
C       0.0948   0.2071   0.3724     C
C       0.0963   0.6234   0.5599     C
C       0.0992   0.9963   0.0655     C
C        0.103   0.5866   0.4013     C
C       0.1071   0.4802   0.4206     C
N       0.1108   0.6507  0.90998     N
H       0.1149   0.3088   0.8474     H
C       0.1188   0.2922   0.3113     C
O        0.119  0.83893  0.08191     O
H       0.1212   0.6741   0.3919     H
H       0.1231   0.0113   0.3958     H
O       0.1233  0.71036  0.51939     O
O       0.1266  0.68927  0.07129     O
H       0.1287   0.3888   0.0699     H
H       0.1313   0.3222   0.2898     H
C       0.1355   0.9413    0.592     C
H       0.1406   0.5124   0.6243     H
H       0.1414   0.7881   0.4792     H
O       0.1438   0.1089   0.9346     O
C       0.1488    0.783   0.2539     C
H       0.1541    0.367   0.4838     H
C       0.1541   0.8411   0.8858     C
O       0.1585  0.25575  0.01037     O
C       0.1623   0.8145   0.4546     C
C       0.1677   0.9431   0.0781     C
H       0.1703   0.8235   0.2483     H
H       0.1726   0.8128   0.6624     H
H       0.1737   0.6392   0.7206     H
H       0.1742   0.0814   0.0541     H
H       0.1797   0.4519   0.9675     H
N       0.1806   0.8033  0.92022     N
C       0.1809    0.587   0.5921     C
H       0.1909   0.5969   0.1075     H
C       0.1916   0.4423   0.4523     C
C       0.1969   0.6413   0.4001     C
O       0.1991   0.2472  0.13962     O
C       0.2008   0.2946   0.6654     C
C       0.2034   0.6786   0.5483     C
C       0.2075   0.5372   0.4142     C
C       0.2209   0.8911   0.3855     C
C       0.2218   0.7331   0.7277     C
C       0.2247   0.0458   0.0646     C
O        0.228   0.3485   0.6591     O
C       0.2307    0.284   0.8457     C
N       0.2399   0.2425  0.87708     N
C       0.2422   0.6735   0.2371     C
H       0.2474   0.9172    0.361     H
H       0.2526   0.9172    0.861     H
C       0.2578   0.6735   0.7371     C
N       0.2601   0.2425  0.37708     N
C       0.2693    0.284   0.3457     C
O        0.272   0.3485   0.1591     O
C       0.2753   0.0458   0.5646     C
C       0.2782   0.7331   0.2277     C
C       0.2791   0.8911   0.8855     C
C       0.2925   0.5372   0.9142     C
C       0.2966   0.6786   0.0483     C
C       0.2992   0.2946   0.1654     C
O       0.3009   0.2472  0.63962     O
C       0.3031   0.6413   0.9001     C
C       0.3084   0.4423   0.9523     C
H       0.3091   0.5969   0.6075     H
C       0.3191    0.587   0.0921     C
N       0.3194   0.8033  0.42022     N
H       0.3203   0.4519   0.4675     H
H       0.3258   0.0814   0.5541     H
H       0.3263   0.6392   0.2206     H
H       0.3274   0.8128   0.1624     H
H       0.3297   0.8235   0.7483     H
C       0.3323   0.9431   0.5781     C
C       0.3377   0.8145   0.9546     C
O       0.3415  0.25575  0.51037     O
H       0.3459    0.367   0.9838     H
C       0.3459   0.8411   0.3858     C
C       0.3512    0.783   0.7539     C
O       0.3562   0.1089   0.4346     O
H       0.3586   0.7881   0.9792     H
H       0.3594   0.5124   0.1243     H
C       0.3645   0.9413    0.092     C
H       0.3687   0.3222   0.7898     H
H       0.3713   0.3888   0.5699     H
O       0.3734  0.68927  0.57129     O
O       0.3767  0.71036  0.01939     O
H       0.3769   0.0113   0.8958     H
H       0.3788   0.6741   0.8919     H
O        0.381  0.83893  0.58191     O
C       0.3812   0.2922   0.8113     C
H       0.3851   0.3088   0.3474     H
N       0.3892   0.6507  0.40998     N
C       0.3929   0.4802   0.9206     C
C        0.397   0.5866   0.9013     C
C       0.4008   0.9963   0.5655     C
C       0.4037   0.6234   0.0599     C
C       0.4052   0.2071   0.8724     C
C       0.4068   0.3919    0.962     C
C       0.4079   0.5473   0.4238     C
H       0.4085   0.1918   0.1961     H
H       0.4131   0.1766   0.8935     H
C       0.4148   0.6653     0.77     C
H       0.4151   0.9048    0.101     H
C       0.4195   0.5365   0.1017     C
H       0.4199   0.1327   0.0187     H
C       0.4212   0.0442   0.0786     C
H       0.4397   0.6247   0.7753     H
C       0.4407    0.787   0.1608     C
C       0.4436   0.9029   0.9212     C
C       0.4478    0.743   0.1925     C
H       0.4549   0.8335   0.3605     H
H         0.46    0.219    0.505     H
C       0.4613   0.2848    0.204     C
H       0.4633   0.0006   0.4429     H
H       0.4658   0.4179   0.1066     H
C       0.4663   0.8879   0.5751     C
C       0.4702    0.862   0.9564     C
Zn     0.47028  0.23876   0.4367    Zn
Zn     0.47496  0.26492  0.58171    Zn
H       0.4881   0.5151   0.4316     H
C       0.4894   0.9909   0.0933     C
C        0.492   0.6048   0.4222     C
C       0.4935   0.2259   0.2129     C
C       0.5065   0.7741   0.7871     C
C        0.508   0.3952   0.5778     C
C       0.5106   0.0091   0.9067     C
H       0.5119   0.4849   0.5684     H
Zn     0.52504  0.73508  0.41829    Zn
Zn     0.52972  0.76124   0.5633    Zn
C       0.5298    0.138   0.0436     C
C       0.5337   0.1121   0.4249     C
H       0.5342   0.5821   0.8934     H
H       0.5367   0.9994   0.5571     H
C       0.5387   0.7152    0.796     C
H         0.54    0.781    0.495     H
H       0.5451   0.1665   0.6395     H
C       0.5522    0.257   0.8075     C
C       0.5564   0.0971   0.0788     C
C       0.5593    0.213   0.8392     C
H       0.5603   0.3753   0.2247     H
C       0.5788   0.9558   0.9214     C
H       0.5801   0.8673   0.9813     H
C       0.5805   0.4635   0.8983     C
H       0.5849   0.0952    0.899     H
C       0.5852   0.3347     0.23     C
H       0.5869   0.8234   0.1065     H
H       0.5915   0.8082   0.8039     H
C       0.5921   0.4527   0.5762     C
C       0.5932   0.6081    0.038     C
C       0.5948   0.7929   0.1276     C
C       0.5963   0.3766   0.9401     C
C       0.5992   0.0037   0.4345     C
C        0.603   0.4134   0.0987     C
C       0.6071   0.5198   0.0794     C
N       0.6108   0.3493  0.59002     N
H       0.6149   0.6912   0.6526     H
C       0.6188   0.7078   0.1887     C
O        0.619  0.16107  0.41809     O
H       0.6212   0.3259   0.1081     H
H       0.6231   0.9887   0.1042     H
O       0.6233  0.28964  0.98061     O
O       0.6266  0.31073  0.42871     O
H       0.6287   0.6112   0.4301     H
H       0.6313   0.6778   0.2102     H
C       0.6355   0.0587    0.908     C
H       0.6406   0.4876   0.8757     H
H       0.6414   0.2119   0.0208     H
O       0.6438   0.8911   0.5654     O
C       0.6488    0.217   0.2461     C
C       0.6541   0.1589   0.6142     C
H       0.6541    0.633   0.0162     H
O       0.6585  0.74425  0.48963     O
C       0.6623   0.1855   0.0454     C
C       0.6677   0.0569   0.4219     C
H       0.6703   0.1765   0.2517     H
H       0.6726   0.1872   0.8376     H
H       0.6737   0.3608   0.7794     H
H       0.6742   0.9186   0.4459     H
H       0.6797   0.5481   0.5325     H
N       0.6806   0.1967  0.57978     N
C       0.6809    0.413   0.9079     C
H       0.6909   0.4031   0.3925     H
C       0.6916   0.5577   0.0477     C
C       0.6969   0.3587   0.0999     C
O       0.6991   0.7528  0.36038     O
C       0.7008   0.7054   0.8346     C
C       0.7034   0.3214   0.9517     C
C       0.7075   0.4628   0.0858     C
C       0.7209   0.1089   0.1145     C
C       0.7218   0.2669   0.7723     C
C       0.7247   0.9542   0.4354     C
O        0.728   0.6515   0.8409     O
C       0.7307    0.716   0.6543     C
N       0.7399   0.7575  0.62292     N
C       0.7422   0.3265   0.2629     C
H       0.7474   0.0828    0.139     H
H       0.7526   0.0828    0.639     H
C       0.7578   0.3265   0.7629     C
N       0.7601   0.7575  0.12292     N
C       0.7693    0.716   0.1543     C
O        0.772   0.6515   0.3409     O
C       0.7753   0.9542   0.9354     C
C       0.7782   0.2669   0.2723     C
C       0.7791   0.1089   0.6145     C
C       0.7925   0.4628   0.5858     C
C       0.7966   0.3214   0.4517     C
C       0.7992   0.7054   0.3346     C
O       0.8009   0.7528  0.86038     O
C       0.8031   0.3587   0.5999     C
C       0.8084   0.5577   0.5477     C
H       0.8091   0.4031   0.8925     H
C       0.8191    0.413   0.4079     C
N       0.8194   0.1967  0.07978     N
H       0.8203   0.5481   0.0325     H
H       0.8258   0.9186   0.9459     H
H       0.8263   0.3608   0.2794     H
H       0.8274   0.1872   0.3376     H
H       0.8297   0.1765   0.7517     H
C       0.8323   0.0569   0.9219     C
C       0.8377   0.1855   0.5454     C
O       0.8415  0.74425  0.98963     O
C       0.8459   0.1589   0.1142     C
H       0.8459    0.633   0.5162     H
C       0.8512    0.217   0.7461     C
O       0.8562   0.8911   0.0654     O
H       0.8586   0.2119   0.5208     H
H       0.8594   0.4876   0.3757     H
C       0.8645   0.0587    0.408     C
H       0.8687   0.6778   0.7102     H
H       0.8713   0.6112   0.9301     H
O       0.8734  0.31073  0.92871     O
O       0.8767  0.28964  0.48061     O
H       0.8769   0.9887   0.6042     H
H       0.8788   0.3259   0.6081     H
O        0.881  0.16107  0.91809     O
C       0.8812   0.7078   0.6887     C
H       0.8851   0.6912   0.1526     H
N       0.8892   0.3493  0.09002     N
C       0.8929   0.5198   0.5794     C
C        0.897   0.4134   0.5987     C
C       0.9008   0.0037   0.9345     C
C       0.9037   0.3766   0.4401     C
C       0.9052   0.7929   0.6276     C
C       0.9068   0.6081    0.538     C
C       0.9079   0.4527   0.0762     C
H       0.9085   0.8082   0.3039     H
H       0.9131   0.8234   0.6065     H
C       0.9148   0.3347     0.73     C
H       0.9151   0.0952    0.399     H
C       0.9195   0.4635   0.3983     C
H       0.9199   0.8673   0.4813     H
C       0.9212   0.9558   0.4214     C
H       0.9397   0.3753   0.7247     H
C       0.9407    0.213   0.3392     C
C       0.9436   0.0971   0.5788     C
C       0.9478    0.257   0.3075     C
H       0.9549   0.1665   0.1395     H
H         0.96    0.781    0.995     H
C       0.9613   0.7152    0.296     C
H       0.9633   0.9994   0.0571     H
H       0.9658   0.5821   0.3934     H
C       0.9663   0.1121   0.9249     C
C       0.9702    0.138   0.5436     C
Zn     0.97028  0.76124   0.0633    Zn
Zn     0.97496  0.73508  0.91829    Zn
H       0.9881   0.4849   0.0684     H
C       0.9894   0.0091   0.4067     C
C        0.992   0.3952   0.0778     C
C       0.9935   0.7741   0.2871     C
