data_I
_chemical_name_common  '/home/zhangsd/repos/MofS-CGCNN/ML/data/TSD/clean_cifs/ECORIX_clean'
_cell_length_a  7.69400
_cell_length_b  9.21000
_cell_length_c 10.76400
_cell_angle_alpha 108.59800
_cell_angle_beta  92.30000
_cell_angle_gamma 109.81400
_space_group_name_H-M_alt      'P 1'


loop_
_space_group_symop_operation_xyz
  'x, y, z' 

loop_
_atom_site_label
_atom_site_fract_x
_atom_site_fract_y
_atom_site_fract_z
_atom_site_type_symbol
O       0.1092   0.0517   0.9237     O
O       0.1473   0.1891   0.3238     O
Ni     0.14973  0.13415  0.12783    Ni
H       0.1799    0.014   0.5854     H
H       0.1954   0.8612   0.0829     H
C       0.2009   0.1891   0.7681     C
C       0.2192   0.2275   0.5495     C
C       0.2401   0.1014   0.8588     C
C       0.2472   0.1655   0.4054     C
C       0.2545   0.1278   0.6297     C
H       0.2738   0.4113   0.9221     H
O        0.285   0.9709   0.1198     O
C       0.2969   0.4786   0.7571     C
C       0.3164   0.3749   0.8404     C
H       0.3272   0.4723   0.5659     H
H        0.339    0.991   0.2072     H
C       0.3461   0.4112   0.6182     C
O       0.3605   0.7647   0.8748     O
O       0.3633   0.1003   0.3743     O
H       0.3829   0.1419    0.639     H
O       0.3949     0.09   0.8728     O
O       0.3965   0.3173   0.1555     O
C       0.4338   0.6564   0.8311     C
H       0.4445   0.3901   0.8576     H
H       0.4737   0.4217   0.6267     H
Ni         0.5      0.0      0.0    Ni
H       0.5263   0.5783   0.3733     H
H       0.5555   0.6099   0.1424     H
C       0.5662   0.3436   0.1689     C
O       0.6035   0.6827   0.8445     O
O       0.6051     0.91   0.1272     O
H       0.6171   0.8581    0.361     H
O       0.6367   0.8997   0.6257     O
O       0.6395   0.2353   0.1252     O
C       0.6539   0.5888   0.3818     C
H        0.661    0.009   0.7928     H
H       0.6728   0.5277   0.4341     H
C       0.6836   0.6251   0.1596     C
C       0.7031   0.5214   0.2429     C
O        0.715   0.0291   0.8802     O
H       0.7262   0.5887   0.0779     H
C       0.7455   0.8722   0.3703     C
C       0.7528   0.8345   0.5946     C
C       0.7599   0.8986   0.1412     C
C       0.7808   0.7725   0.4505     C
C       0.7991   0.8109   0.2319     C
H       0.8046   0.1388   0.9171     H
H       0.8201    0.986   0.4146     H
Ni     0.85027  0.86585  0.87217    Ni
O       0.8527   0.8109   0.6762     O
O       0.8908   0.9483   0.0763     O
