data_I
_chemical_name_common  '/home/zhangsd/repos/MofS-CGCNN/ML/data/TSD/clean_cifs/EDIKIL_clean'
_cell_length_a 11.55160
_cell_length_b 17.16770
_cell_length_c  8.71850
_cell_angle_alpha 90.00000
_cell_angle_beta  130.63500
_cell_angle_gamma 90.00000
_space_group_name_H-M_alt      'P 1'


loop_
_space_group_symop_operation_xyz
  'x, y, z' 

loop_
_atom_site_label
_atom_site_fract_x
_atom_site_fract_y
_atom_site_fract_z
_atom_site_type_symbol
C        0.019   0.4806   0.1056     C
C        0.019   0.5194   0.6056     C
O       0.0238   0.2635   0.9722     O
O       0.0238   0.7365   0.4722     O
O       0.0685   0.4241   0.0843     O
O       0.0685   0.5759   0.5843     O
O       0.0722   0.4834     0.77     O
O       0.0722   0.5166     0.27     O
C       0.1529   0.2283   0.0495     C
C       0.1529   0.7717   0.5495     C
O       0.1706   0.3295   0.8615     O
O       0.1706   0.6705   0.3615     O
O       0.2081    0.175   0.1524     O
O       0.2081    0.825   0.6524     O
C       0.2371   0.2657   0.9842     C
C       0.2371   0.7343   0.4842     C
O       0.3093   0.0176    0.253     O
O       0.3093   0.9824    0.753     O
O       0.3185   0.0784    0.933     O
O       0.3185   0.9216    0.433     O
O       0.3523   0.2369   0.0384     O
O       0.3523   0.7631   0.5384     O
C       0.3714   0.0156    0.913     C
C       0.3714   0.9844    0.413     C
Y        0.441    0.128   0.2605     Y
Y        0.441    0.872   0.7605     Y
C        0.519   0.0194   0.6056     C
C        0.519   0.9806   0.1056     C
O       0.5238   0.2365   0.4722     O
O       0.5238   0.7635   0.9722     O
O       0.5685   0.0759   0.5843     O
O       0.5685   0.9241   0.0843     O
O       0.5722   0.0166     0.27     O
O       0.5722   0.9834     0.77     O
C       0.6529   0.2717   0.5495     C
C       0.6529   0.7283   0.0495     C
O       0.6706   0.1705   0.3615     O
O       0.6706   0.8295   0.8615     O
O       0.7081    0.325   0.6524     O
O       0.7081    0.675   0.1524     O
C       0.7371   0.2343   0.4842     C
C       0.7371   0.7657   0.9842     C
O       0.8093   0.4824    0.753     O
O       0.8093   0.5176    0.253     O
O       0.8185   0.4216    0.433     O
O       0.8185   0.5784    0.933     O
O       0.8523   0.2631   0.5384     O
O       0.8523   0.7369   0.0384     O
C       0.8714   0.4844    0.413     C
C       0.8714   0.5156    0.913     C
Y        0.941    0.372   0.7605     Y
Y        0.941    0.628   0.2605     Y
