data_I
_chemical_name_common  '/home/zhangsd/repos/MofS-CGCNN/ML/data/TSD/clean_cifs/EFILUA_clean'
_cell_length_a 18.03500
_cell_length_b 10.51300
_cell_length_c 14.29300
_cell_angle_alpha 90.00000
_cell_angle_beta  90.00000
_cell_angle_gamma 90.00000
_space_group_name_H-M_alt      'P 1'


loop_
_space_group_symop_operation_xyz
  'x, y, z' 

loop_
_atom_site_label
_atom_site_fract_x
_atom_site_fract_y
_atom_site_fract_z
_atom_site_type_symbol
O       0.0057   0.1813   0.5379     O
O       0.0057   0.6813   0.0379     O
P       0.0751   0.3576   0.0444     P
P       0.0751   0.8576   0.5444     P
O       0.0859   0.4814   0.0991     O
O       0.0859   0.9814   0.5991     O
O       0.1026   0.3807   0.9447     O
O       0.1026   0.8807   0.4447     O
Ga      0.1093   0.1464   0.5575    Ga
Ga      0.1093   0.6464   0.0575    Ga
O       0.1156   0.3146   0.5947     O
O       0.1156   0.8146   0.0947     O
O       0.1183   0.2487   0.0884     O
O       0.1183   0.7487   0.5884     O
O       0.1328   0.1608     0.43     O
O       0.1328   0.6608     0.93     O
O       0.1525   0.3376   0.7579     O
O       0.1525   0.8376   0.2579     O
O       0.1556   0.0281   0.1511     O
O       0.1556   0.5281   0.6511     O
P       0.1693   0.3866   0.6598     P
P       0.1693   0.8866   0.1598     P
Ga       0.185   0.3755   0.8747    Ga
Ga       0.185   0.8755   0.3747    Ga
O       0.1884   0.2138   0.2782     O
O       0.1884   0.7138   0.7782     O
Ga      0.2028   0.1921   0.1485    Ga
Ga      0.2028   0.6921   0.6485    Ga
P       0.2042   0.1605   0.3747     P
P       0.2042   0.6605   0.8747     P
O       0.2085   0.1119   0.6106     O
O       0.2085   0.6119   0.1106     O
O       0.2361   0.0257   0.3716     O
O       0.2361   0.5257   0.8716     O
O       0.2386   0.2438   0.9239     O
O       0.2386   0.7438   0.4239     O
O       0.2496   0.3576    0.636     O
O       0.2496   0.8576    0.136     O
O       0.2504   0.3576    0.136     O
O       0.2504   0.8576    0.636     O
O       0.2614   0.2438   0.4239     O
O       0.2614   0.7438   0.9239     O
O       0.2639   0.0257   0.8716     O
O       0.2639   0.5257   0.3716     O
O       0.2915   0.1119   0.1106     O
O       0.2915   0.6119   0.6106     O
P       0.2958   0.1605   0.8747     P
P       0.2958   0.6605   0.3747     P
Ga      0.2972   0.1921   0.6485    Ga
Ga      0.2972   0.6921   0.1485    Ga
O       0.3116   0.2138   0.7782     O
O       0.3116   0.7138   0.2782     O
Ga       0.315   0.3755   0.3747    Ga
Ga       0.315   0.8755   0.8747    Ga
P       0.3307   0.3866   0.1598     P
P       0.3307   0.8866   0.6598     P
O       0.3444   0.0281   0.6511     O
O       0.3444   0.5281   0.1511     O
O       0.3475   0.3376   0.2579     O
O       0.3475   0.8376   0.7579     O
O       0.3672   0.1608     0.93     O
O       0.3672   0.6608     0.43     O
O       0.3817   0.2487   0.5884     O
O       0.3817   0.7487   0.0884     O
O       0.3844   0.3146   0.0947     O
O       0.3844   0.8146   0.5947     O
Ga      0.3907   0.1464   0.0575    Ga
Ga      0.3907   0.6464   0.5575    Ga
O       0.3974   0.3807   0.4447     O
O       0.3974   0.8807   0.9447     O
O       0.4141   0.4814   0.5991     O
O       0.4141   0.9814   0.0991     O
P       0.4249   0.3576   0.5444     P
P       0.4249   0.8576   0.0444     P
O       0.4943   0.1813   0.0379     O
O       0.4943   0.6813   0.5379     O
O       0.5057   0.3187   0.5379     O
O       0.5057   0.8187   0.0379     O
P       0.5751   0.1424   0.0444     P
P       0.5751   0.6424   0.5444     P
O       0.5859   0.0186   0.0991     O
O       0.5859   0.5186   0.5991     O
O       0.6026   0.1193   0.9447     O
O       0.6026   0.6193   0.4447     O
Ga      0.6093   0.3536   0.5575    Ga
Ga      0.6093   0.8536   0.0575    Ga
O       0.6156   0.1854   0.5947     O
O       0.6156   0.6854   0.0947     O
O       0.6183   0.2513   0.0884     O
O       0.6183   0.7513   0.5884     O
O       0.6328   0.3392     0.43     O
O       0.6328   0.8392     0.93     O
O       0.6525   0.1624   0.7579     O
O       0.6525   0.6624   0.2579     O
O       0.6556   0.4719   0.1511     O
O       0.6556   0.9719   0.6511     O
P       0.6693   0.1134   0.6598     P
P       0.6693   0.6134   0.1598     P
Ga       0.685   0.1245   0.8747    Ga
Ga       0.685   0.6245   0.3747    Ga
O       0.6884   0.2862   0.2782     O
O       0.6884   0.7862   0.7782     O
Ga      0.7028   0.3079   0.1485    Ga
Ga      0.7028   0.8079   0.6485    Ga
P       0.7042   0.3395   0.3747     P
P       0.7042   0.8395   0.8747     P
O       0.7085   0.3881   0.6106     O
O       0.7085   0.8881   0.1106     O
O       0.7361   0.4743   0.3716     O
O       0.7361   0.9743   0.8716     O
O       0.7386   0.2562   0.9239     O
O       0.7386   0.7562   0.4239     O
O       0.7496   0.1424    0.636     O
O       0.7496   0.6424    0.136     O
O       0.7504   0.1424    0.136     O
O       0.7504   0.6424    0.636     O
O       0.7614   0.2562   0.4239     O
O       0.7614   0.7562   0.9239     O
O       0.7639   0.4743   0.8716     O
O       0.7639   0.9743   0.3716     O
O       0.7915   0.3881   0.1106     O
O       0.7915   0.8881   0.6106     O
P       0.7958   0.3395   0.8747     P
P       0.7958   0.8395   0.3747     P
Ga      0.7972   0.3079   0.6485    Ga
Ga      0.7972   0.8079   0.1485    Ga
O       0.8116   0.2862   0.7782     O
O       0.8116   0.7862   0.2782     O
Ga       0.815   0.1245   0.3747    Ga
Ga       0.815   0.6245   0.8747    Ga
P       0.8307   0.1134   0.1598     P
P       0.8307   0.6134   0.6598     P
O       0.8444   0.4719   0.6511     O
O       0.8444   0.9719   0.1511     O
O       0.8475   0.1624   0.2579     O
O       0.8475   0.6624   0.7579     O
O       0.8672   0.3392     0.93     O
O       0.8672   0.8392     0.43     O
O       0.8817   0.2513   0.5884     O
O       0.8817   0.7513   0.0884     O
O       0.8844   0.1854   0.0947     O
O       0.8844   0.6854   0.5947     O
Ga      0.8907   0.3536   0.0575    Ga
Ga      0.8907   0.8536   0.5575    Ga
O       0.8974   0.1193   0.4447     O
O       0.8974   0.6193   0.9447     O
O       0.9141   0.0186   0.5991     O
O       0.9141   0.5186   0.0991     O
P       0.9249   0.1424   0.5444     P
P       0.9249   0.6424   0.0444     P
O       0.9943   0.3187   0.0379     O
O       0.9943   0.8187   0.5379     O
