data_I
_chemical_name_common  '/home/zhangsd/repos/MofS-CGCNN/ML/data/TSD/clean_cifs/EGUNAX_clean'
_cell_length_a 18.82500
_cell_length_b  8.39120
_cell_length_c  9.29010
_cell_angle_alpha 90.00000
_cell_angle_beta  94.06400
_cell_angle_gamma 90.00000
_space_group_name_H-M_alt      'P 1'


loop_
_space_group_symop_operation_xyz
  'x, y, z' 

loop_
_atom_site_label
_atom_site_fract_x
_atom_site_fract_y
_atom_site_fract_z
_atom_site_type_symbol
Mn         0.0  0.16133     0.75    Mn
Mn         0.0  0.83867     0.25    Mn
O      0.04913   0.1635   0.5495     O
O      0.04913   0.8365   0.0495     O
O      0.08045   0.0111  0.32625     O
O      0.08045   0.9889  0.82625     O
P      0.10214  0.06056  0.47953     P
P      0.10214  0.93944  0.97953     P
H       0.1067   0.0842   0.1522     H
H       0.1067   0.9158   0.6522     H
O      0.11634   0.0983   0.0684     O
O      0.11634   0.9017   0.5684     O
H       0.1482   0.3568   0.5826     H
H       0.1482   0.6432   0.0826     H
C      0.18631   0.1641   0.4849     C
C      0.18631   0.8359   0.9849     C
C      0.18966   0.3142   0.5494     C
C      0.18966   0.6858   0.0494     C
H       0.2019    0.414   0.1627     H
H       0.2019    0.586   0.6627     H
H        0.219    0.064   0.7755     H
H        0.219    0.936   0.2755     H
H       0.2354   0.1446   0.9265     H
H       0.2354   0.8554   0.4265     H
C      0.24803    0.097   0.4336     C
C      0.24803    0.903   0.9336     C
C      0.24965    0.436   0.1383     C
C      0.24965    0.564   0.6383     C
C      0.25035    0.064   0.8617     C
C      0.25035    0.936   0.3617     C
C      0.25197    0.403   0.5664     C
C      0.25197    0.597   0.0664     C
H       0.2646   0.3554   0.0735     H
H       0.2646   0.6446   0.5735     H
H        0.281    0.436   0.2245     H
H        0.281    0.564   0.7245     H
H       0.2981    0.086   0.8373     H
H       0.2981    0.914   0.3373     H
C      0.31034   0.1858   0.4506     C
C      0.31034   0.8142   0.9506     C
C      0.31369   0.3359   0.5151     C
C      0.31369   0.6641   0.0151     C
H       0.3518   0.1432   0.4174     H
H       0.3518   0.8568   0.9174     H
O      0.38366   0.4017   0.9316     O
O      0.38366   0.5983   0.4316     O
H       0.3933   0.4158   0.8478     H
H       0.3933   0.5842   0.3478     H
P      0.39786  0.43944  0.52047     P
P      0.39786  0.56056  0.02047     P
O      0.41955   0.4889  0.67375     O
O      0.41955   0.5111  0.17375     O
O      0.45087   0.3365   0.4505     O
O      0.45087   0.6635   0.9505     O
Mn         0.5  0.33867     0.25    Mn
Mn         0.5  0.66133     0.75    Mn
O      0.54913   0.3365   0.0495     O
O      0.54913   0.6635   0.5495     O
O      0.58045   0.4889  0.82625     O
O      0.58045   0.5111  0.32625     O
P      0.60214  0.43944  0.97953     P
P      0.60214  0.56056  0.47953     P
H       0.6067   0.4158   0.6522     H
H       0.6067   0.5842   0.1522     H
O      0.61634   0.4017   0.5684     O
O      0.61634   0.5983   0.0684     O
H       0.6482   0.1432   0.0826     H
H       0.6482   0.8568   0.5826     H
C      0.68631   0.3359   0.9849     C
C      0.68631   0.6641   0.4849     C
C      0.68966   0.1858   0.0494     C
C      0.68966   0.8142   0.5494     C
H       0.7019    0.086   0.6627     H
H       0.7019    0.914   0.1627     H
H        0.719    0.436   0.2755     H
H        0.719    0.564   0.7755     H
H       0.7354   0.3554   0.4265     H
H       0.7354   0.6446   0.9265     H
C      0.74803    0.403   0.9336     C
C      0.74803    0.597   0.4336     C
C      0.74965    0.064   0.6383     C
C      0.74965    0.936   0.1383     C
C      0.75035    0.436   0.3617     C
C      0.75035    0.564   0.8617     C
C      0.75197    0.097   0.0664     C
C      0.75197    0.903   0.5664     C
H       0.7646   0.1446   0.5735     H
H       0.7646   0.8554   0.0735     H
H        0.781    0.064   0.7245     H
H        0.781    0.936   0.2245     H
H       0.7981    0.414   0.3373     H
H       0.7981    0.586   0.8373     H
C      0.81034   0.3142   0.9506     C
C      0.81034   0.6858   0.4506     C
C      0.81369   0.1641   0.0151     C
C      0.81369   0.8359   0.5151     C
H       0.8518   0.3568   0.9174     H
H       0.8518   0.6432   0.4174     H
O      0.88366   0.0983   0.4316     O
O      0.88366   0.9017   0.9316     O
H       0.8933   0.0842   0.3478     H
H       0.8933   0.9158   0.8478     H
P      0.89786  0.06056  0.02047     P
P      0.89786  0.93944  0.52047     P
O      0.91955   0.0111  0.17375     O
O      0.91955   0.9889  0.67375     O
O      0.95087   0.1635   0.9505     O
O      0.95087   0.8365   0.4505     O
