data_I
_chemical_name_common  '/home/zhangsd/repos/MofS-CGCNN/ML/data/TSD/clean_cifs/EHAGAX_clean'
_cell_length_a 10.67000
_cell_length_b 11.49110
_cell_length_c 13.44480
_cell_angle_alpha 69.15900
_cell_angle_beta  78.91300
_cell_angle_gamma 63.13200
_space_group_name_H-M_alt      'P 1'


loop_
_space_group_symop_operation_xyz
  'x, y, z' 

loop_
_atom_site_label
_atom_site_fract_x
_atom_site_fract_y
_atom_site_fract_z
_atom_site_type_symbol
U          0.0      0.5      0.5     U
C       0.0024   0.3407   0.8508     C
C       0.0209   0.2639   0.7847     C
C       0.0972   0.7132   0.2758     C
H        0.099   0.3603   0.9567     H
O       0.1086   0.6387    0.374     O
C       0.1143   0.3137   0.9083     C
C       0.1332   0.5374   0.1428     C
O       0.1374   0.2501   0.5214     O
O       0.1464   0.4656   0.0872     O
C       0.1533   0.1615   0.7751     C
H       0.1653   0.1058   0.7349     H
O       0.1753   0.7715   0.2309     O
O       0.2326   0.5074   0.1992     O
C       0.2492   0.2165   0.8925     C
C       0.2537   0.2537   0.4901     C
O       0.2639   0.3672   0.4644     O
C       0.2695   0.1405   0.8249     C
H       0.2902   0.0001   0.5846     H
O        0.324   0.2011    0.052     O
C       0.3612   0.1949   0.9579     C
U      0.37325  0.28976  0.16387     U
C       0.3745      0.0   0.5499     C
C       0.3814   0.1253   0.4929     C
Sm     0.39463  0.77389  0.24707    Sm
C       0.4104   0.0381   0.7997     C
O       0.4156   0.7013   0.5787     O
O       0.4197   0.9171    0.822     O
C       0.4713   0.7449   0.6212     C
O       0.4818   0.1746   0.9189     O
C         0.49    0.875   0.5564     C
O       0.4941   0.3056   0.2831     O
O        0.496   0.9281   0.2431     O
O        0.504   0.0719   0.7569     O
O       0.5059   0.6944   0.7169     O
C         0.51    0.125   0.4436     C
O       0.5182   0.8254   0.0811     O
C       0.5287   0.2551   0.3788     C
O       0.5803   0.0829    0.178     O
O       0.5844   0.2987   0.4213     O
C       0.5896   0.9619   0.2003     C
Sm     0.60537  0.22611  0.75293    Sm
C       0.6186   0.8747   0.5071     C
C       0.6255      0.0   0.4501     C
U      0.62675  0.71024  0.83613     U
C       0.6388   0.8051   0.0421     C
O        0.676   0.7989    0.948     O
H       0.7098   0.9999   0.4154     H
C       0.7305   0.8595   0.1751     C
O       0.7361   0.6328   0.5356     O
C       0.7463   0.7463   0.5099     C
C       0.7508   0.7835   0.1075     C
O       0.7674   0.4926   0.8008     O
O       0.8247   0.2285   0.7691     O
H       0.8347   0.8942   0.2651     H
C       0.8467   0.8385   0.2249     C
O       0.8536   0.5344   0.9128     O
O       0.8626   0.7499   0.4786     O
C       0.8668   0.4626   0.8572     C
C       0.8857   0.6863   0.0917     C
O       0.8914   0.3613    0.626     O
H        0.901   0.6397   0.0433     H
C       0.9028   0.2868   0.7242     C
C       0.9791   0.7361   0.2153     C
C       0.9976   0.6593   0.1492     C
