data_I
_chemical_name_common  '/home/zhangsd/repos/MofS-CGCNN/ML/data/TSD/clean_cifs/EHODOV_SL'
_cell_length_a 13.96680
_cell_length_b 25.31740
_cell_length_c 25.18210
_cell_angle_alpha 32.11010
_cell_angle_beta  74.47830
_cell_angle_gamma 73.41150
_space_group_name_H-M_alt      'P 1'


loop_
_space_group_symop_operation_xyz
  'x, y, z' 

loop_
_atom_site_label
_atom_site_fract_x
_atom_site_fract_y
_atom_site_fract_z
_atom_site_type_symbol
H     -0.02607  0.75827  0.00585     H
H     -0.01194  0.24415  0.49173     H
H      0.00585  0.26194 -0.02607     H
O      0.00983  0.44063  0.35197     O
O      0.01444  0.18714  0.03636     O
C      0.01888  0.47672  0.19212     C
O      0.01943  0.11681  0.21125     O
O      0.02584  0.55928  0.14196     O
H       0.0283   0.6365   0.4161     H
C      0.03445  0.77515  0.32815     C
H       0.0355   0.4317   0.9077     H
O      0.03636  0.76206  0.01444     O
O      0.03875  0.59749  0.23057     O
H       0.0419   0.7503   0.8783     H
C      0.04312  0.56648  0.82508     C
H       0.0433   0.6597   0.8779     H
O      0.05243  0.89803  0.80937     O
C       0.0569   0.7795   0.8191     C
C      0.05706  0.72574  0.81874     C
C      0.05788  0.93772  0.23112     C
O      0.06286  0.23556  0.48794     O
C       0.0659   0.6741   0.4001     C
O      0.06615  0.39369  0.26835     O
O      0.07169  0.72051  0.72511     O
C      0.07328  0.46692  0.89472     C
C      0.07767  0.76953  0.73053     C
C      0.07946  0.87834  0.73034     C
C      0.08271  0.93529  0.73129     C
C       0.0913   0.8301   0.3051     C
C      0.09558  0.86802  0.64202     C
C      0.09708  0.92092  0.64252     C
C      0.09828  0.61892  0.80332     C
H       0.1064    0.898   0.5824     H
O      0.10804  0.97708  0.22416     O
H       0.1104   0.9872   0.5828     H
In     0.11119  0.88881  0.88881    In
O      0.11681  0.01943  0.65251     O
In       0.125    0.125    0.125    In
In       0.125    0.125    0.625    In
In       0.125    0.625    0.125    In
O      0.13319  0.23057  0.59749     O
In     0.13881  0.36119  0.36119    In
H       0.1396   0.2628   0.6672     H
O      0.14196  0.27292  0.02584     O
H       0.1436    0.352   0.6676     H
C      0.15172  0.63108  0.44668     C
C      0.15292  0.32908  0.60748     C
C      0.15442  0.38198  0.60798     C
C       0.1587   0.4199   0.9449     C
C      0.16729  0.31471  0.51871     C
C      0.17054  0.37166  0.51966     C
C      0.17233  0.48047  0.51947     C
C      0.17672  0.78308  0.35528     C
O      0.17831  0.52949  0.52489     O
O      0.18385  0.85631  0.98165     O
C       0.1841   0.5759   0.8499     C
O      0.18714  0.01444  0.76206     O
C      0.19212  0.31228  0.01888     C
C      0.19294  0.52426  0.43126     C
C       0.1931   0.4705   0.4309     C
O      0.19757  0.35197  0.44063     O
H       0.2067   0.5903   0.3721     H
C      0.20688  0.68352  0.42492     C
H       0.2081   0.4997   0.3717     H
O      0.21125  0.65251  0.01943     O
O      0.21364  0.48794  0.23556     O
H       0.2145   0.8183   0.3423     H
C      0.21555  0.47485  0.92185     C
H       0.2217   0.6135   0.8339     H
O      0.22416  0.69072  0.10804     O
O      0.23057  0.13319  0.03875     O
C      0.23112  0.77328  0.05788     C
O      0.23556  0.06286  0.21364     O
O      0.24017  0.80937  0.89803     O
H      0.24415 -0.01194  0.27607     H
C      0.25071  0.73129  0.93529     C
H      0.26194  0.00585  0.75827     H
H       0.2628   0.1396   0.9304     H
H       0.2661   0.6527   0.4569     H
O      0.26835  0.27181  0.06615     O
O      0.27181  0.26835  0.39369     O
O      0.27292  0.14196  0.55928     O
H       0.2742   0.4446   0.9542     H
H      0.27607  0.49173  0.24415     H
H       0.2958    0.923   0.9758     H
C       0.3051   0.7735   0.0913     C
C      0.31186  0.73034  0.87834     C
C      0.31228  0.19212  0.47672     C
C      0.31471  0.16729  0.99929     C
H       0.3196   0.5828   0.9872     H
H        0.327   0.9542   0.4446     H
C      0.32815  0.86225  0.03445     C
C      0.32908  0.15292  0.91052     C
H       0.3295   0.8783   0.7503     H
H       0.3309   0.8339   0.6135     H
C      0.33948  0.64252  0.92092     C
H       0.3423   0.6249   0.2145     H
C       0.3445   0.8191   0.7795     C
O      0.35197  0.19757  0.00983     O
H        0.352   0.1436   0.8368     H
C      0.35528  0.68492  0.17672     C
In     0.36119  0.13881  0.13881    In
C      0.37166  0.17054  0.93814     C
H       0.3717   0.9205   0.2081     H
H       0.3721   0.8309   0.2067     H
C      0.38198  0.15442  0.85562     C
C      0.38775  0.92185  0.47485     C
C       0.3901   0.8499   0.5759     C
O      0.39369  0.06615  0.27181     O
C      0.39438  0.64202  0.86802     C
C      0.39846  0.81874  0.72574     C
C       0.4001   0.8599   0.0659     C
H       0.4132   0.5824    0.898     H
H       0.4161   0.9191   0.0283     H
H       0.4191   0.8779   0.6597     H
C       0.4199   0.1587   0.4765     C
C      0.42227  0.73053  0.76953     C
C      0.42492  0.68468  0.20688     C
C       0.4309   0.9055   0.1931     C
C      0.43126  0.85154  0.19294     C
H       0.4317   0.0355   0.6251     H
O      0.44063  0.00983  0.19757     O
H       0.4446   0.2742    0.327     H
C      0.44668  0.77052  0.15172     C
H       0.4569   0.6243   0.2661     H
C      0.46692  0.07328  0.56508     C
C       0.4705   0.1931   0.9055     C
C      0.47485  0.21555  0.38775     C
C       0.4765   0.9449   0.4199     C
C      0.47672  0.01888  0.31228     C
C      0.47948  0.80332  0.61892     C
C      0.48047  0.17233  0.82773     C
O      0.48269  0.72511  0.72051     O
O      0.48794  0.21364  0.06286     O
H      0.49173  0.27607 -0.01194     H
H       0.4997   0.2081   0.9205     H
C      0.51871  0.99929  0.16729     C
C      0.51947  0.82773  0.17233     C
C      0.51966  0.93814  0.17054     C
C      0.52426  0.19294  0.85154     C
O      0.52489  0.76731  0.17831     O
O      0.52949  0.17831  0.76731     O
O      0.55928  0.02584  0.27292     O
C      0.56508  0.89472  0.46692     C
C      0.56532  0.82508  0.56648     C
C      0.56648  0.04312  0.56532     C
C       0.5759   0.1841   0.3901     C
H       0.5824   0.4132   0.1064     H
H       0.5828   0.3196   0.1104     H
H       0.5903   0.2067   0.8309     H
H       0.5973   0.9839   0.6257     H
O      0.59749  0.03875  0.13319     O
C      0.60748  0.91052  0.15292     C
C      0.60798  0.85562  0.15442     C
H       0.6135   0.2217   0.3309     H
C      0.61892  0.09828  0.47948     C
H       0.6243   0.4569   0.6527     H
H       0.6249   0.3423   0.8183     H
In       0.625    0.125    0.125    In
H       0.6251   0.9077   0.4317     H
H       0.6257   0.7931   0.5973     H
C      0.63108  0.15172  0.77052     C
H       0.6365   0.0283   0.9191     H
C      0.64202  0.39438  0.09558     C
C      0.64252  0.33948  0.09708     C
O      0.65251  0.21125  0.11681     O
H       0.6527   0.2661   0.6243     H
H       0.6597   0.0433   0.4191     H
H       0.6672   0.9304   0.1396     H
H       0.6676   0.8368   0.1436     H
C       0.6741   0.0659   0.8599     C
C      0.68352  0.20688  0.68468     C
C      0.68468  0.42492  0.68352     C
C      0.68492  0.35528  0.78308     C
O      0.69072  0.22416  0.97708     O
O      0.72051  0.07169  0.48269     O
O      0.72511  0.48269  0.07169     O
C      0.72574  0.05706  0.39846     C
C      0.73034  0.31186  0.07946     C
C      0.73053  0.42227  0.07767     C
C      0.73129  0.25071  0.08271     C
H       0.7503   0.0419   0.3295     H
H      0.75827 -0.02607  0.26194     H
O      0.76206  0.03636  0.18714     O
O      0.76731  0.52489  0.52949     O
C      0.76953  0.07767  0.42227     C
C      0.77052  0.44668  0.63108     C
C      0.77328  0.23112  0.93772     C
C       0.7735   0.3051   0.8301     C
C      0.77515  0.03445  0.86225     C
C       0.7795   0.0569   0.3445     C
C      0.78308  0.17672  0.68492     C
H       0.7931   0.6257   0.9839     H
C      0.80332  0.47948  0.09828     C
H       0.8054   0.9758    0.923     H
O      0.80937  0.24017  0.05243     O
H       0.8183   0.2145   0.6249     H
C      0.81874  0.39846  0.05706     C
C       0.8191   0.3445   0.0569     C
C      0.82508  0.56532  0.04312     C
C      0.82773  0.51947  0.48047     C
C       0.8301   0.0913   0.7735     C
H       0.8309   0.3721   0.5903     H
H       0.8339   0.3309   0.2217     H
H       0.8368   0.6676    0.352     H
C       0.8499   0.3901   0.1841     C
C      0.85154  0.43126  0.52426     C
C      0.85562  0.60798  0.38198     C
O      0.85631  0.18385  0.97819     O
C       0.8599   0.4001   0.6741     C
C      0.86225  0.32815  0.77515     C
C      0.86802  0.09558  0.39438     C
H       0.8779   0.4191   0.0433     H
H       0.8783   0.3295   0.0419     H
C      0.87834  0.07946  0.31186     C
In     0.88881  0.11119  0.11119    In
C      0.89472  0.56508  0.07328     C
H        0.898   0.1064   0.4132     H
O      0.89803  0.05243  0.24017     O
C       0.9055   0.4309   0.4705     C
H       0.9077   0.6251   0.0355     H
C      0.91052  0.60748  0.32908     C
H       0.9191   0.4161   0.6365     H
H       0.9205   0.3717   0.4997     H
C      0.92092  0.09708  0.33948     C
C      0.92185  0.38775  0.21555     C
H        0.923   0.2958   0.8054     H
H       0.9304   0.6672   0.2628     H
C      0.93529  0.08271  0.25071     C
C      0.93772  0.05788  0.77328     C
C      0.93814  0.51966  0.37166     C
C       0.9449   0.4765   0.1587     C
H       0.9542    0.327   0.2742     H
H       0.9758   0.8054   0.2958     H
O      0.97708  0.10804  0.69072     O
O      0.97819  0.98165  0.85631     O
O      0.98165  0.97819  0.18385     O
H       0.9839   0.5973   0.7931     H
H       0.9872   0.1104   0.3196     H
C      0.99929  0.51871  0.31471     C
