data_I
_chemical_name_common  '/home/zhangsd/repos/MofS-CGCNN/ML/data/TSD/clean_cifs/EJOQUR_clean'
_cell_length_a 18.59240
_cell_length_b 18.59240
_cell_length_c 42.22930
_cell_angle_alpha 90.00000
_cell_angle_beta  90.00000
_cell_angle_gamma 90.00000
_space_group_name_H-M_alt      'P 1'


loop_
_space_group_symop_operation_xyz
  'x, y, z' 

loop_
_atom_site_label
_atom_site_fract_x
_atom_site_fract_y
_atom_site_fract_z
_atom_site_type_symbol
H        0.003   0.5811    0.375     H
H        0.003   0.5811    0.625     H
C       0.0052   0.3224  0.39385     C
C       0.0052   0.3224  0.60615     C
C       0.0206   0.2011  0.41618     C
C       0.0206   0.2011  0.58382     C
C       0.0214   0.3925  0.39026     C
C       0.0214   0.3925  0.60974     C
H       0.0229   0.7456   0.2582     H
H       0.0229   0.7456   0.7418     H
H       0.0245   0.5826   0.0939     H
H       0.0245   0.5826   0.9061     H
C       0.0259   0.7352  0.27967     C
C       0.0259   0.7352  0.72033     C
C         0.03   0.2733  0.33104     C
C         0.03   0.2733  0.66896     C
O       0.0343   0.8176  0.43239     O
O       0.0343   0.8176  0.56761     O
C       0.0358   0.2623   0.2986     C
C       0.0358   0.2623   0.7014     C
C       0.0371   0.7128  0.34365     C
C       0.0371   0.7128  0.65635     C
C       0.0392   0.2795  0.41608     C
C       0.0392   0.2795  0.58392     C
O       0.0494   0.7091  0.37597     O
O       0.0494   0.7091  0.62403     O
O       0.0496   0.9504  0.39543     O
O       0.0496   0.9504  0.60457     O
Cu     0.05655  0.05655  0.39513    Cu
Cu     0.05655  0.05655  0.60487    Cu
O       0.0593   0.1614  0.39978     O
O       0.0593   0.1614  0.60022     O
H       0.0704   0.2713    0.344     H
H       0.0704   0.2713    0.656     H
C       0.0728   0.4268   0.4084     C
C       0.0728   0.4268   0.5916     C
C       0.0732   0.5728   0.0916     C
C       0.0732   0.5728   0.9084     C
H       0.0811    0.497    0.125     H
H       0.0811    0.497    0.875     H
H       0.0826   0.4755   0.4061     H
H       0.0826   0.4755   0.5939     H
C       0.0911   0.7174  0.29296     C
C       0.0911   0.7174  0.70704     C
C       0.0933    0.313  0.43468     C
C       0.0933    0.313  0.56532     C
Cu     0.09367  0.90633  0.43252    Cu
Cu     0.09367  0.90633  0.56748    Cu
C        0.097   0.7063  0.32463     C
C        0.097   0.7063  0.67537     C
H       0.0973   0.6467   0.0569     H
H       0.0973   0.6467   0.9431     H
O       0.1058   0.2121  0.25795     O
O       0.1058   0.2121  0.74205     O
C       0.1074   0.2456  0.28386     C
C       0.1074   0.2456  0.71614     C
C       0.1075   0.5214  0.10974     C
C       0.1075   0.5214  0.89026     C
O       0.1082   0.2134  0.46826     O
O       0.1082   0.2134  0.53174     O
C       0.1102   0.3827   0.4309     C
C       0.1102   0.3827   0.5691     C
C       0.1173   0.6102   0.0691     C
C       0.1173   0.6102   0.9309     C
C       0.1345   0.2693  0.45869     C
C       0.1345   0.2693  0.54131     C
H       0.1413   0.6944   0.3334     H
H       0.1413   0.6944   0.6666     H
H       0.1467   0.4027   0.4431     H
H       0.1467   0.4027   0.5569     H
Cu     0.15412  0.15412      0.5    Cu
O       0.1549   0.7423   0.2457     O
O       0.1549   0.7423   0.7543     O
C       0.1577   0.7153  0.27301     C
C       0.1577   0.7153  0.72699     C
O       0.1614   0.0593  0.39978     O
O       0.1614   0.0593  0.60022     O
O       0.1624   0.2667  0.29798     O
O       0.1624   0.2667  0.70202     O
C       0.1776   0.5052  0.10615     C
C       0.1776   0.5052  0.89385     C
O       0.1824   0.9657  0.43239     O
O       0.1824   0.9657  0.56761     O
O       0.1851    0.288  0.21454     O
O       0.1851    0.288  0.78546     O
C        0.187   0.5933  0.06532     C
C        0.187   0.5933  0.93468     C
Cu     0.19182  0.19182   0.2329    Cu
Cu     0.19182  0.19182   0.7671    Cu
O       0.1938   0.2986  0.46791     O
O       0.1938   0.2986  0.53209     O
H       0.1944   0.3587   0.1666     H
H       0.1944   0.3587   0.8334     H
C       0.2011   0.0206  0.41618     C
C       0.2011   0.0206  0.58382     C
O       0.2014   0.6938  0.03209     O
O       0.2014   0.6938  0.96791     O
C       0.2063    0.403  0.17537     C
C       0.2063    0.403  0.82463     C
O       0.2091   0.4506  0.12403     O
O       0.2091   0.4506  0.87597     O
O        0.212   0.6851  0.28546     O
O        0.212   0.6851  0.71454     O
O       0.2121   0.1058  0.25795     O
O       0.2121   0.1058  0.74205     O
C       0.2128   0.4629  0.15635     C
C       0.2128   0.4629  0.84365     C
O       0.2134   0.1082  0.46826     O
O       0.2134   0.1082  0.53174     O
C       0.2153   0.3423  0.22699     C
C       0.2153   0.3423  0.77301     C
C       0.2174   0.4089  0.20704     C
C       0.2174   0.4089  0.79296     C
C       0.2205   0.5392  0.08392     C
C       0.2205   0.5392  0.91608     C
C       0.2267     0.53  0.16896     C
C       0.2267     0.53  0.83104     C
H       0.2287   0.5704    0.156     H
H       0.2287   0.5704    0.844     H
C       0.2307   0.6345  0.04131     C
C       0.2307   0.6345  0.95869     C
O       0.2333   0.6624  0.20202     O
O       0.2333   0.6624  0.79798     O
C       0.2352   0.4741  0.22033     C
C       0.2352   0.4741  0.77967     C
C       0.2377   0.5358   0.2014     C
C       0.2377   0.5358   0.7986     C
Cu     0.24141  0.75859  0.21996    Cu
Cu     0.24141  0.75859  0.78004    Cu
O       0.2423   0.3451   0.2543     O
O       0.2423   0.3451   0.7457     O
Cu     0.24503  0.75497      0.0    Cu
C       0.2456   0.1074  0.28386     C
C       0.2456   0.1074  0.71614     C
H       0.2456   0.4771   0.2418     H
H       0.2456   0.4771   0.7582     H
C       0.2544   0.6074  0.21614     C
C       0.2544   0.6074  0.78386     C
H       0.2544   0.9771   0.2582     H
H       0.2544   0.9771   0.7418     H
Cu     0.25497  0.25497      0.5    Cu
O       0.2577   0.8451   0.2457     O
O       0.2577   0.8451   0.7543     O
Cu     0.25859  0.25859  0.28004    Cu
Cu     0.25859  0.25859  0.71996    Cu
C       0.2623   0.0358   0.2986     C
C       0.2623   0.0358   0.7014     C
C       0.2648   0.9741  0.27967     C
C       0.2648   0.9741  0.72033     C
O       0.2667   0.1624  0.29798     O
O       0.2667   0.1624  0.70202     O
C       0.2693   0.1345  0.45869     C
C       0.2693   0.1345  0.54131     C
H       0.2713   0.0704    0.344     H
H       0.2713   0.0704    0.656     H
C       0.2733     0.03  0.33104     C
C       0.2733     0.03  0.66896     C
C       0.2795   0.0392  0.41608     C
C       0.2795   0.0392  0.58392     C
C       0.2826   0.9089  0.29296     C
C       0.2826   0.9089  0.70704     C
C       0.2847   0.8423  0.27301     C
C       0.2847   0.8423  0.72699     C
O       0.2866   0.6082  0.03174     O
O       0.2866   0.6082  0.96826     O
C       0.2872   0.9629  0.34365     C
C       0.2872   0.9629  0.65635     C
O       0.2879   0.6058  0.24205     O
O       0.2879   0.6058  0.75795     O
O        0.288   0.1851  0.21454     O
O        0.288   0.1851  0.78546     O
O       0.2909   0.9506  0.37597     O
O       0.2909   0.9506  0.62403     O
C       0.2937    0.903  0.32463     C
C       0.2937    0.903  0.67537     C
O       0.2986   0.1938  0.46791     O
O       0.2986   0.1938  0.53209     O
C       0.2989   0.5206  0.08382     C
C       0.2989   0.5206  0.91618     C
H       0.3056   0.8587   0.3334     H
H       0.3056   0.8587   0.6666     H
O       0.3062   0.7986  0.03209     O
O       0.3062   0.7986  0.96791     O
Cu     0.30818  0.69182   0.2671    Cu
Cu     0.30818  0.69182   0.7329    Cu
C        0.313   0.0933  0.43468     C
C        0.313   0.0933  0.56532     C
O       0.3149    0.788  0.28546     O
O       0.3149    0.788  0.71454     O
O       0.3176   0.4657  0.06761     O
O       0.3176   0.4657  0.93239     O
C       0.3224   0.0052  0.39385     C
C       0.3224   0.0052  0.60615     C
O       0.3376   0.7667  0.20202     O
O       0.3376   0.7667  0.79798     O
O       0.3386   0.5593  0.10022     O
O       0.3386   0.5593  0.89978     O
C       0.3423   0.2153  0.22699     C
C       0.3423   0.2153  0.77301     C
O       0.3451   0.2423   0.2543     O
O       0.3451   0.2423   0.7457     O
Cu     0.34588  0.65412      0.0    Cu
H       0.3533   0.9027   0.0569     H
H       0.3533   0.9027   0.9431     H
H       0.3587   0.1944   0.1666     H
H       0.3587   0.1944   0.8334     H
C       0.3655   0.7693  0.04131     C
C       0.3655   0.7693  0.95869     C
C       0.3827   0.1102   0.4309     C
C       0.3827   0.1102   0.5691     C
C       0.3898   0.8827   0.0691     C
C       0.3898   0.8827   0.9309     C
O       0.3918   0.7134  0.03174     O
O       0.3918   0.7134  0.96826     O
C       0.3925   0.0214  0.39026     C
C       0.3925   0.0214  0.60974     C
C       0.3926   0.7456  0.21614     C
C       0.3926   0.7456  0.78386     C
O       0.3942   0.7121  0.24205     O
O       0.3942   0.7121  0.75795     O
H       0.4027   0.1467   0.4431     H
H       0.4027   0.1467   0.5569     H
C        0.403   0.2063  0.17537     C
C        0.403   0.2063  0.82463     C
Cu     0.40633  0.40633  0.06748    Cu
Cu     0.40633  0.40633  0.93252    Cu
C       0.4067    0.813  0.06532     C
C       0.4067    0.813  0.93468     C
C       0.4089   0.2174  0.20704     C
C       0.4089   0.2174  0.79296     C
H       0.4174   0.9755   0.0939     H
H       0.4174   0.9755   0.9061     H
H       0.4189    0.997    0.375     H
H       0.4189    0.997    0.625     H
C       0.4268   0.0728   0.4084     C
C       0.4268   0.0728   0.5916     C
C       0.4272   0.9268   0.0916     C
C       0.4272   0.9268   0.9084     C
H       0.4296   0.7713    0.156     H
H       0.4296   0.7713    0.844     H
O       0.4407   0.6614  0.10022     O
O       0.4407   0.6614  0.89978     O
Cu     0.44345  0.55655  0.10487    Cu
Cu     0.44345  0.55655  0.89513    Cu
O       0.4504   0.4504  0.10457     O
O       0.4504   0.4504  0.89543     O
O       0.4506   0.2091  0.12403     O
O       0.4506   0.2091  0.87597     O
C       0.4608   0.7795  0.08392     C
C       0.4608   0.7795  0.91608     C
C       0.4629   0.2128  0.15635     C
C       0.4629   0.2128  0.84365     C
C       0.4642   0.7623   0.2014     C
C       0.4642   0.7623   0.7986     C
O       0.4657   0.3176  0.06761     O
O       0.4657   0.3176  0.93239     O
C         0.47   0.7733  0.16896     C
C         0.47   0.7733  0.83104     C
C       0.4741   0.2352  0.22033     C
C       0.4741   0.2352  0.77967     C
H       0.4755   0.0826   0.4061     H
H       0.4755   0.0826   0.5939     H
H       0.4771   0.2456   0.2418     H
H       0.4771   0.2456   0.7582     H
C       0.4786   0.8925  0.10974     C
C       0.4786   0.8925  0.89026     C
C       0.4794   0.7011  0.08382     C
C       0.4794   0.7011  0.91618     C
C       0.4948   0.8224  0.10615     C
C       0.4948   0.8224  0.89385     C
H        0.497   0.0811    0.125     H
H        0.497   0.0811    0.875     H
H        0.503   0.9189    0.125     H
H        0.503   0.9189    0.875     H
C       0.5052   0.1776  0.10615     C
C       0.5052   0.1776  0.89385     C
C       0.5206   0.2989  0.08382     C
C       0.5206   0.2989  0.91618     C
C       0.5214   0.1075  0.10974     C
C       0.5214   0.1075  0.89026     C
H       0.5229   0.7544   0.2418     H
H       0.5229   0.7544   0.7582     H
H       0.5245   0.9174   0.4061     H
H       0.5245   0.9174   0.5939     H
C       0.5259   0.7648  0.22033     C
C       0.5259   0.7648  0.77967     C
C         0.53   0.2267  0.16896     C
C         0.53   0.2267  0.83104     C
O       0.5343   0.6824  0.06761     O
O       0.5343   0.6824  0.93239     O
C       0.5358   0.2377   0.2014     C
C       0.5358   0.2377   0.7986     C
C       0.5371   0.7872  0.15635     C
C       0.5371   0.7872  0.84365     C
C       0.5392   0.2205  0.08392     C
C       0.5392   0.2205  0.91608     C
O       0.5494   0.7909  0.12403     O
O       0.5494   0.7909  0.87597     O
O       0.5496   0.5496  0.10457     O
O       0.5496   0.5496  0.89543     O
Cu     0.55655  0.44345  0.10487    Cu
Cu     0.55655  0.44345  0.89513    Cu
O       0.5593   0.3386  0.10022     O
O       0.5593   0.3386  0.89978     O
H       0.5704   0.2287    0.156     H
H       0.5704   0.2287    0.844     H
C       0.5728   0.0732   0.0916     C
C       0.5728   0.0732   0.9084     C
C       0.5732   0.9272   0.4084     C
C       0.5732   0.9272   0.5916     C
H       0.5811    0.003    0.375     H
H       0.5811    0.003    0.625     H
H       0.5826   0.0245   0.0939     H
H       0.5826   0.0245   0.9061     H
C       0.5911   0.7826  0.20704     C
C       0.5911   0.7826  0.79296     C
C       0.5933    0.187  0.06532     C
C       0.5933    0.187  0.93468     C
Cu     0.59367  0.59367  0.06748    Cu
Cu     0.59367  0.59367  0.93252    Cu
C        0.597   0.7937  0.17537     C
C        0.597   0.7937  0.82463     C
H       0.5973   0.8533   0.4431     H
H       0.5973   0.8533   0.5569     H
O       0.6058   0.2879  0.24205     O
O       0.6058   0.2879  0.75795     O
C       0.6074   0.2544  0.21614     C
C       0.6074   0.2544  0.78386     C
C       0.6075   0.9786  0.39026     C
C       0.6075   0.9786  0.60974     C
O       0.6082   0.2866  0.03174     O
O       0.6082   0.2866  0.96826     O
C       0.6102   0.1173   0.0691     C
C       0.6102   0.1173   0.9309     C
C       0.6173   0.8898   0.4309     C
C       0.6173   0.8898   0.5691     C
C       0.6345   0.2307  0.04131     C
C       0.6345   0.2307  0.95869     C
H       0.6413   0.8056   0.1666     H
H       0.6413   0.8056   0.8334     H
H       0.6467   0.0973   0.0569     H
H       0.6467   0.0973   0.9431     H
Cu     0.65412  0.34588      0.0    Cu
O       0.6549   0.7577   0.2543     O
O       0.6549   0.7577   0.7457     O
C       0.6577   0.7847  0.22699     C
C       0.6577   0.7847  0.77301     C
O       0.6614   0.4407  0.10022     O
O       0.6614   0.4407  0.89978     O
O       0.6624   0.2333  0.20202     O
O       0.6624   0.2333  0.79798     O
C       0.6776   0.9948  0.39385     C
C       0.6776   0.9948  0.60615     C
O       0.6824   0.5343  0.06761     O
O       0.6824   0.5343  0.93239     O
O       0.6851    0.212  0.28546     O
O       0.6851    0.212  0.71454     O
C        0.687   0.9067  0.43468     C
C        0.687   0.9067  0.56532     C
Cu     0.69182  0.30818   0.2671    Cu
Cu     0.69182  0.30818   0.7329    Cu
O       0.6938   0.2014  0.03209     O
O       0.6938   0.2014  0.96791     O
H       0.6944   0.1413   0.3334     H
H       0.6944   0.1413   0.6666     H
C       0.7011   0.4794  0.08382     C
C       0.7011   0.4794  0.91618     C
O       0.7014   0.8062  0.46791     O
O       0.7014   0.8062  0.53209     O
C       0.7063    0.097  0.32463     C
C       0.7063    0.097  0.67537     C
O       0.7091   0.0494  0.37597     O
O       0.7091   0.0494  0.62403     O
O        0.712   0.8149  0.21454     O
O        0.712   0.8149  0.78546     O
O       0.7121   0.3942  0.24205     O
O       0.7121   0.3942  0.75795     O
C       0.7128   0.0371  0.34365     C
C       0.7128   0.0371  0.65635     C
O       0.7134   0.3918  0.03174     O
O       0.7134   0.3918  0.96826     O
C       0.7153   0.1577  0.27301     C
C       0.7153   0.1577  0.72699     C
C       0.7174   0.0911  0.29296     C
C       0.7174   0.0911  0.70704     C
C       0.7205   0.9608  0.41608     C
C       0.7205   0.9608  0.58392     C
C       0.7267     0.97  0.33104     C
C       0.7267     0.97  0.66896     C
H       0.7287   0.9296    0.344     H
H       0.7287   0.9296    0.656     H
C       0.7307   0.8655  0.45869     C
C       0.7307   0.8655  0.54131     C
O       0.7333   0.8376  0.29798     O
O       0.7333   0.8376  0.70202     O
C       0.7352   0.0259  0.27967     C
C       0.7352   0.0259  0.72033     C
C       0.7377   0.9642   0.2986     C
C       0.7377   0.9642   0.7014     C
Cu     0.74141  0.74141  0.28004    Cu
Cu     0.74141  0.74141  0.71996    Cu
O       0.7423   0.1549   0.2457     O
O       0.7423   0.1549   0.7543     O
Cu     0.74503  0.74503      0.5    Cu
H       0.7456   0.0229   0.2582     H
H       0.7456   0.0229   0.7418     H
C       0.7456   0.3926  0.21614     C
C       0.7456   0.3926  0.78386     C
H       0.7544   0.5229   0.2418     H
H       0.7544   0.5229   0.7582     H
C       0.7544   0.8926  0.28386     C
C       0.7544   0.8926  0.71614     C
Cu     0.75497  0.24503      0.0    Cu
O       0.7577   0.6549   0.2543     O
O       0.7577   0.6549   0.7457     O
Cu     0.75859  0.24141  0.21996    Cu
Cu     0.75859  0.24141  0.78004    Cu
C       0.7623   0.4642   0.2014     C
C       0.7623   0.4642   0.7986     C
C       0.7648   0.5259  0.22033     C
C       0.7648   0.5259  0.77967     C
O       0.7667   0.3376  0.20202     O
O       0.7667   0.3376  0.79798     O
C       0.7693   0.3655  0.04131     C
C       0.7693   0.3655  0.95869     C
H       0.7713   0.4296    0.156     H
H       0.7713   0.4296    0.844     H
C       0.7733     0.47  0.16896     C
C       0.7733     0.47  0.83104     C
C       0.7795   0.4608  0.08392     C
C       0.7795   0.4608  0.91608     C
C       0.7826   0.5911  0.20704     C
C       0.7826   0.5911  0.79296     C
C       0.7847   0.6577  0.22699     C
C       0.7847   0.6577  0.77301     C
O       0.7866   0.8918  0.46826     O
O       0.7866   0.8918  0.53174     O
C       0.7872   0.5371  0.15635     C
C       0.7872   0.5371  0.84365     C
O       0.7879   0.8942  0.25795     O
O       0.7879   0.8942  0.74205     O
O        0.788   0.3149  0.28546     O
O        0.788   0.3149  0.71454     O
O       0.7909   0.5494  0.12403     O
O       0.7909   0.5494  0.87597     O
C       0.7937    0.597  0.17537     C
C       0.7937    0.597  0.82463     C
O       0.7986   0.3062  0.03209     O
O       0.7986   0.3062  0.96791     O
C       0.7989   0.9794  0.41618     C
C       0.7989   0.9794  0.58382     C
H       0.8056   0.6413   0.1666     H
H       0.8056   0.6413   0.8334     H
O       0.8062   0.7014  0.46791     O
O       0.8062   0.7014  0.53209     O
Cu     0.80818  0.80818   0.2329    Cu
Cu     0.80818  0.80818   0.7671    Cu
C        0.813   0.4067  0.06532     C
C        0.813   0.4067  0.93468     C
O       0.8149    0.712  0.21454     O
O       0.8149    0.712  0.78546     O
O       0.8176   0.0343  0.43239     O
O       0.8176   0.0343  0.56761     O
C       0.8224   0.4948  0.10615     C
C       0.8224   0.4948  0.89385     C
O       0.8376   0.7333  0.29798     O
O       0.8376   0.7333  0.70202     O
O       0.8386   0.9407  0.39978     O
O       0.8386   0.9407  0.60022     O
C       0.8423   0.2847  0.27301     C
C       0.8423   0.2847  0.72699     C
O       0.8451   0.2577   0.2457     O
O       0.8451   0.2577   0.7543     O
Cu     0.84588  0.84588      0.5    Cu
H       0.8533   0.5973   0.4431     H
H       0.8533   0.5973   0.5569     H
H       0.8587   0.3056   0.3334     H
H       0.8587   0.3056   0.6666     H
C       0.8655   0.7307  0.45869     C
C       0.8655   0.7307  0.54131     C
C       0.8827   0.3898   0.0691     C
C       0.8827   0.3898   0.9309     C
C       0.8898   0.6173   0.4309     C
C       0.8898   0.6173   0.5691     C
O       0.8918   0.7866  0.46826     O
O       0.8918   0.7866  0.53174     O
C       0.8925   0.4786  0.10974     C
C       0.8925   0.4786  0.89026     C
C       0.8926   0.7544  0.28386     C
C       0.8926   0.7544  0.71614     C
O       0.8942   0.7879  0.25795     O
O       0.8942   0.7879  0.74205     O
H       0.9027   0.3533   0.0569     H
H       0.9027   0.3533   0.9431     H
C        0.903   0.2937  0.32463     C
C        0.903   0.2937  0.67537     C
Cu     0.90633  0.09367  0.43252    Cu
Cu     0.90633  0.09367  0.56748    Cu
C       0.9067    0.687  0.43468     C
C       0.9067    0.687  0.56532     C
C       0.9089   0.2826  0.29296     C
C       0.9089   0.2826  0.70704     C
H       0.9174   0.5245   0.4061     H
H       0.9174   0.5245   0.5939     H
H       0.9189    0.503    0.125     H
H       0.9189    0.503    0.875     H
C       0.9268   0.4272   0.0916     C
C       0.9268   0.4272   0.9084     C
C       0.9272   0.5732   0.4084     C
C       0.9272   0.5732   0.5916     C
H       0.9296   0.7287    0.344     H
H       0.9296   0.7287    0.656     H
O       0.9407   0.8386  0.39978     O
O       0.9407   0.8386  0.60022     O
Cu     0.94345  0.94345  0.39513    Cu
Cu     0.94345  0.94345  0.60487    Cu
O       0.9504   0.0496  0.39543     O
O       0.9504   0.0496  0.60457     O
O       0.9506   0.2909  0.37597     O
O       0.9506   0.2909  0.62403     O
C       0.9608   0.7205  0.41608     C
C       0.9608   0.7205  0.58392     C
C       0.9629   0.2872  0.34365     C
C       0.9629   0.2872  0.65635     C
C       0.9642   0.7377   0.2986     C
C       0.9642   0.7377   0.7014     C
O       0.9657   0.1824  0.43239     O
O       0.9657   0.1824  0.56761     O
C         0.97   0.7267  0.33104     C
C         0.97   0.7267  0.66896     C
C       0.9741   0.2648  0.27967     C
C       0.9741   0.2648  0.72033     C
H       0.9755   0.4174   0.0939     H
H       0.9755   0.4174   0.9061     H
H       0.9771   0.2544   0.2582     H
H       0.9771   0.2544   0.7418     H
C       0.9786   0.6075  0.39026     C
C       0.9786   0.6075  0.60974     C
C       0.9794   0.7989  0.41618     C
C       0.9794   0.7989  0.58382     C
C       0.9948   0.6776  0.39385     C
C       0.9948   0.6776  0.60615     C
H        0.997   0.4189    0.375     H
H        0.997   0.4189    0.625     H
