data_I
_chemical_name_common  '/home/zhangsd/repos/MofS-CGCNN/ML/data/TSD/clean_cifs/EKETOF_clean'
_cell_length_a 19.97400
_cell_length_b 13.13500
_cell_length_c  9.90100
_cell_angle_alpha 90.00000
_cell_angle_beta  113.30800
_cell_angle_gamma 90.00000
_space_group_name_H-M_alt      'P 1'


loop_
_space_group_symop_operation_xyz
  'x, y, z' 

loop_
_atom_site_label
_atom_site_fract_x
_atom_site_fract_y
_atom_site_fract_z
_atom_site_type_symbol
Eu         0.0  0.05855     0.25    Eu
N          0.0   0.1687     0.75     N
O          0.0   0.2574     0.75     O
O          0.0   0.7426     0.25     O
N          0.0   0.8313     0.25     N
Eu         0.0  0.94145     0.75    Eu
O      0.04008   0.1175   0.7036     O
O      0.04008   0.8825   0.2036     O
N        0.069   0.2183   0.3863     N
N        0.069   0.7817   0.8863     N
O       0.0838   0.0845   0.1487     O
O       0.0838   0.9155   0.6487     O
O      0.08962   0.0059   0.4659     O
O      0.08962   0.9941   0.9659     O
H       0.0909   0.2032   0.5958     H
H       0.0909   0.7968   0.0958     H
H       0.0911   0.2875    0.228     H
H       0.0911   0.7125    0.728     H
N       0.1021   0.2348   0.5315     N
N       0.1021   0.7652   0.0315     N
C       0.1024   0.2815   0.3283     C
C       0.1024   0.7185   0.8283     C
C       0.1157   0.0532   0.0713     C
C       0.1157   0.9468   0.5713     C
H       0.1218   0.3162   0.8007     H
H       0.1218   0.6838   0.3007     H
C       0.1544   0.3058   0.5658     C
C       0.1544   0.6942   0.0658     C
C       0.1563   0.3376   0.4359     C
C       0.1563   0.6624   0.9359     C
C       0.1688   0.3401    0.823     C
C       0.1688   0.6599    0.323     C
H       0.1869   0.3863   0.4226     H
H       0.1869   0.6137   0.9226     H
H       0.1901   0.3756   0.0331     H
H       0.1901   0.6244   0.5331     H
C       0.1921   0.0901   0.1093     C
C       0.1921   0.9099   0.6093     C
H       0.1943   0.0622   0.9107     H
H       0.1943   0.9378   0.4107     H
C       0.1969   0.3393   0.7164     C
C       0.1969   0.6607   0.2164     C
C       0.2096   0.3759   0.9619     C
C       0.2096   0.6241   0.4619     C
H       0.2117   0.1296   0.3164     H
H       0.2117   0.8704   0.8164     H
C       0.2214    0.088    0.004     C
C       0.2214    0.912    0.504     C
C       0.2322    0.127   0.2469     C
C       0.2322    0.873   0.7469     C
C       0.2678    0.373   0.7531     C
C       0.2678    0.627   0.2531     C
C       0.2786    0.412    0.996     C
C       0.2786    0.588    0.496     C
H       0.2883   0.3704   0.6836     H
H       0.2883   0.6296   0.1836     H
C       0.2904   0.1241   0.0381     C
C       0.2904   0.8759   0.5381     C
C       0.3031   0.1607   0.2836     C
C       0.3031   0.8393   0.7836     C
H       0.3057   0.4378   0.0893     H
H       0.3057   0.5622   0.5893     H
C       0.3079   0.4099   0.8907     C
C       0.3079   0.5901   0.3907     C
H       0.3099   0.1244   0.9669     H
H       0.3099   0.8756   0.4669     H
H       0.3131   0.1137   0.5774     H
H       0.3131   0.8863   0.0774     H
C       0.3312   0.1599    0.177     C
C       0.3312   0.8401    0.677     C
C       0.3437   0.1624   0.5641     C
C       0.3437   0.8376   0.0641     C
C       0.3456   0.1942   0.4342     C
C       0.3456   0.8058   0.9342     C
H       0.3782   0.1838   0.1993     H
H       0.3782   0.8162   0.6993     H
C       0.3843   0.4468   0.9287     C
C       0.3843   0.5532   0.4287     C
C       0.3976   0.2185   0.6717     C
C       0.3976   0.7815   0.1717     C
N       0.3979   0.2652   0.4685     N
N       0.3979   0.7348   0.9685     N
H       0.4089   0.2125    0.772     H
H       0.4089   0.7875    0.272     H
H       0.4091   0.2968   0.4042     H
H       0.4091   0.7032   0.9042     H
O      0.41038   0.4941   0.5341     O
O      0.41038   0.5059   0.0341     O
O       0.4162   0.4155   0.8513     O
O       0.4162   0.5845   0.3513     O
N        0.431   0.2817   0.6137     N
N        0.431   0.7183   0.1137     N
O      0.45992   0.3825   0.2964     O
O      0.45992   0.6175   0.7964     O
O          0.5   0.2426     0.25     O
N          0.5   0.3313     0.25     N
Eu         0.5  0.44145     0.75    Eu
Eu         0.5  0.55855     0.25    Eu
N          0.5   0.6687     0.75     N
O          0.5   0.7574     0.75     O
O      0.54008   0.3825   0.2036     O
O      0.54008   0.6175   0.7036     O
N        0.569   0.2817   0.8863     N
N        0.569   0.7183   0.3863     N
O       0.5838   0.4155   0.6487     O
O       0.5838   0.5845   0.1487     O
O      0.58962   0.4941   0.9659     O
O      0.58962   0.5059   0.4659     O
H       0.5909   0.2968   0.0958     H
H       0.5909   0.7032   0.5958     H
H       0.5911   0.2125    0.728     H
H       0.5911   0.7875    0.228     H
N       0.6021   0.2652   0.0315     N
N       0.6021   0.7348   0.5315     N
C       0.6024   0.2185   0.8283     C
C       0.6024   0.7815   0.3283     C
C       0.6157   0.4468   0.5713     C
C       0.6157   0.5532   0.0713     C
H       0.6218   0.1838   0.3007     H
H       0.6218   0.8162   0.8007     H
C       0.6544   0.1942   0.0658     C
C       0.6544   0.8058   0.5658     C
C       0.6563   0.1624   0.9359     C
C       0.6563   0.8376   0.4359     C
C       0.6688   0.1599    0.323     C
C       0.6688   0.8401    0.823     C
H       0.6869   0.1137   0.9226     H
H       0.6869   0.8863   0.4226     H
H       0.6901   0.1244   0.5331     H
H       0.6901   0.8756   0.0331     H
C       0.6921   0.4099   0.6093     C
C       0.6921   0.5901   0.1093     C
H       0.6943   0.4378   0.4107     H
H       0.6943   0.5622   0.9107     H
C       0.6969   0.1607   0.2164     C
C       0.6969   0.8393   0.7164     C
C       0.7096   0.1241   0.4619     C
C       0.7096   0.8759   0.9619     C
H       0.7117   0.3704   0.8164     H
H       0.7117   0.6296   0.3164     H
C       0.7214    0.412    0.504     C
C       0.7214    0.588    0.004     C
C       0.7322    0.373   0.7469     C
C       0.7322    0.627   0.2469     C
C       0.7678    0.127   0.2531     C
C       0.7678    0.873   0.7531     C
C       0.7786    0.088    0.496     C
C       0.7786    0.912    0.996     C
H       0.7883   0.1296   0.1836     H
H       0.7883   0.8704   0.6836     H
C       0.7904   0.3759   0.5381     C
C       0.7904   0.6241   0.0381     C
C       0.8031   0.3393   0.7836     C
C       0.8031   0.6607   0.2836     C
H       0.8057   0.0622   0.5893     H
H       0.8057   0.9378   0.0893     H
C       0.8079   0.0901   0.3907     C
C       0.8079   0.9099   0.8907     C
H       0.8099   0.3756   0.4669     H
H       0.8099   0.6244   0.9669     H
H       0.8131   0.3863   0.0774     H
H       0.8131   0.6137   0.5774     H
C       0.8312   0.3401    0.677     C
C       0.8312   0.6599    0.177     C
C       0.8437   0.3376   0.0641     C
C       0.8437   0.6624   0.5641     C
C       0.8456   0.3058   0.9342     C
C       0.8456   0.6942   0.4342     C
H       0.8782   0.3162   0.6993     H
H       0.8782   0.6838   0.1993     H
C       0.8843   0.0532   0.4287     C
C       0.8843   0.9468   0.9287     C
C       0.8976   0.2815   0.1717     C
C       0.8976   0.7185   0.6717     C
N       0.8979   0.2348   0.9685     N
N       0.8979   0.7652   0.4685     N
H       0.9089   0.2875    0.272     H
H       0.9089   0.7125    0.772     H
H       0.9091   0.2032   0.9042     H
H       0.9091   0.7968   0.4042     H
O      0.91038   0.0059   0.0341     O
O      0.91038   0.9941   0.5341     O
O       0.9162   0.0845   0.3513     O
O       0.9162   0.9155   0.8513     O
N        0.931   0.2183   0.1137     N
N        0.931   0.7817   0.6137     N
O      0.95992   0.1175   0.7964     O
O      0.95992   0.8825   0.2964     O
