data_I
_chemical_name_common  '/home/zhangsd/repos/MofS-CGCNN/ML/data/TSD/clean_cifs/EKETUL_clean'
_cell_length_a 20.01000
_cell_length_b 13.19300
_cell_length_c  9.89500
_cell_angle_alpha 90.00000
_cell_angle_beta  113.14200
_cell_angle_gamma 90.00000
_space_group_name_H-M_alt      'P 1'


loop_
_space_group_symop_operation_xyz
  'x, y, z' 

loop_
_atom_site_label
_atom_site_fract_x
_atom_site_fract_y
_atom_site_fract_z
_atom_site_type_symbol
Tb         0.0  0.05871     0.75    Tb
N          0.0    0.167     0.25     N
O          0.0   0.2582     0.25     O
O          0.0   0.7418     0.75     O
N          0.0    0.833     0.75     N
Tb         0.0  0.94129     0.25    Tb
O      0.04069   0.1157   0.2042     O
O      0.04069   0.8843   0.7042     O
N       0.0691   0.2169   0.8838     N
N       0.0691   0.7831   0.3838     N
O      0.08246   0.0841   0.6471     O
O      0.08246   0.9159   0.1471     O
O      0.08908   0.0067   0.9643     O
O      0.08908   0.9933   0.4643     O
H       0.0904   0.2892   0.7257     H
H       0.0904   0.7108   0.2257     H
H       0.0909   0.2014   0.0943     H
H       0.0909   0.7986   0.5943     H
N       0.1019   0.2334   0.0302     N
C       0.1019    0.282   0.8259     C
C       0.1019    0.718   0.3259     C
N       0.1019   0.7666   0.5302     N
C       0.1148   0.0529   0.5696     C
C       0.1148   0.9471   0.0696     C
H       0.1204    0.319   0.2993     H
H       0.1204    0.681   0.7993     H
C       0.1538   0.3053   0.0647     C
C       0.1538   0.6947   0.5647     C
C       0.1549   0.3372   0.9337     C
C       0.1549   0.6628   0.4337     C
C       0.1677   0.3413   0.3223     C
C       0.1677   0.6587   0.8223     C
H       0.1852   0.3861   0.9202     H
H       0.1852   0.6139   0.4202     H
H       0.1891   0.3753   0.5332     H
H       0.1891   0.6247   0.0332     H
C       0.1918   0.0901   0.6085     C
C       0.1918   0.9099   0.1085     C
H        0.194   0.0619   0.4095     H
H        0.194   0.9381   0.9095     H
C       0.1964   0.3392   0.2168     C
C       0.1964   0.6608   0.7168     C
C       0.2086   0.3761   0.4619     C
C       0.2086   0.6239   0.9619     C
H       0.2112   0.1305   0.8169     H
H       0.2112   0.8695   0.3169     H
C        0.221   0.0875   0.5028     C
C        0.221   0.9125   0.0028     C
C       0.2317   0.1274   0.7473     C
C       0.2317   0.8726   0.2473     C
C       0.2683   0.3726   0.2527     C
C       0.2683   0.6274   0.7527     C
C        0.279   0.4125   0.4972     C
C        0.279   0.5875   0.9972     C
H       0.2888   0.3695   0.1831     H
H       0.2888   0.6305   0.6831     H
C       0.2914   0.1239   0.5381     C
C       0.2914   0.8761   0.0381     C
C       0.3036   0.1608   0.7832     C
C       0.3036   0.8392   0.2832     C
H        0.306   0.4381   0.5905     H
H        0.306   0.5619   0.0905     H
C       0.3082   0.4099   0.3915     C
C       0.3082   0.5901   0.8915     C
H       0.3109   0.1247   0.4668     H
H       0.3109   0.8753   0.9668     H
H       0.3148   0.1139   0.0798     H
H       0.3148   0.8861   0.5798     H
C       0.3323   0.1587   0.6777     C
C       0.3323   0.8413   0.1777     C
C       0.3451   0.1628   0.0663     C
C       0.3451   0.8372   0.5663     C
C       0.3462   0.1947   0.9353     C
C       0.3462   0.8053   0.4353     C
H       0.3796    0.181   0.7007     H
H       0.3796    0.819   0.2007     H
C       0.3852   0.4471   0.4304     C
C       0.3852   0.5529   0.9304     C
C       0.3981    0.218   0.1741     C
N       0.3981   0.2666   0.9698     N
N       0.3981   0.7334   0.4698     N
C       0.3981    0.782   0.6741     C
H       0.4091   0.2986   0.9057     H
H       0.4091   0.7014   0.4057     H
H       0.4096   0.2108   0.2743     H
H       0.4096   0.7892   0.7743     H
O      0.41092   0.4933   0.0357     O
O      0.41092   0.5067   0.5357     O
O      0.41754   0.4159   0.3529     O
O      0.41754   0.5841   0.8529     O
N       0.4309   0.2831   0.1162     N
N       0.4309   0.7169   0.6162     N
O      0.45931   0.3843   0.7958     O
O      0.45931   0.6157   0.2958     O
O          0.5   0.2418     0.75     O
N          0.5    0.333     0.75     N
Tb         0.5  0.44129     0.25    Tb
Tb         0.5  0.55871     0.75    Tb
N          0.5    0.667     0.25     N
O          0.5   0.7582     0.25     O
O      0.54069   0.3843   0.7042     O
O      0.54069   0.6157   0.2042     O
N       0.5691   0.2831   0.3838     N
N       0.5691   0.7169   0.8838     N
O      0.58246   0.4159   0.1471     O
O      0.58246   0.5841   0.6471     O
O      0.58908   0.4933   0.4643     O
O      0.58908   0.5067   0.9643     O
H       0.5904   0.2108   0.2257     H
H       0.5904   0.7892   0.7257     H
H       0.5909   0.2986   0.5943     H
H       0.5909   0.7014   0.0943     H
C       0.6019    0.218   0.3259     C
N       0.6019   0.2666   0.5302     N
N       0.6019   0.7334   0.0302     N
C       0.6019    0.782   0.8259     C
C       0.6148   0.4471   0.0696     C
C       0.6148   0.5529   0.5696     C
H       0.6204    0.181   0.7993     H
H       0.6204    0.819   0.2993     H
C       0.6538   0.1947   0.5647     C
C       0.6538   0.8053   0.0647     C
C       0.6549   0.1628   0.4337     C
C       0.6549   0.8372   0.9337     C
C       0.6677   0.1587   0.8223     C
C       0.6677   0.8413   0.3223     C
H       0.6852   0.1139   0.4202     H
H       0.6852   0.8861   0.9202     H
H       0.6891   0.1247   0.0332     H
H       0.6891   0.8753   0.5332     H
C       0.6918   0.4099   0.1085     C
C       0.6918   0.5901   0.6085     C
H        0.694   0.4381   0.9095     H
H        0.694   0.5619   0.4095     H
C       0.6964   0.1608   0.7168     C
C       0.6964   0.8392   0.2168     C
C       0.7086   0.1239   0.9619     C
C       0.7086   0.8761   0.4619     C
H       0.7112   0.3695   0.3169     H
H       0.7112   0.6305   0.8169     H
C        0.721   0.4125   0.0028     C
C        0.721   0.5875   0.5028     C
C       0.7317   0.3726   0.2473     C
C       0.7317   0.6274   0.7473     C
C       0.7683   0.1274   0.7527     C
C       0.7683   0.8726   0.2527     C
C        0.779   0.0875   0.9972     C
C        0.779   0.9125   0.4972     C
H       0.7888   0.1305   0.6831     H
H       0.7888   0.8695   0.1831     H
C       0.7914   0.3761   0.0381     C
C       0.7914   0.6239   0.5381     C
C       0.8036   0.3392   0.2832     C
C       0.8036   0.6608   0.7832     C
H        0.806   0.0619   0.0905     H
H        0.806   0.9381   0.5905     H
C       0.8082   0.0901   0.8915     C
C       0.8082   0.9099   0.3915     C
H       0.8109   0.3753   0.9668     H
H       0.8109   0.6247   0.4668     H
H       0.8148   0.3861   0.5798     H
H       0.8148   0.6139   0.0798     H
C       0.8323   0.3413   0.1777     C
C       0.8323   0.6587   0.6777     C
C       0.8451   0.3372   0.5663     C
C       0.8451   0.6628   0.0663     C
C       0.8462   0.3053   0.4353     C
C       0.8462   0.6947   0.9353     C
H       0.8796    0.319   0.2007     H
H       0.8796    0.681   0.7007     H
C       0.8852   0.0529   0.9304     C
C       0.8852   0.9471   0.4304     C
N       0.8981   0.2334   0.4698     N
C       0.8981    0.282   0.6741     C
C       0.8981    0.718   0.1741     C
N       0.8981   0.7666   0.9698     N
H       0.9091   0.2014   0.4057     H
H       0.9091   0.7986   0.9057     H
H       0.9096   0.2892   0.7743     H
H       0.9096   0.7108   0.2743     H
O      0.91092   0.0067   0.5357     O
O      0.91092   0.9933   0.0357     O
O      0.91754   0.0841   0.8529     O
O      0.91754   0.9159   0.3529     O
N       0.9309   0.2169   0.6162     N
N       0.9309   0.7831   0.1162     N
O      0.95931   0.1157   0.2958     O
O      0.95931   0.8843   0.7958     O
