data_I
_chemical_name_common  '/home/zhangsd/repos/MofS-CGCNN/ML/data/TSD/clean_cifs/EKOKIA_clean'
_cell_length_a 15.31620
_cell_length_b 12.61840
_cell_length_c 15.56590
_cell_angle_alpha 90.00000
_cell_angle_beta  96.16500
_cell_angle_gamma 90.00000
_space_group_name_H-M_alt      'P 1'


loop_
_space_group_symop_operation_xyz
  'x, y, z' 

loop_
_atom_site_label
_atom_site_fract_x
_atom_site_fract_y
_atom_site_fract_z
_atom_site_type_symbol
C       0.0377   0.2397   0.2546     C
C       0.0377   0.2603   0.7546     C
H       0.0482   0.5713   0.1966     H
H       0.0482   0.9287   0.6966     H
C       0.0558   0.7222   0.2362     C
C       0.0558   0.7778   0.7362     C
N       0.0679   0.1819   0.7089     N
N       0.0679   0.3181   0.2089     N
C       0.0867    0.627   0.2111     C
C       0.0867    0.873   0.7111     C
H       0.0986   0.6307   0.7683     H
H       0.0986   0.8693   0.2683     H
N       0.1024    0.179   0.2907     N
N       0.1024    0.321   0.7907     N
C       0.1164   0.6977   0.7525     C
C       0.1164   0.8023   0.2525     C
N       0.1547   0.1941   0.7167     N
N       0.1547   0.3059   0.2167     N
N       0.1751   0.2235   0.2661     N
N       0.1751   0.2765   0.7661     N
C       0.1755   0.6139   0.2072     C
C       0.1755   0.8861   0.7072     C
H       0.1951    0.548   0.1907     H
H       0.1951    0.952   0.6907     H
C       0.2034   0.7177   0.7452     C
C       0.2034   0.7823   0.2452     C
N       0.2345    0.689   0.2254     N
N       0.2345    0.811   0.7254     N
H        0.243   0.6619   0.7548     H
H        0.243   0.8381   0.2548     H
H       0.3058   0.6913   0.4162     H
H       0.3058   0.8087   0.9162     H
H       0.3135   0.6997   0.0347     H
H       0.3135   0.8003   0.5347     H
Cd       0.318  0.17354  0.31607    Cd
Cd       0.318  0.32646  0.81607    Cd
C       0.3341   0.6684   0.4688     C
C       0.3341   0.8316   0.9688     C
C       0.3388   0.7333   0.5403     C
C       0.3388   0.7667   0.0403     C
N       0.3613   0.1509   0.8347     N
N       0.3613   0.3491   0.3347     N
N       0.3642   0.1099  0.91471     N
N       0.3642   0.3901  0.41471     N
N       0.3653   0.0754  0.77757     N
N       0.3653   0.4246  0.27757     N
C       0.3691   0.0062   0.9031     C
C       0.3691   0.4938   0.4031     C
N       0.3701    0.518  0.31916     N
N       0.3701    0.982  0.81916     N
C       0.3719   0.5685    0.476     C
C       0.3719   0.9315    0.976     C
N       0.3783    0.704  0.61789     N
N       0.3783    0.796  0.11789     N
Cd     0.39064  0.66989  0.23082    Cd
Cd     0.39064  0.83011  0.73082    Cd
O      0.39328   0.6531  0.82312     O
O      0.39328   0.8469  0.32312     O
O      0.40567  0.54935  0.12298     O
O      0.40567  0.95065  0.62298     O
C        0.411   0.5375   0.5566     C
C        0.411   0.9625   0.0566     C
C       0.4129   0.6067   0.6248     C
C       0.4129   0.8933   0.1248     C
H       0.4165   0.5163   0.9503     H
H       0.4165   0.9837   0.4503     H
H       0.4289   0.1361   0.5645     H
H       0.4289   0.3639   0.0645     H
H       0.4357   0.0296   0.0643     H
H       0.4357   0.4704   0.5643     H
H       0.4395   0.5848   0.6783     H
H       0.4395   0.9152   0.1783     H
C       0.4617   0.6898   0.8621     C
C       0.4617   0.8102   0.3621     C
O      0.46254   0.1134  0.34136     O
O      0.46254   0.3866  0.84136     O
C       0.4807   0.5199  0.95455     C
C       0.4807   0.9801  0.45455     C
C       0.4866   0.5522   0.1145     C
C       0.4866   0.9478   0.6145     C
C       0.4915   0.1351   0.5595     C
C       0.4915   0.3649   0.0595     C
O      0.49221   0.7223  0.33996     O
O      0.49221   0.7777  0.83996     O
H       0.4987   0.6758   0.9914     H
H       0.4987   0.8242   0.4914     H
H       0.5013   0.1758   0.5086     H
H       0.5013   0.3242   0.0086     H
O      0.50779   0.2223  0.16004     O
O      0.50779   0.2777  0.66004     O
C       0.5085   0.6351   0.9405     C
C       0.5085   0.8649   0.4405     C
C       0.5134   0.0522   0.3855     C
C       0.5134   0.4478   0.8855     C
C       0.5193   0.0199  0.54545     C
C       0.5193   0.4801  0.04545     C
O      0.53746   0.6134  0.15864     O
O      0.53746   0.8866  0.65864     O
C       0.5383   0.1898   0.6379     C
C       0.5383   0.3102   0.1379     C
H       0.5605   0.0848   0.8217     H
H       0.5605   0.4152   0.3217     H
H       0.5643   0.5296   0.4357     H
H       0.5643   0.9704   0.9357     H
H       0.5711   0.6361   0.9355     H
H       0.5711   0.8639   0.4355     H
H       0.5835   0.0163   0.5497     H
H       0.5835   0.4837   0.0497     H
C       0.5871   0.1067   0.8752     C
C       0.5871   0.3933   0.3752     C
C        0.589   0.0375   0.9434     C
C        0.589   0.4625   0.4434     C
O      0.59433  0.04935  0.37702     O
O      0.59433  0.45065  0.87702     O
O      0.60672   0.1531  0.67688     O
O      0.60672   0.3469  0.17688     O
Cd     0.60936  0.16989  0.26918    Cd
Cd     0.60936  0.33011  0.76918    Cd
N       0.6217    0.204  0.88211     N
N       0.6217    0.296  0.38211     N
C       0.6281   0.0685    0.024     C
C       0.6281   0.4315    0.524     C
N       0.6299    0.018  0.18084     N
N       0.6299    0.482  0.68084     N
C       0.6309   0.5062   0.5969     C
C       0.6309   0.9938   0.0969     C
N       0.6347   0.5754  0.72243     N
N       0.6347   0.9246  0.22243     N
N       0.6358   0.6099  0.58529     N
N       0.6358   0.8901  0.08529     N
N       0.6387   0.6509   0.6653     N
N       0.6387   0.8491   0.1653     N
C       0.6612   0.2333   0.9597     C
C       0.6612   0.2667   0.4597     C
C       0.6659   0.1684   0.0312     C
C       0.6659   0.3316   0.5312     C
Cd       0.682  0.67354  0.18393    Cd
Cd       0.682  0.82646  0.68393    Cd
H       0.6865   0.1997   0.4653     H
H       0.6865   0.3003   0.9653     H
H       0.6942   0.1913   0.0838     H
H       0.6942   0.3087   0.5838     H
H        0.757   0.1619   0.7452     H
H        0.757   0.3381   0.2452     H
N       0.7655    0.189   0.2746     N
N       0.7655    0.311   0.7746     N
C       0.7966   0.2177   0.7548     C
C       0.7966   0.2823   0.2548     C
H       0.8049    0.048   0.3093     H
H       0.8049    0.452   0.8093     H
C       0.8245   0.1139   0.2928     C
C       0.8245   0.3861   0.7928     C
N       0.8249   0.7235   0.2339     N
N       0.8249   0.7765   0.7339     N
N       0.8453   0.6941   0.7833     N
N       0.8453   0.8059   0.2833     N
C       0.8836   0.1977   0.7475     C
C       0.8836   0.3023   0.2475     C
N       0.8976    0.679   0.2093     N
N       0.8976    0.821   0.7093     N
H       0.9014   0.1307   0.7317     H
H       0.9014   0.3693   0.2317     H
C       0.9133    0.127   0.2889     C
C       0.9133    0.373   0.7889     C
N       0.9321   0.6819   0.7911     N
N       0.9321   0.8181   0.2911     N
C       0.9442   0.2222   0.2638     C
C       0.9442   0.2778   0.7638     C
H       0.9518   0.0713   0.3034     H
H       0.9518   0.4287   0.8034     H
C       0.9623   0.7397   0.2454     C
C       0.9623   0.7603   0.7454     C
