data_I
_chemical_name_common  '/home/zhangsd/repos/MofS-CGCNN/ML/data/TSD/clean_cifs/EKOPIE_clean'
_cell_length_a 13.21420
_cell_length_b 17.49380
_cell_length_c 17.49380
_cell_angle_alpha 90.00000
_cell_angle_beta  90.00000
_cell_angle_gamma 90.00000
_space_group_name_H-M_alt      'P 1'


loop_
_space_group_symop_operation_xyz
  'x, y, z' 

loop_
_atom_site_label
_atom_site_fract_x
_atom_site_fract_y
_atom_site_fract_z
_atom_site_type_symbol
Cd         0.0   0.6652   0.6652    Cd
O       0.0024   0.1088   0.6047     O
N       0.0118   0.0379   0.6025     N
C       0.0265   0.7297   0.3089     C
C       0.0289   0.7302   0.3876     C
C       0.0336   0.5154   0.6866     C
O       0.0358   0.7249   0.5473     O
C       0.0414    0.429   0.6895     C
C       0.0481   0.2711   0.6879     C
H       0.0496    0.218   0.6862     H
Sr     0.05332   0.8607  0.61179    Sr
O       0.0595   0.6275   0.9973     O
H       0.0774   0.2109   0.1223     H
H       0.0783   0.7583    0.413     H
H       0.0861   0.0802   0.1207     H
O       0.0883    0.008   0.5767     O
O       0.0915   0.6802   0.7973     O
O       0.0921   0.5517   0.6451     O
C       0.1057   0.7708   0.2637     C
C       0.1166   0.3917   0.6483     C
O       0.1183   0.7536   0.1947     O
C       0.1209    0.314   0.6485     C
C       0.1291    0.186   0.1485     C
O       0.1317   0.7464   0.6947     O
C       0.1334   0.1083   0.1483     C
C       0.1443   0.7292   0.7637     C
O       0.1579   0.9483   0.1451     O
O       0.1585   0.8198   0.2973     O
O       0.1617    0.492   0.0767     O
H       0.1639   0.4198   0.6207     H
H       0.1717   0.7417    0.913     H
H       0.1726   0.2891   0.6223     H
O       0.1905   0.8725   0.4973     O
Sr     0.19668   0.6393  0.11179    Sr
H       0.2004    0.282   0.1862     H
C       0.2019   0.2289   0.1879     C
C       0.2086    0.071   0.1895     C
O       0.2142   0.7751   0.0473     O
C       0.2164   0.9846   0.1866     C
C       0.2211   0.7698   0.8876     C
C       0.2235   0.7703   0.8089     C
N       0.2382   0.4621   0.1025     N
O       0.2476   0.3912   0.1047     O
Cd        0.25   0.8348   0.1652    Cd
O       0.2524   0.8953   0.6088     O
N       0.2618   0.8975   0.5379     N
C       0.2765   0.1911   0.2297     C
C       0.2789   0.1124   0.2302     C
C       0.2836   0.8134   0.0154     C
O       0.2858   0.9527   0.2249     O
C       0.2914   0.8105    0.929     C
C       0.2981   0.8121   0.7711     C
H       0.2996   0.8138    0.718     H
Sr     0.30332  0.88821   0.3607    Sr
O       0.3095   0.5027   0.1275     O
H       0.3274   0.3777   0.7109     H
H       0.3283    0.087   0.2583     H
H       0.3361   0.3793   0.5802     H
O       0.3383   0.9233    0.508     O
O       0.3415   0.7027   0.1802     O
O       0.3421   0.8549   0.0517     O
C       0.3557   0.2363   0.2708     C
C       0.3666   0.8517   0.8917     C
O       0.3683   0.3053   0.2536     O
C       0.3709   0.8515    0.814     C
C       0.3791   0.3515    0.686     C
O       0.3817   0.8053   0.2464     O
C       0.3834   0.3517   0.6083     C
C       0.3943   0.7363   0.2292     C
O       0.4079   0.3549   0.4483     O
O       0.4085   0.2027   0.3198     O
O       0.4117   0.4233    0.992     O
H       0.4139   0.8793   0.9198     H
H       0.4217    0.587   0.2417     H
H       0.4226   0.8777   0.7891     H
O       0.4405   0.0027   0.3725     O
Sr     0.44668  0.38821   0.1393    Sr
H       0.4504   0.3138    0.782     H
C       0.4519   0.3121   0.7289     C
C       0.4586   0.3105    0.571     C
O       0.4642   0.4527   0.2751     O
C       0.4664   0.3134   0.4846     C
C       0.4711   0.6124   0.2698     C
C       0.4735   0.6911   0.2703     C
N       0.4882   0.3975   0.9621     N
O       0.4976   0.3953   0.8912     O
Cd         0.5   0.3348   0.3348    Cd
O       0.5024   0.8912   0.3953     O
N       0.5118   0.9621   0.3975     N
C       0.5265   0.2703   0.6911     C
C       0.5289   0.2698   0.6124     C
C       0.5336   0.4846   0.3134     C
O       0.5358   0.2751   0.4527     O
C       0.5414    0.571   0.3105     C
C       0.5481   0.7289   0.3121     C
H       0.5496    0.782   0.3138     H
Sr     0.55332   0.1393  0.38821    Sr
O       0.5595   0.3725   0.0027     O
H       0.5774   0.7891   0.8777     H
H       0.5783   0.2417    0.587     H
H       0.5861   0.9198   0.8793     H
O       0.5883    0.992   0.4233     O
O       0.5915   0.3198   0.2027     O
O       0.5921   0.4483   0.3549     O
C       0.6057   0.2292   0.7363     C
C       0.6166   0.6083   0.3517     C
O       0.6183   0.2464   0.8053     O
C       0.6209    0.686   0.3515     C
C       0.6291    0.814   0.8515     C
O       0.6317   0.2536   0.3053     O
C       0.6334   0.8917   0.8517     C
C       0.6443   0.2708   0.2363     C
O       0.6579   0.0517   0.8549     O
O       0.6585   0.1802   0.7027     O
O       0.6617    0.508   0.9233     O
H       0.6639   0.5802   0.3793     H
H       0.6717   0.2583    0.087     H
H       0.6726   0.7109   0.3777     H
O       0.6905   0.1275   0.5027     O
Sr     0.69668   0.3607  0.88821    Sr
H       0.7004    0.718   0.8138     H
C       0.7019   0.7711   0.8121     C
C       0.7086    0.929   0.8105     C
O       0.7142   0.2249   0.9527     O
C       0.7164   0.0154   0.8134     C
C       0.7211   0.2302   0.1124     C
C       0.7235   0.2297   0.1911     C
N       0.7382   0.5379   0.8975     N
O       0.7476   0.6088   0.8953     O
Cd        0.75   0.1652   0.8348    Cd
O       0.7524   0.1047   0.3912     O
N       0.7618   0.1025   0.4621     N
C       0.7765   0.8089   0.7703     C
C       0.7789   0.8876   0.7698     C
C       0.7836   0.1866   0.9846     C
O       0.7858   0.0473   0.7751     O
C       0.7914   0.1895    0.071     C
C       0.7981   0.1879   0.2289     C
H       0.7996   0.1862    0.282     H
Sr     0.80332  0.11179   0.6393    Sr
O       0.8095   0.4973   0.8725     O
H       0.8274   0.6223   0.2891     H
H       0.8283    0.913   0.7417     H
H       0.8361   0.6207   0.4198     H
O       0.8383   0.0767    0.492     O
O       0.8415   0.2973   0.8198     O
O       0.8421   0.1451   0.9483     O
C       0.8557   0.7637   0.7292     C
C       0.8666   0.1483   0.1083     C
O       0.8683   0.6947   0.7464     O
C       0.8709   0.1485    0.186     C
C       0.8791   0.6485    0.314     C
O       0.8817   0.1947   0.7536     O
C       0.8834   0.6483   0.3917     C
C       0.8943   0.2637   0.7708     C
O       0.9079   0.6451   0.5517     O
O       0.9085   0.7973   0.6802     O
O       0.9117   0.5767    0.008     O
H       0.9139   0.1207   0.0802     H
H       0.9217    0.413   0.7583     H
H       0.9226   0.1223   0.2109     H
O       0.9405   0.9973   0.6275     O
Sr     0.94668  0.61179   0.8607    Sr
H       0.9504   0.6862    0.218     H
C       0.9519   0.6879   0.2711     C
C       0.9586   0.6895    0.429     C
O       0.9642   0.5473   0.7249     O
C       0.9664   0.6866   0.5154     C
C       0.9711   0.3876   0.7302     C
C       0.9735   0.3089   0.7297     C
N       0.9882   0.6025   0.0379     N
O       0.9976   0.6047   0.1088     O
