data_I
_chemical_name_common  '/home/zhangsd/repos/MofS-CGCNN/ML/data/TSD/clean_cifs/EKOPUQ_clean'
_cell_length_a  9.95930
_cell_length_b 19.82270
_cell_length_c 19.82270
_cell_angle_alpha 90.00000
_cell_angle_beta  90.00000
_cell_angle_gamma 90.00000
_space_group_name_H-M_alt      'P 1'


loop_
_space_group_symop_operation_xyz
  'x, y, z' 

loop_
_atom_site_label
_atom_site_fract_x
_atom_site_fract_y
_atom_site_fract_z
_atom_site_type_symbol
Ca         0.0      0.0      0.5    Ca
O          0.0   0.0329   0.2869     O
O          0.0   0.0481   0.3959     O
C          0.0   0.2555   0.3801     C
O          0.0   0.2869   0.9671     O
C          0.0   0.3009   0.4454     C
C          0.0   0.3291   0.8541     C
C          0.0   0.3801   0.7445     C
C          0.0   0.4255   0.6277     C
C          0.0   0.4454   0.6991     C
H          0.0   0.4651   0.5998     H
Ca         0.0      0.5      0.0    Ca
H          0.0   0.5349   0.4002     H
C          0.0   0.5546   0.3009     C
C          0.0   0.5745   0.3723     C
H          0.0   0.5998   0.5349     H
O          0.0   0.6041   0.0481     O
C          0.0   0.6199   0.2555     C
C          0.0   0.6991   0.5546     C
C          0.0   0.8136   0.6144     C
C          0.0   0.8254   0.7359     C
C          0.0   0.8541   0.6709     C
H       0.0787   0.3817   0.3991     H
H       0.0787   0.3991   0.6183     H
H       0.0787   0.6009   0.3817     H
H       0.0787   0.6183   0.6009     H
H       0.1217   0.2353   0.4987     H
H       0.1217   0.4987   0.7647     H
H       0.1217   0.5013   0.2353     H
H       0.1217   0.7647   0.5013     H
C       0.1255   0.2822   0.4867     C
C       0.1255   0.4867   0.7178     C
C       0.1255   0.5133   0.2822     C
C       0.1255   0.7178   0.5133     C
H       0.1285   0.3091   0.5269     H
H       0.1285   0.4731   0.3091     H
H       0.1285   0.5269   0.6909     H
H       0.1285   0.6909   0.4731     H
O        0.144   0.0737   0.5537     O
O        0.144   0.4463   0.0737     O
O        0.144   0.5537   0.9263     O
O        0.144   0.9263   0.4463     O
H       0.2045   0.2905   0.4602     H
H       0.2045   0.4602   0.7095     H
H       0.2045   0.5398   0.2905     H
H       0.2045   0.7095   0.5398     H
O       0.2419   0.0699   0.6526     O
O       0.2419   0.3474   0.0699     O
O       0.2419   0.6526   0.9301     O
O       0.2419   0.9301   0.3474     O
C       0.2489   0.0752   0.5898     C
C       0.2489   0.4102   0.0752     C
C       0.2489   0.5898   0.9248     C
C       0.2489   0.9248   0.4102     C
H       0.2992   0.1105   0.4657     H
H       0.2992   0.4657   0.8895     H
H       0.2992   0.5343   0.1105     H
H       0.2992   0.8895   0.5343     H
H       0.3029   0.1343   0.3664     H
H       0.3029   0.3664   0.8657     H
H       0.3029   0.6336   0.1343     H
H       0.3029   0.8657   0.6336     H
C       0.3794   0.0861   0.5558     C
C       0.3794   0.4442   0.0861     C
C       0.3794   0.5558   0.9139     C
C       0.3794   0.9139   0.4442     C
C       0.3806   0.1049    0.488     C
C       0.3806    0.488   0.8951     C
C       0.3806    0.512   0.1049     C
C       0.3806   0.8951    0.512     C
C       0.3831   0.1193   0.3441     C
C       0.3831   0.3441   0.8807     C
C       0.3831   0.6559   0.1193     C
C       0.3831   0.8807   0.6559     C
H       0.3836   0.0709   0.3421     H
H       0.3836   0.3421   0.9291     H
H       0.3836   0.6579   0.0709     H
H       0.3836   0.9291   0.6579     H
H       0.3854   0.1372   0.2991     H
H       0.3854   0.2991   0.8628     H
H       0.3854   0.7009   0.1372     H
H       0.3854   0.8628   0.7009     H
H       0.4213   0.2339    0.405     H
H       0.4213    0.405   0.7661     H
H       0.4213    0.595   0.2339     H
H       0.4213   0.7661    0.595     H
H          0.5   0.0661   0.6352     H
C          0.5   0.0776   0.5897     C
C          0.5   0.1155   0.4523     C
C          0.5   0.1426   0.3813     C
C          0.5    0.218    0.382     C
H          0.5   0.2345   0.3365     H
H          0.5   0.3365   0.7655     H
H          0.5   0.3648   0.0661     H
C          0.5   0.3813   0.8574     C
C          0.5    0.382    0.782     C
C          0.5   0.4103   0.0776     C
C          0.5   0.4523   0.8845     C
C          0.5   0.5477   0.1155     C
C          0.5   0.5897   0.9224     C
C          0.5    0.618    0.218     C
C          0.5   0.6187   0.1426     C
H          0.5   0.6352   0.9339     H
H          0.5   0.6635   0.2345     H
H          0.5   0.7655   0.6635     H
C          0.5    0.782    0.618     C
C          0.5   0.8574   0.6187     C
C          0.5   0.8845   0.5477     C
C          0.5   0.9224   0.4103     C
H          0.5   0.9339   0.3648     H
H       0.5787   0.2339    0.405     H
H       0.5787    0.405   0.7661     H
H       0.5787    0.595   0.2339     H
H       0.5787   0.7661    0.595     H
H       0.6146   0.1372   0.2991     H
H       0.6146   0.2991   0.8628     H
H       0.6146   0.7009   0.1372     H
H       0.6146   0.8628   0.7009     H
H       0.6164   0.0709   0.3421     H
H       0.6164   0.3421   0.9291     H
H       0.6164   0.6579   0.0709     H
H       0.6164   0.9291   0.6579     H
C       0.6169   0.1193   0.3441     C
C       0.6169   0.3441   0.8807     C
C       0.6169   0.6559   0.1193     C
C       0.6169   0.8807   0.6559     C
C       0.6194   0.1049    0.488     C
C       0.6194    0.488   0.8951     C
C       0.6194    0.512   0.1049     C
C       0.6194   0.8951    0.512     C
C       0.6206   0.0861   0.5558     C
C       0.6206   0.4442   0.0861     C
C       0.6206   0.5558   0.9139     C
C       0.6206   0.9139   0.4442     C
H       0.6971   0.1343   0.3664     H
H       0.6971   0.3664   0.8657     H
H       0.6971   0.6336   0.1343     H
H       0.6971   0.8657   0.6336     H
H       0.7008   0.1105   0.4657     H
H       0.7008   0.4657   0.8895     H
H       0.7008   0.5343   0.1105     H
H       0.7008   0.8895   0.5343     H
C       0.7511   0.0752   0.5898     C
C       0.7511   0.4102   0.0752     C
C       0.7511   0.5898   0.9248     C
C       0.7511   0.9248   0.4102     C
O       0.7581   0.0699   0.6526     O
O       0.7581   0.3474   0.0699     O
O       0.7581   0.6526   0.9301     O
O       0.7581   0.9301   0.3474     O
H       0.7955   0.2905   0.4602     H
H       0.7955   0.4602   0.7095     H
H       0.7955   0.5398   0.2905     H
H       0.7955   0.7095   0.5398     H
O        0.856   0.0737   0.5537     O
O        0.856   0.4463   0.0737     O
O        0.856   0.5537   0.9263     O
O        0.856   0.9263   0.4463     O
H       0.8715   0.3091   0.5269     H
H       0.8715   0.4731   0.3091     H
H       0.8715   0.5269   0.6909     H
H       0.8715   0.6909   0.4731     H
C       0.8745   0.2822   0.4867     C
C       0.8745   0.4867   0.7178     C
C       0.8745   0.5133   0.2822     C
C       0.8745   0.7178   0.5133     C
H       0.8783   0.2353   0.4987     H
H       0.8783   0.4987   0.7647     H
H       0.8783   0.5013   0.2353     H
H       0.8783   0.7647   0.5013     H
H       0.9213   0.3817   0.3991     H
H       0.9213   0.3991   0.6183     H
H       0.9213   0.6009   0.3817     H
H       0.9213   0.6183   0.6009     H
Cd         1.0  0.07081  0.65752    Cd
C          1.0    0.071   0.3374     C
O          1.0   0.1387   0.7581     O
C          1.0   0.1459   0.3291     C
H          1.0   0.1474   0.2258     H
H          1.0   0.1666   0.4281     H
C          1.0   0.1746   0.2641     C
C          1.0   0.1864   0.3856     C
O          1.0   0.1874   0.6602     O
C          1.0   0.1904   0.7225     C
H          1.0   0.2258   0.8526     H
O          1.0   0.2419   0.1387     O
C          1.0   0.2442   0.2586     C
C          1.0   0.2586   0.7558     C
C          1.0   0.2641   0.8254     C
C          1.0   0.2775   0.1904     C
C          1.0   0.2835    0.317     C
H          1.0    0.313   0.6697     H
C          1.0    0.317   0.7165     C
H          1.0   0.3303    0.313     H
C          1.0   0.3374    0.929     C
O          1.0   0.3398   0.1874     O
Cd         1.0  0.34248  0.07081    Cd
C          1.0   0.3723   0.4255     C
C          1.0   0.3856   0.8136     C
O          1.0   0.3959   0.9519     O
H          1.0   0.4002   0.4651     H
H          1.0   0.4281   0.8334     H
H          1.0   0.5719   0.1666     H
C          1.0   0.6144   0.1864     C
C          1.0   0.6277   0.5745     C
Cd         1.0  0.65752  0.92919    Cd
O          1.0   0.6602   0.8126     O
C          1.0   0.6626    0.071     C
H          1.0   0.6697    0.687     H
C          1.0   0.6709   0.1459     C
C          1.0    0.683   0.2835     C
H          1.0    0.687   0.3303     H
O          1.0   0.7131   0.0329     O
C          1.0   0.7165    0.683     C
C          1.0   0.7225   0.8096     C
C          1.0   0.7359   0.1746     C
C          1.0   0.7414   0.2442     C
C          1.0   0.7445   0.6199     C
C          1.0   0.7558   0.7414     C
O          1.0   0.7581   0.8613     O
H          1.0   0.7742   0.1474     H
C          1.0   0.8096   0.2775     C
O          1.0   0.8126   0.3398     O
H          1.0   0.8334   0.5719     H
H          1.0   0.8526   0.7742     H
O          1.0   0.8613   0.2419     O
C          1.0    0.929   0.6626     C
Cd         1.0  0.92919  0.34248    Cd
O          1.0   0.9519   0.6041     O
O          1.0   0.9671   0.7131     O
