data_I
_chemical_name_common  '/home/zhangsd/repos/MofS-CGCNN/ML/data/TSD/clean_cifs/ELELEN_clean'
_cell_length_a 12.48100
_cell_length_b 12.86200
_cell_length_c 13.33200
_cell_angle_alpha 100.00100
_cell_angle_beta  105.25300
_cell_angle_gamma 111.73600
_space_group_name_H-M_alt      'P 1'


loop_
_space_group_symop_operation_xyz
  'x, y, z' 

loop_
_atom_site_label
_atom_site_fract_x
_atom_site_fract_y
_atom_site_fract_z
_atom_site_type_symbol
Cu         0.0      0.0      0.5    Cu
H       0.0082   0.7599   0.3898     H
H       0.0112    0.474   0.0997     H
C       0.0114   0.6345   0.1033     C
H       0.0207   0.6138   0.5559     H
H       0.0297   0.6888   0.0611     H
C       0.0316   0.8138   0.3522     C
N       0.0321   0.9173   0.3744     N
C        0.035   0.5303   0.0604     C
H       0.0436   0.8579   0.6713     H
C       0.0527   0.5574   0.5395     C
H       0.0563   0.5037   0.6766     H
N       0.0684   0.7961   0.2699     N
C       0.0719   0.9626    0.299     C
H       0.0721   0.0571   0.9751     H
H       0.0746   0.6406   0.2621     H
H        0.075   0.3928   0.9052     H
H       0.0814   0.0365    0.294     H
C       0.0903   0.6966   0.2213     C
N       0.0958   0.8912   0.2331     N
H       0.1122   0.5889   0.5055     H
C       0.1172   0.5403   0.6454     C
C       0.1199   0.9083   0.6717     C
H       0.1227   0.5573   0.0749     H
N       0.1313   0.9768   0.6058     N
H        0.149   0.9396   0.0464     H
H       0.1534   0.4875   0.6291     H
C       0.1589   0.0928   0.0204     C
H       0.1669   0.1294   0.0937     H
H       0.1765   0.7257   0.2286     H
H        0.181   0.7058   0.7491     H
H       0.1937   0.9624   0.9495     H
C       0.2017   0.9993   0.0228     C
C       0.2173   0.6544   0.7286     C
N        0.218   0.1598   0.8728     N
N       0.2233    0.918   0.7357     N
N       0.2287   0.1846   0.9782     N
C       0.2516   0.0324   0.6314     C
N       0.2608   0.6544   0.9195     N
H       0.2765   0.6936   0.6969     H
N       0.2808   0.6315   0.8261     N
H       0.2908   0.0875   0.6003     H
C       0.2933   0.2581   0.8684     C
H       0.3044   0.2689   0.8041     H
N       0.3075   0.9985    0.707     N
C       0.3103   0.2938   0.0317     C
C       0.3272   0.6174   0.9836     C
H       0.3273   0.9092   0.1507     H
H       0.3317    0.623   0.0553     H
H       0.3328   0.3296   0.1057     H
C       0.3333   0.0454   0.0973     C
H       0.3435   0.0923   0.1674     H
N       0.3553   0.3447   0.9654     N
C       0.3568   0.5824   0.8374     C
H       0.3597   0.9058   0.0445     H
C       0.3743   0.9568   0.1144     C
H       0.3847    0.559   0.7835     H
H       0.3864   0.0968   0.0674     H
N       0.3883   0.5706   0.9371     N
C       0.4399   0.0537   0.7739     C
H       0.4477   0.9554   0.8633     H
H       0.4542   0.1186   0.8333     H
H       0.4778   0.9236   0.7592     H
H       0.4848   0.0873   0.7293     H
C       0.4926   0.9888   0.8186     C
Cu         0.5      0.5      0.0    Cu
C       0.5074   0.0112   0.1814     C
H       0.5152   0.9127   0.2707     H
H       0.5222   0.0764   0.2408     H
H       0.5458   0.8814   0.1667     H
H       0.5523   0.0446   0.1367     H
C       0.5601   0.9463   0.2261     C
N       0.6117   0.4294   0.0629     N
H       0.6136   0.9032   0.9326     H
H       0.6153    0.441   0.2165     H
C       0.6257   0.0432   0.8856     C
H       0.6403   0.0942   0.9555     H
C       0.6432   0.4176   0.1626     C
N       0.6447   0.6553   0.0346     N
H       0.6565   0.9077   0.8326     H
C       0.6667   0.9546   0.9027     C
H       0.6672   0.6704   0.8943     H
H       0.6683    0.377   0.9447     H
H       0.6727   0.0908   0.8493     H
C       0.6728   0.3826   0.0164     C
C       0.6897   0.7062   0.9683     C
N       0.6925   0.0015    0.293     N
H       0.6956   0.7311   0.1959     H
C       0.7067   0.7419   0.1316     C
H       0.7092   0.9125   0.3997     H
N       0.7192   0.3685   0.1739     N
H       0.7235   0.3064   0.3031     H
N       0.7392   0.3456   0.0805     N
C       0.7484   0.9676   0.3686     C
N       0.7713   0.8154   0.0218     N
N       0.7767    0.082   0.2643     N
N        0.782   0.8402   0.1272     N
C       0.7827   0.3456   0.2714     C
C       0.7983   0.0007   0.9772     C
H       0.8063   0.0376   0.0505     H
H        0.819   0.2942   0.2509     H
H       0.8235   0.2743   0.7714     H
H       0.8331   0.8706   0.9063     H
C       0.8411   0.9072   0.9796     C
H       0.8466   0.5125   0.3709     H
H        0.851   0.0604   0.9536     H
N       0.8687   0.0232   0.3942     N
H       0.8773   0.4427   0.9251     H
C       0.8801   0.0917   0.3283     C
C       0.8828   0.4597   0.3546     C
H       0.8878   0.4111   0.4945     H
N       0.9042   0.1088   0.7669     N
C       0.9097   0.3034   0.7787     C
H       0.9186   0.9635    0.706     H
H        0.925   0.6072   0.0948     H
H       0.9254   0.3594   0.7379     H
H       0.9279   0.9429   0.0249     H
C       0.9281   0.0374    0.701     C
N       0.9316   0.2039   0.7301     N
H       0.9437   0.4963   0.3234     H
C       0.9473   0.4426   0.4605     C
H       0.9564   0.1421   0.3287     H
C        0.965   0.4697   0.9396     C
N       0.9679   0.0827   0.6256     N
C       0.9684   0.1862   0.6478     C
H       0.9703   0.3112   0.9389     H
H       0.9793   0.3862   0.4441     H
C       0.9886   0.3655   0.8967     C
H       0.9888    0.526   0.9003     H
H       0.9918   0.2401   0.6102     H
