data_I
_chemical_name_common  '/home/zhangsd/repos/MofS-CGCNN/ML/data/TSD/clean_cifs/ELERIX01_clean'
_cell_length_a  7.12090
_cell_length_b 18.30230
_cell_length_c 24.98330
_cell_angle_alpha 90.00000
_cell_angle_beta  90.00000
_cell_angle_gamma 99.60600
_space_group_name_H-M_alt      'P 1'


loop_
_space_group_symop_operation_xyz
  'x, y, z' 

loop_
_atom_site_label
_atom_site_fract_x
_atom_site_fract_y
_atom_site_fract_z
_atom_site_type_symbol
I      0.00938   0.0295  0.08917     I
I      0.00938   0.0295  0.41083     I
O       0.0241   0.5844     0.25     O
I      0.02562  0.05863     0.25     I
C         0.03   0.7146     0.25     C
C        0.042   0.8454     0.25     C
O       0.0665   0.5587   0.5715     O
O       0.0665   0.5587   0.9285     O
H       0.0876   0.8583   0.1043     H
H       0.0876   0.8583   0.3957     H
H       0.0948   0.7828   0.6739     H
H       0.0948   0.7828   0.8261     H
C       0.1098   0.8255   0.0775     C
C       0.1098   0.8255   0.4225     C
H       0.1106   0.7392   0.1273     H
H       0.1106   0.7392   0.3727     H
H       0.1153   0.8924     0.25     H
H        0.116   0.5582   0.6025     H
H        0.116   0.5582   0.8975     H
H       0.1168   0.5637   0.5406     H
H       0.1168   0.5637   0.9594     H
Cu       0.122  0.95588  0.00758    Cu
Cu       0.122  0.95588  0.49242    Cu
C       0.1228   0.7538   0.0916     C
C       0.1228   0.7538   0.4084     C
N       0.1277   0.8499   0.0272     N
N       0.1277   0.8499   0.4728     N
C         0.13    0.646     0.25     C
C        0.137   0.7853     0.25     C
N       0.1456   0.1588     0.75     N
C       0.1541   0.7035   0.0526     C
C       0.1541   0.7035   0.4474     C
C       0.1592   0.8015   0.5103     C
C       0.1592   0.8015   0.9897     C
O       0.1648   0.6074   0.1152     O
O       0.1648   0.6074   0.3848     O
C        0.167   0.2904     0.75     C
C       0.1711   0.6248   0.0666     C
C       0.1711   0.6248   0.4334     C
H       0.1718   0.8178   0.5456     H
H       0.1718   0.8178   0.9544     H
C       0.1744   0.7282   0.0003     C
C       0.1744   0.7282   0.4997     C
H       0.1977   0.6965   0.5271     H
H       0.1977   0.6965   0.9729     H
O          0.2   0.5808     0.03     O
O          0.2   0.5808     0.47     O
H       0.2025   0.6745   0.6588     H
H       0.2025   0.6745   0.8412     H
C        0.224   0.7843   0.6671     C
C        0.224   0.7843   0.8329     C
H        0.245   0.3367     0.75     H
Cu      0.2479  0.94631  0.68298    Cu
Cu      0.2479  0.94631  0.81702    Cu
C        0.249   0.2258     0.75     C
O       0.2676    0.349   0.1361     O
O       0.2676    0.349   0.3639     O
Cu      0.2682  0.06531     0.75    Cu
H       0.2693   0.7921     0.25     H
La     0.27768  0.48356  0.09894    La
La     0.27768  0.48356  0.40106    La
H       0.2779   0.2108   0.1381     H
H       0.2779   0.2108   0.3619     H
C        0.288   0.7188   0.6584     C
C        0.288   0.7188   0.8416     C
O       0.2906   0.4166   0.0166     O
O       0.2906   0.4166   0.4834     O
H       0.3008   0.2803   0.0343     H
H       0.3008   0.2803   0.4657     H
O       0.3071   0.6578     0.25     O
H       0.3083   0.1608   0.0142     H
H       0.3083   0.1608   0.4858     H
C       0.3219   0.2671   0.5008     C
C       0.3219   0.2671   0.9992     C
C       0.3238   0.1953   0.5135     C
C       0.3238   0.1953   0.9865     C
Cu      0.3265  0.06086  0.58008    Cu
Cu      0.3265  0.06086  0.91992    Cu
N       0.3356    0.849   0.6663     N
N       0.3356    0.849   0.8337     N
N       0.3466   0.1702   0.5633     N
N       0.3466   0.1702   0.9367     N
C       0.3514   0.3209   0.5404     C
C       0.3514   0.3209   0.9596     C
C       0.3546   0.4016   0.5286     C
C       0.3546   0.4016   0.9714     C
C       0.3746   0.2218   0.6015     C
C       0.3746   0.2218   0.8985     C
C       0.3786   0.2972   0.5925     C
C       0.3786   0.2972   0.9075     C
H       0.3814   0.2303     0.75     H
H       0.3926   0.2064   0.6363     H
H       0.3926   0.2064   0.8637     H
H        0.398   0.1063   0.1552     H
H        0.398   0.1063   0.3448     H
H        0.399    0.331   0.6206     H
H        0.399    0.331   0.8794     H
C       0.4063   0.2141   0.1464     C
C       0.4063   0.2141   0.3536     C
O       0.4187   0.4488   0.5642     O
O       0.4187   0.4488   0.9358     O
O       0.4393   0.5875   0.6307     O
O       0.4393   0.5875   0.8693     O
C       0.4467    0.353   0.1378     C
C       0.4467    0.353   0.3622     C
C       0.4789   0.7178   0.6492     C
C       0.4789   0.7178   0.8508     C
C       0.4803   0.1515   0.1559     C
C       0.4803   0.1515   0.3441     C
I        0.483  0.94315  0.17021     I
I        0.483  0.94315  0.32979     I
I          0.5      0.0      0.0     I
I          0.5      0.0      0.5     I
I        0.517  0.05685  0.67021     I
I        0.517  0.05685  0.82979     I
C       0.5197   0.8485   0.6559     C
C       0.5197   0.8485   0.8441     C
C       0.5211   0.2822   0.1492     C
C       0.5211   0.2822   0.3508     C
C       0.5533    0.647   0.6378     C
C       0.5533    0.647   0.8622     C
O       0.5607   0.4125   0.1307     O
O       0.5607   0.4125   0.3693     O
O       0.5813   0.5512   0.0642     O
O       0.5813   0.5512   0.4358     O
C       0.5937   0.7859   0.6464     C
C       0.5937   0.7859   0.8536     C
H        0.601    0.669   0.1206     H
H        0.601    0.669   0.3794     H
H        0.602   0.8937   0.6552     H
H        0.602   0.8937   0.8448     H
H       0.6074   0.7936   0.1363     H
H       0.6074   0.7936   0.3637     H
H       0.6186   0.7697     0.25     H
C       0.6214   0.7028   0.0925     C
C       0.6214   0.7028   0.4075     C
C       0.6254   0.7782   0.1015     C
C       0.6254   0.7782   0.3985     C
C       0.6454   0.5984   0.0286     C
C       0.6454   0.5984   0.4714     C
C       0.6486   0.6791   0.0404     C
C       0.6486   0.6791   0.4596     C
N       0.6534   0.8298   0.0633     N
N       0.6534   0.8298   0.4367     N
N       0.6644    0.151   0.1663     N
N       0.6644    0.151   0.3337     N
Cu      0.6735  0.93914  0.08008    Cu
Cu      0.6735  0.93914  0.41992    Cu
C       0.6762   0.8047   0.0135     C
C       0.6762   0.8047   0.4865     C
C       0.6781   0.7329   0.0008     C
C       0.6781   0.7329   0.4992     C
H       0.6917   0.8392   0.5142     H
H       0.6917   0.8392   0.9858     H
O       0.6929   0.3422     0.75     O
H       0.6992   0.7197   0.5343     H
H       0.6992   0.7197   0.9657     H
O       0.7094   0.5834   0.5166     O
O       0.7094   0.5834   0.9834     O
C        0.712   0.2812   0.1584     C
C        0.712   0.2812   0.3416     C
H       0.7221   0.7892   0.6381     H
H       0.7221   0.7892   0.8619     H
La     0.72232  0.51644  0.59894    La
La     0.72232  0.51644  0.90106    La
H       0.7307   0.2079     0.75     H
Cu      0.7318  0.93469     0.25    Cu
O       0.7324    0.651   0.6361     O
O       0.7324    0.651   0.8639     O
C        0.751   0.7742     0.25     C
Cu      0.7521  0.05369  0.18298    Cu
Cu      0.7521  0.05369  0.31702    Cu
H        0.755   0.6633     0.25     H
C        0.776   0.2157   0.1671     C
C        0.776   0.2157   0.3329     C
H       0.7975   0.3255   0.1588     H
H       0.7975   0.3255   0.3412     H
O          0.8   0.4192     0.53     O
O          0.8   0.4192     0.97     O
H       0.8023   0.3035   0.0271     H
H       0.8023   0.3035   0.4729     H
C       0.8256   0.2718   0.5003     C
C       0.8256   0.2718   0.9997     C
H       0.8282   0.1822   0.0456     H
H       0.8282   0.1822   0.4544     H
C       0.8289   0.3752   0.5666     C
C       0.8289   0.3752   0.9334     C
C        0.833   0.7096     0.25     C
O       0.8352   0.3926   0.6152     O
O       0.8352   0.3926   0.8848     O
C       0.8408   0.1985   0.0103     C
C       0.8408   0.1985   0.4897     C
C       0.8459   0.2965   0.5526     C
C       0.8459   0.2965   0.9474     C
N       0.8544   0.8412     0.25     N
C        0.863   0.2147     0.75     C
C         0.87    0.354     0.75     C
N       0.8723   0.1501   0.5272     N
N       0.8723   0.1501   0.9728     N
C       0.8772   0.2462   0.5916     C
C       0.8772   0.2462   0.9084     C
Cu       0.878  0.04412  0.50758    Cu
Cu       0.878  0.04412  0.99242    Cu
H       0.8832   0.4363   0.0406     H
H       0.8832   0.4363   0.4594     H
H        0.884   0.4418   0.1025     H
H        0.884   0.4418   0.3975     H
H       0.8847   0.1076     0.75     H
H       0.8894   0.2608   0.6273     H
H       0.8894   0.2608   0.8727     H
C       0.8902   0.1745   0.5775     C
C       0.8902   0.1745   0.9225     C
H       0.9052   0.2172   0.1739     H
H       0.9052   0.2172   0.3261     H
H       0.9124   0.1417   0.6043     H
H       0.9124   0.1417   0.8957     H
O       0.9335   0.4413   0.0715     O
O       0.9335   0.4413   0.4285     O
C        0.958   0.1546     0.75     C
C         0.97   0.2854     0.75     C
I      0.97438  0.94137     0.75     I
O       0.9759   0.4156     0.75     O
I      0.99062   0.9705  0.58917     I
I      0.99062   0.9705  0.91083     I
