data_I
_chemical_name_common  '/home/zhangsd/repos/MofS-CGCNN/ML/data/TSD/clean_cifs/ELERIX_clean'
_cell_length_a  7.06140
_cell_length_b 18.20800
_cell_length_c 24.72900
_cell_angle_alpha 90.00000
_cell_angle_beta  90.00000
_cell_angle_gamma 100.32000
_space_group_name_H-M_alt      'P 1'


loop_
_space_group_symop_operation_xyz
  'x, y, z' 

loop_
_atom_site_label
_atom_site_fract_x
_atom_site_fract_y
_atom_site_fract_z
_atom_site_type_symbol
I          0.0      0.5      0.0     I
I          0.0      0.5      0.5     I
C        0.021   0.3497   0.1547     C
C        0.021   0.3497   0.3453     C
I      0.02295  0.55701  0.17011     I
I      0.02295  0.55701  0.32989     I
C       0.0273   0.7837   0.6503     C
C       0.0273   0.7837   0.8497     C
C       0.0501   0.1454   0.1408     C
C       0.0501   0.1454   0.3592     C
O       0.0639   0.9152  0.63424     O
O       0.0639   0.9152  0.86576     O
O       0.0836    0.051  0.56362     O
O       0.0836    0.051  0.93638     O
C       0.0933   0.2844   0.1464     C
C       0.0933   0.2844   0.3536     C
H        0.096   0.1695   0.6213     H
H        0.096   0.1695   0.8787     H
H       0.1037   0.3953   0.1511     H
H       0.1037   0.3953   0.3489     H
H       0.1072   0.2936   0.6375     H
H       0.1072   0.2936   0.8625     H
H       0.1137   0.2676     0.75     H
C       0.1179   0.2037    0.593     C
C       0.1179   0.2037    0.907     C
C       0.1228    0.278   0.6022     C
C       0.1228    0.278   0.8978     C
C       0.1459   0.0979   0.5279     C
C       0.1459   0.0979   0.9721     C
C        0.146   0.1797   0.5405     C
C        0.146   0.1797   0.9595     C
N        0.149   0.3298  0.56281     N
N        0.149   0.3298  0.93719     N
N       0.1644   0.6506  0.66787     N
N       0.1644   0.6506  0.83213     N
Cu     0.17173  0.43988  0.58035    Cu
Cu     0.17173  0.43988  0.91965    Cu
C       0.1734   0.2328      0.0     C
C       0.1734   0.2328      0.5     C
C       0.1734   0.3065   0.5123     C
C       0.1734   0.3065   0.9877     C
H        0.191   0.3415   0.0155     H
H        0.191   0.3415   0.4845     H
H       0.1919   0.2188   0.0355     H
H       0.1919   0.2188   0.4645     H
O       0.1934   0.8404     0.25     O
O        0.213   0.0847  0.01724     O
O        0.213   0.0847  0.48276     O
C       0.2178   0.7843   0.6628     C
C       0.2178   0.7843   0.8372     C
H       0.2228   0.2867   0.1381     H
H       0.2228   0.2867   0.3619     H
La     0.22471  0.01602  0.10028    La
La     0.22471  0.01602  0.39972    La
Cu     0.22844  0.43586     0.75    Cu
O       0.2309   0.1496  0.13933     O
O       0.2309   0.1496  0.36067     O
H       0.2338   0.7059     0.25     H
C       0.2473   0.2734     0.75     C
Cu        0.25  0.55401   0.6843    Cu
Cu        0.25  0.55401   0.8157    Cu
H       0.2507   0.1625     0.75     H
C       0.2789   0.7172   0.6717     C
C       0.2789   0.7172   0.8283     C
O       0.2971   0.9189  0.03077     O
O       0.2971   0.9189  0.46923     O
H       0.2998   0.8021   0.5281     H
H       0.2998   0.8021   0.9719     H
H       0.3042   0.8292   0.6651     H
H       0.3042   0.8292   0.8349     H
H       0.3215   0.6814   0.5474     H
H       0.3215   0.6814   0.9526     H
C       0.3244   0.7702   0.5006     C
C       0.3244   0.7702   0.9994     C
C       0.3288   0.2094     0.75     C
C       0.3289   0.8743   0.0678     C
C       0.3289   0.8743   0.4322     C
C       0.3383    0.698   0.5119     C
C       0.3383    0.698   0.9881     C
O       0.3386    0.892  0.11617     O
O       0.3386    0.892  0.38383     O
C       0.3473   0.7958   0.0525     C
C       0.3473   0.7958   0.4475     C
N        0.348    0.342     0.75     N
C       0.3675   0.7128     0.25     C
C       0.3736   0.8511     0.25     C
N       0.3751   0.6501   0.0262     N
N       0.3751   0.6501   0.4738     N
Cu     0.37881   0.5432  0.00726    Cu
Cu     0.37881   0.5432  0.49274    Cu
C       0.3822   0.7466    0.092     C
C       0.3822   0.7466    0.408     C
H       0.3834   0.6041     0.25     H
H        0.396   0.7617   0.1279     H
H        0.396   0.7617   0.3721     H
C       0.3964   0.6747   0.0774     C
C       0.3964   0.6747   0.4226     C
H       0.4071   0.7186    0.681     H
H       0.4071   0.7186    0.819     H
H       0.4217   0.6419   0.1042     H
H       0.4217   0.6419   0.3958     H
C       0.4585   0.6516     0.25     C
I      0.46956  0.44039     0.25     I
C       0.4742    0.784     0.25     C
O       0.4806    0.915     0.25     O
I      0.48946  0.47106  0.08995     I
I      0.48946  0.47106  0.41005     I
I      0.51054  0.52894  0.58995     I
I      0.51054  0.52894  0.91005     I
O       0.5194    0.085     0.75     O
C       0.5258    0.216     0.75     C
I      0.53044  0.55961     0.75     I
C       0.5415   0.3484     0.75     C
H       0.5783   0.3581   0.6042     H
H       0.5783   0.3581   0.8958     H
H       0.5929   0.2814    0.181     H
H       0.5929   0.2814    0.319     H
C       0.6036   0.3253   0.5774     C
C       0.6036   0.3253   0.9226     C
H        0.604   0.2383   0.6279     H
H        0.604   0.2383   0.8721     H
H       0.6166   0.3959     0.75     H
C       0.6178   0.2534    0.592     C
C       0.6178   0.2534    0.908     C
Cu     0.62119   0.4568  0.50726    Cu
Cu     0.62119   0.4568  0.99274    Cu
N       0.6249   0.3499   0.5262     N
N       0.6249   0.3499   0.9738     N
C       0.6264   0.1489     0.75     C
C       0.6325   0.2872     0.75     C
N        0.652    0.658     0.25     N
C       0.6527   0.2042   0.5525     C
C       0.6527   0.2042   0.9475     C
O       0.6614    0.108  0.61617     O
O       0.6614    0.108  0.88383     O
C       0.6617    0.302   0.0119     C
C       0.6617    0.302   0.4881     C
C       0.6711   0.1257   0.5678     C
C       0.6711   0.1257   0.9322     C
C       0.6712   0.7906     0.25     C
C       0.6756   0.2298   0.0006     C
C       0.6756   0.2298   0.4994     C
H       0.6785   0.3186   0.0474     H
H       0.6785   0.3186   0.4526     H
H       0.6958   0.1708   0.1651     H
H       0.6958   0.1708   0.3349     H
H       0.7002   0.1979   0.0281     H
H       0.7002   0.1979   0.4719     H
O       0.7029   0.0811  0.53077     O
O       0.7029   0.0811  0.96923     O
C       0.7211   0.2828   0.1717     C
C       0.7211   0.2828   0.3283     C
H       0.7493   0.8375     0.25     H
Cu        0.75  0.44599   0.1843    Cu
Cu        0.75  0.44599   0.3157    Cu
C       0.7527   0.7266     0.25     C
H       0.7662   0.2941     0.75     H
O       0.7691   0.8504  0.63933     O
O       0.7691   0.8504  0.86067     O
Cu     0.77156  0.56414     0.25    Cu
La     0.77529  0.98398  0.60028    La
La     0.77529  0.98398  0.89972    La
H       0.7772   0.7133   0.6381     H
H       0.7772   0.7133   0.8619     H
C       0.7822   0.2157   0.1628     C
C       0.7822   0.2157   0.3372     C
O        0.787   0.9153  0.51724     O
O        0.787   0.9153  0.98276     O
O       0.8066   0.1596     0.75     O
H       0.8081   0.7812   0.5355     H
H       0.8081   0.7812   0.9645     H
H        0.809   0.6585   0.5155     H
H        0.809   0.6585   0.9845     H
C       0.8266   0.6935   0.0123     C
C       0.8266   0.6935   0.4877     C
C       0.8266   0.7672      0.0     C
C       0.8266   0.7672      0.5     C
Cu     0.82827  0.56012  0.08035    Cu
Cu     0.82827  0.56012  0.41965    Cu
N       0.8356   0.3494  0.16787     N
N       0.8356   0.3494  0.33213     N
N        0.851   0.6702  0.06281     N
N        0.851   0.6702  0.43719     N
C        0.854   0.8203   0.0405     C
C        0.854   0.8203   0.4595     C
C       0.8541   0.9021   0.0279     C
C       0.8541   0.9021   0.4721     C
C       0.8772    0.722   0.1022     C
C       0.8772    0.722   0.3978     C
C       0.8821   0.7963    0.093     C
C       0.8821   0.7963    0.407     C
H       0.8863   0.7324     0.25     H
H       0.8928   0.7064   0.1375     H
H       0.8928   0.7064   0.3625     H
H       0.8963   0.6047   0.6511     H
H       0.8963   0.6047   0.8489     H
H        0.904   0.8305   0.1213     H
H        0.904   0.8305   0.3787     H
C       0.9067   0.7156   0.6464     C
C       0.9067   0.7156   0.8536     C
O       0.9164    0.949  0.06362     O
O       0.9164    0.949  0.43638     O
O       0.9361   0.0848  0.13424     O
O       0.9361   0.0848  0.36576     O
C       0.9499   0.8546   0.6408     C
C       0.9499   0.8546   0.8592     C
C       0.9727   0.2163   0.1503     C
C       0.9727   0.2163   0.3497     C
I      0.97705  0.44299  0.67011     I
I      0.97705  0.44299  0.82989     I
C        0.979   0.6503   0.6547     C
C        0.979   0.6503   0.8453     C
