data_I
_chemical_name_common  '/home/zhangsd/repos/MofS-CGCNN/ML/data/TSD/clean_cifs/ELERIY_clean'
_cell_length_a 31.10890
_cell_length_b 31.10890
_cell_length_c 31.10890
_cell_angle_alpha 90.00000
_cell_angle_beta  90.00000
_cell_angle_gamma 90.00000
_space_group_name_H-M_alt      'P 1'


loop_
_space_group_symop_operation_xyz
  'x, y, z' 

loop_
_atom_site_label
_atom_site_fract_x
_atom_site_fract_y
_atom_site_fract_z
_atom_site_type_symbol
Cu         0.0  0.18048  0.18048    Cu
Cu         0.0  0.18048  0.81952    Cu
Cu         0.0  0.24047  0.24047    Cu
Cu         0.0  0.24047  0.75953    Cu
N          0.0   0.2893   0.2893     N
N          0.0   0.2893   0.7107     N
C          0.0   0.3526   0.3526     C
C          0.0   0.3526   0.6474     C
H          0.0   0.3737   0.3737     H
H          0.0   0.3737   0.6263     H
H          0.0   0.6263   0.3737     H
H          0.0   0.6263   0.6263     H
C          0.0   0.6474   0.3526     C
C          0.0   0.6474   0.6474     C
N          0.0   0.7107   0.2893     N
N          0.0   0.7107   0.7107     N
Cu         0.0  0.75953  0.24047    Cu
Cu         0.0  0.75953  0.75953    Cu
Cu         0.0  0.81952  0.18048    Cu
Cu         0.0  0.81952  0.81952    Cu
C       0.0367   0.3043   0.3043     C
C       0.0367   0.3043   0.6957     C
C       0.0367   0.6957   0.3043     C
C       0.0367   0.6957   0.6957     C
C       0.0385   0.3364   0.3364     C
C       0.0385   0.3364   0.6636     C
C       0.0385   0.6636   0.3364     C
C       0.0385   0.6636   0.6636     C
O      0.04406  0.15394  0.21601     O
O      0.04406  0.15394  0.78399     O
O      0.04406  0.21601  0.15394     O
O      0.04406  0.21601  0.84606     O
O      0.04406  0.78399  0.15394     O
O      0.04406  0.78399  0.84606     O
O      0.04406  0.84606  0.21601     O
O      0.04406  0.84606  0.78399     O
O      0.04437  0.20456  0.26769     O
O      0.04437  0.20456  0.73231     O
O      0.04437  0.26769  0.20456     O
O      0.04437  0.26769  0.79544     O
O      0.04437  0.73231  0.20456     O
O      0.04437  0.73231  0.79544     O
O      0.04437  0.79544  0.26769     O
O      0.04437  0.79544  0.73231     O
C       0.0572   0.1697   0.2509     C
C       0.0572   0.1697   0.7491     C
C       0.0572   0.2509   0.1697     C
C       0.0572   0.2509   0.8303     C
C       0.0572   0.7491   0.1697     C
C       0.0572   0.7491   0.8303     C
C       0.0572   0.8303   0.2509     C
C       0.0572   0.8303   0.7491     C
H       0.0623   0.2934   0.2934     H
H       0.0623   0.2934   0.7066     H
H       0.0623   0.7066   0.2934     H
H       0.0623   0.7066   0.7066     H
C       0.0802   0.3505   0.3505     C
C       0.0802   0.3505   0.6495     C
C       0.0802   0.6495   0.3505     C
C       0.0802   0.6495   0.6495     C
H       0.0855   0.1761   0.3316     H
H       0.0855   0.1761   0.6684     H
H       0.0855   0.3316   0.1761     H
H       0.0855   0.3316   0.8239     H
H       0.0855   0.6684   0.1761     H
H       0.0855   0.6684   0.8239     H
H       0.0855   0.8239   0.3316     H
H       0.0855   0.8239   0.6684     H
C       0.0904    0.145   0.2747     C
C       0.0904    0.145   0.7253     C
C       0.0904   0.2747    0.145     C
C       0.0904   0.2747    0.855     C
C       0.0904   0.7253    0.145     C
C       0.0904   0.7253    0.855     C
C       0.0904    0.855   0.2747     C
C       0.0904    0.855   0.7253     C
C       0.1002   0.1543   0.3176     C
C       0.1002   0.1543   0.6824     C
C       0.1002   0.3176   0.1543     C
C       0.1002   0.3176   0.8457     C
C       0.1002   0.6824   0.1543     C
C       0.1002   0.6824   0.8457     C
C       0.1002   0.8457   0.3176     C
C       0.1002   0.8457   0.6824     C
H       0.1049   0.1049   0.2263     H
H       0.1049   0.1049   0.7737     H
H       0.1049   0.2263   0.1049     H
H       0.1049   0.2263   0.8951     H
H       0.1049   0.7737   0.1049     H
H       0.1049   0.7737   0.8951     H
H       0.1049   0.8951   0.2263     H
H       0.1049   0.8951   0.7737     H
C       0.1123   0.1123   0.2543     C
C       0.1123   0.1123   0.7457     C
C       0.1123   0.2543   0.1123     C
C       0.1123   0.2543   0.8877     C
C       0.1123   0.7457   0.1123     C
C       0.1123   0.7457   0.8877     C
C       0.1123   0.8877   0.2543     C
C       0.1123   0.8877   0.7457     C
C       0.1169    0.359    0.359     C
C       0.1169    0.359    0.641     C
C       0.1169    0.641    0.359     C
C       0.1169    0.641    0.641     C
H       0.1263   0.1263      0.5     H
H       0.1263      0.5   0.1263     H
H       0.1263      0.5   0.8737     H
H       0.1263   0.8737      0.5     H
C       0.1316   0.1316   0.3395     C
C       0.1316   0.1316   0.6605     C
C       0.1316   0.3395   0.1316     C
C       0.1316   0.3395   0.8684     C
C       0.1316   0.6605   0.1316     C
C       0.1316   0.6605   0.8684     C
C       0.1316   0.8684   0.3395     C
C       0.1316   0.8684   0.6605     C
C        0.141    0.141   0.3831     C
C        0.141    0.141   0.6169     C
C        0.141   0.3831    0.141     C
C        0.141   0.3831    0.859     C
C        0.141   0.6169    0.141     C
C        0.141   0.6169    0.859     C
C        0.141    0.859   0.3831     C
C        0.141    0.859   0.6169     C
C        0.145   0.0904   0.2747     C
C        0.145   0.0904   0.7253     C
C        0.145   0.2747   0.0904     C
C        0.145   0.2747   0.9096     C
C        0.145   0.7253   0.0904     C
C        0.145   0.7253   0.9096     C
C        0.145   0.9096   0.2747     C
C        0.145   0.9096   0.7253     C
C       0.1474   0.1474      0.5     C
C       0.1474      0.5   0.1474     C
C       0.1474      0.5   0.8526     C
C       0.1474   0.8526      0.5     C
C       0.1495   0.1495   0.4198     C
C       0.1495   0.1495   0.5802     C
C       0.1495   0.4198   0.1495     C
C       0.1495   0.4198   0.8505     C
C       0.1495   0.5802   0.1495     C
C       0.1495   0.5802   0.8505     C
C       0.1495   0.8505   0.4198     C
C       0.1495   0.8505   0.5802     C
O      0.15394  0.04406  0.21601     O
O      0.15394  0.04406  0.78399     O
O      0.15394  0.21601  0.04406     O
O      0.15394  0.21601  0.95594     O
O      0.15394  0.78399  0.04406     O
O      0.15394  0.78399  0.95594     O
O      0.15394  0.95594  0.21601     O
O      0.15394  0.95594  0.78399     O
C       0.1543   0.1002   0.3176     C
C       0.1543   0.1002   0.6824     C
C       0.1543   0.3176   0.1002     C
C       0.1543   0.3176   0.8998     C
C       0.1543   0.6824   0.1002     C
C       0.1543   0.6824   0.8998     C
C       0.1543   0.8998   0.3176     C
C       0.1543   0.8998   0.6824     C
C       0.1605   0.3684   0.3684     C
C       0.1605   0.3684   0.6316     C
C       0.1605   0.6316   0.3684     C
C       0.1605   0.6316   0.6316     C
C       0.1636   0.1636   0.4615     C
C       0.1636   0.1636   0.5385     C
C       0.1636   0.4615   0.1636     C
C       0.1636   0.4615   0.8364     C
C       0.1636   0.5385   0.1636     C
C       0.1636   0.5385   0.8364     C
C       0.1636   0.8364   0.4615     C
C       0.1636   0.8364   0.5385     C
H       0.1684   0.3239   0.4145     H
H       0.1684   0.3239   0.5855     H
H       0.1684   0.4145   0.3239     H
H       0.1684   0.4145   0.6761     H
H       0.1684   0.5855   0.3239     H
H       0.1684   0.5855   0.6761     H
H       0.1684   0.6761   0.4145     H
H       0.1684   0.6761   0.5855     H
C       0.1697   0.0572   0.2509     C
C       0.1697   0.0572   0.7491     C
C       0.1697   0.2509   0.0572     C
C       0.1697   0.2509   0.9428     C
C       0.1697   0.7491   0.0572     C
C       0.1697   0.7491   0.9428     C
C       0.1697   0.9428   0.2509     C
C       0.1697   0.9428   0.7491     C
H       0.1761   0.0855   0.3316     H
H       0.1761   0.0855   0.6684     H
H       0.1761   0.3316   0.0855     H
H       0.1761   0.3316   0.9145     H
H       0.1761   0.6684   0.0855     H
H       0.1761   0.6684   0.9145     H
H       0.1761   0.9145   0.3316     H
H       0.1761   0.9145   0.6684     H
Cu     0.18048      0.0  0.18048    Cu
Cu     0.18048      0.0  0.81952    Cu
Cu     0.18048  0.18048      0.0    Cu
Cu     0.18048  0.81952      0.0    Cu
C       0.1824   0.3457   0.3998     C
C       0.1824   0.3457   0.6002     C
C       0.1824   0.3998   0.3457     C
C       0.1824   0.3998   0.6543     C
C       0.1824   0.6002   0.3457     C
C       0.1824   0.6002   0.6543     C
C       0.1824   0.6543   0.3998     C
C       0.1824   0.6543   0.6002     C
C       0.1957   0.1957   0.4633     C
C       0.1957   0.1957   0.5367     C
C       0.1957   0.4633   0.1957     C
C       0.1957   0.4633   0.8043     C
C       0.1957   0.5367   0.1957     C
C       0.1957   0.5367   0.8043     C
C       0.1957   0.8043   0.4633     C
C       0.1957   0.8043   0.5367     C
O      0.20456  0.04437  0.26769     O
O      0.20456  0.04437  0.73231     O
O      0.20456  0.26769  0.04437     O
O      0.20456  0.26769  0.95563     O
O      0.20456  0.73231  0.04437     O
O      0.20456  0.73231  0.95563     O
O      0.20456  0.95563  0.26769     O
O      0.20456  0.95563  0.73231     O
H       0.2066   0.2066   0.4377     H
H       0.2066   0.2066   0.5623     H
H       0.2066   0.4377   0.2066     H
H       0.2066   0.4377   0.7934     H
H       0.2066   0.5623   0.2066     H
H       0.2066   0.5623   0.7934     H
H       0.2066   0.7934   0.4377     H
H       0.2066   0.7934   0.5623     H
N       0.2107   0.2107      0.5     N
N       0.2107      0.5   0.2107     N
N       0.2107      0.5   0.7893     N
N       0.2107   0.7893      0.5     N
O      0.21601  0.04406  0.15394     O
O      0.21601  0.04406  0.84606     O
O      0.21601  0.15394  0.04406     O
O      0.21601  0.15394  0.95594     O
O      0.21601  0.84606  0.04406     O
O      0.21601  0.84606  0.95594     O
O      0.21601  0.95594  0.15394     O
O      0.21601  0.95594  0.84606     O
C       0.2253    0.355   0.4096     C
C       0.2253    0.355   0.5904     C
C       0.2253   0.4096    0.355     C
C       0.2253   0.4096    0.645     C
C       0.2253   0.5904    0.355     C
C       0.2253   0.5904    0.645     C
C       0.2253    0.645   0.4096     C
C       0.2253    0.645   0.5904     C
H       0.2263   0.1049   0.1049     H
H       0.2263   0.1049   0.8951     H
H       0.2263   0.8951   0.1049     H
H       0.2263   0.8951   0.8951     H
O      0.23231  0.29544  0.45563     O
O      0.23231  0.29544  0.54437     O
O      0.23231  0.45563  0.29544     O
O      0.23231  0.45563  0.70456     O
O      0.23231  0.54437  0.29544     O
O      0.23231  0.54437  0.70456     O
O      0.23231  0.70456  0.45563     O
O      0.23231  0.70456  0.54437     O
Cu     0.24047      0.0  0.24047    Cu
Cu     0.24047      0.0  0.75953    Cu
Cu     0.24047  0.24047      0.0    Cu
Cu     0.24047  0.75953      0.0    Cu
C       0.2457   0.3877   0.3877     C
C       0.2457   0.3877   0.6123     C
C       0.2457   0.6123   0.3877     C
C       0.2457   0.6123   0.6123     C
C       0.2491   0.3303   0.4428     C
C       0.2491   0.3303   0.5572     C
C       0.2491   0.4428   0.3303     C
C       0.2491   0.4428   0.6697     C
C       0.2491   0.5572   0.3303     C
C       0.2491   0.5572   0.6697     C
C       0.2491   0.6697   0.4428     C
C       0.2491   0.6697   0.5572     C
C       0.2509   0.0572   0.1697     C
C       0.2509   0.0572   0.8303     C
C       0.2509   0.1697   0.0572     C
C       0.2509   0.1697   0.9428     C
C       0.2509   0.8303   0.0572     C
C       0.2509   0.8303   0.9428     C
C       0.2509   0.9428   0.1697     C
C       0.2509   0.9428   0.8303     C
C       0.2543   0.1123   0.1123     C
C       0.2543   0.1123   0.8877     C
C       0.2543   0.8877   0.1123     C
C       0.2543   0.8877   0.8877     C
Cu     0.25953  0.25953      0.5    Cu
Cu     0.25953      0.5  0.25953    Cu
Cu     0.25953      0.5  0.74047    Cu
Cu     0.25953  0.74047      0.5    Cu
O      0.26769  0.04437  0.20456     O
O      0.26769  0.04437  0.79544     O
O      0.26769  0.20456  0.04437     O
O      0.26769  0.20456  0.95563     O
O      0.26769  0.79544  0.04437     O
O      0.26769  0.79544  0.95563     O
O      0.26769  0.95563  0.20456     O
O      0.26769  0.95563  0.79544     O
H       0.2737   0.3951   0.3951     H
H       0.2737   0.3951   0.6049     H
H       0.2737   0.6049   0.3951     H
H       0.2737   0.6049   0.6049     H
C       0.2747   0.0904    0.145     C
C       0.2747   0.0904    0.855     C
C       0.2747    0.145   0.0904     C
C       0.2747    0.145   0.9096     C
C       0.2747    0.855   0.0904     C
C       0.2747    0.855   0.9096     C
C       0.2747   0.9096    0.145     C
C       0.2747   0.9096    0.855     C
O      0.28399  0.34606  0.45594     O
O      0.28399  0.34606  0.54406     O
O      0.28399  0.45594  0.34606     O
O      0.28399  0.45594  0.65394     O
O      0.28399  0.54406  0.34606     O
O      0.28399  0.54406  0.65394     O
O      0.28399  0.65394  0.45594     O
O      0.28399  0.65394  0.54406     O
N       0.2893      0.0   0.2893     N
N       0.2893      0.0   0.7107     N
N       0.2893   0.2893      0.0     N
N       0.2893   0.7107      0.0     N
H       0.2934   0.0623   0.2934     H
H       0.2934   0.0623   0.7066     H
H       0.2934   0.2934   0.0623     H
H       0.2934   0.2934   0.9377     H
H       0.2934   0.7066   0.0623     H
H       0.2934   0.7066   0.9377     H
H       0.2934   0.9377   0.2934     H
H       0.2934   0.9377   0.7066     H
O      0.29544  0.23231  0.45563     O
O      0.29544  0.23231  0.54437     O
O      0.29544  0.45563  0.23231     O
O      0.29544  0.45563  0.76769     O
O      0.29544  0.54437  0.23231     O
O      0.29544  0.54437  0.76769     O
O      0.29544  0.76769  0.45563     O
O      0.29544  0.76769  0.54437     O
C       0.3043   0.0367   0.3043     C
C       0.3043   0.0367   0.6957     C
C       0.3043   0.3043   0.0367     C
C       0.3043   0.3043   0.9633     C
C       0.3043   0.6957   0.0367     C
C       0.3043   0.6957   0.9633     C
C       0.3043   0.9633   0.3043     C
C       0.3043   0.9633   0.6957     C
C       0.3176   0.1002   0.1543     C
C       0.3176   0.1002   0.8457     C
C       0.3176   0.1543   0.1002     C
C       0.3176   0.1543   0.8998     C
C       0.3176   0.8457   0.1002     C
C       0.3176   0.8457   0.8998     C
C       0.3176   0.8998   0.1543     C
C       0.3176   0.8998   0.8457     C
Cu     0.31952  0.31952      0.5    Cu
Cu     0.31952      0.5  0.31952    Cu
Cu     0.31952      0.5  0.68048    Cu
Cu     0.31952  0.68048      0.5    Cu
H       0.3239   0.1684   0.4145     H
H       0.3239   0.1684   0.5855     H
H       0.3239   0.4145   0.1684     H
H       0.3239   0.4145   0.8316     H
H       0.3239   0.5855   0.1684     H
H       0.3239   0.5855   0.8316     H
H       0.3239   0.8316   0.4145     H
H       0.3239   0.8316   0.5855     H
C       0.3303   0.2491   0.4428     C
C       0.3303   0.2491   0.5572     C
C       0.3303   0.4428   0.2491     C
C       0.3303   0.4428   0.7509     C
C       0.3303   0.5572   0.2491     C
C       0.3303   0.5572   0.7509     C
C       0.3303   0.7509   0.4428     C
C       0.3303   0.7509   0.5572     C
H       0.3316   0.0855   0.1761     H
H       0.3316   0.0855   0.8239     H
H       0.3316   0.1761   0.0855     H
H       0.3316   0.1761   0.9145     H
H       0.3316   0.8239   0.0855     H
H       0.3316   0.8239   0.9145     H
H       0.3316   0.9145   0.1761     H
H       0.3316   0.9145   0.8239     H
C       0.3364   0.0385   0.3364     C
C       0.3364   0.0385   0.6636     C
C       0.3364   0.3364   0.0385     C
C       0.3364   0.3364   0.9615     C
C       0.3364   0.6636   0.0385     C
C       0.3364   0.6636   0.9615     C
C       0.3364   0.9615   0.3364     C
C       0.3364   0.9615   0.6636     C
C       0.3395   0.1316   0.1316     C
C       0.3395   0.1316   0.8684     C
C       0.3395   0.8684   0.1316     C
C       0.3395   0.8684   0.8684     C
C       0.3457   0.1824   0.3998     C
C       0.3457   0.1824   0.6002     C
C       0.3457   0.3998   0.1824     C
C       0.3457   0.3998   0.8176     C
C       0.3457   0.6002   0.1824     C
C       0.3457   0.6002   0.8176     C
C       0.3457   0.8176   0.3998     C
C       0.3457   0.8176   0.6002     C
O      0.34606  0.28399  0.45594     O
O      0.34606  0.28399  0.54406     O
O      0.34606  0.45594  0.28399     O
O      0.34606  0.45594  0.71601     O
O      0.34606  0.54406  0.28399     O
O      0.34606  0.54406  0.71601     O
O      0.34606  0.71601  0.45594     O
O      0.34606  0.71601  0.54406     O
C       0.3505   0.0802   0.3505     C
C       0.3505   0.0802   0.6495     C
C       0.3505   0.3505   0.0802     C
C       0.3505   0.3505   0.9198     C
C       0.3505   0.6495   0.0802     C
C       0.3505   0.6495   0.9198     C
C       0.3505   0.9198   0.3505     C
C       0.3505   0.9198   0.6495     C
C       0.3526      0.0   0.3526     C
C       0.3526      0.0   0.6474     C
C       0.3526   0.3526      0.0     C
C       0.3526   0.6474      0.0     C
C        0.355   0.2253   0.4096     C
C        0.355   0.2253   0.5904     C
C        0.355   0.4096   0.2253     C
C        0.355   0.4096   0.7747     C
C        0.355   0.5904   0.2253     C
C        0.355   0.5904   0.7747     C
C        0.355   0.7747   0.4096     C
C        0.355   0.7747   0.5904     C
C        0.359   0.1169    0.359     C
C        0.359   0.1169    0.641     C
C        0.359    0.359   0.1169     C
C        0.359    0.359   0.8831     C
C        0.359    0.641   0.1169     C
C        0.359    0.641   0.8831     C
C        0.359   0.8831    0.359     C
C        0.359   0.8831    0.641     C
C       0.3684   0.1605   0.3684     C
C       0.3684   0.1605   0.6316     C
C       0.3684   0.3684   0.1605     C
C       0.3684   0.3684   0.8395     C
C       0.3684   0.6316   0.1605     C
C       0.3684   0.6316   0.8395     C
C       0.3684   0.8395   0.3684     C
C       0.3684   0.8395   0.6316     C
H       0.3737      0.0   0.3737     H
H       0.3737      0.0   0.6263     H
H       0.3737   0.3737      0.0     H
H       0.3737   0.6263      0.0     H
C       0.3831    0.141    0.141     C
C       0.3831    0.141    0.859     C
C       0.3831    0.859    0.141     C
C       0.3831    0.859    0.859     C
C       0.3877   0.2457   0.3877     C
C       0.3877   0.2457   0.6123     C
C       0.3877   0.3877   0.2457     C
C       0.3877   0.3877   0.7543     C
C       0.3877   0.6123   0.2457     C
C       0.3877   0.6123   0.7543     C
C       0.3877   0.7543   0.3877     C
C       0.3877   0.7543   0.6123     C
H       0.3951   0.2737   0.3951     H
H       0.3951   0.2737   0.6049     H
H       0.3951   0.3951   0.2737     H
H       0.3951   0.3951   0.7263     H
H       0.3951   0.6049   0.2737     H
H       0.3951   0.6049   0.7263     H
H       0.3951   0.7263   0.3951     H
H       0.3951   0.7263   0.6049     H
C       0.3998   0.1824   0.3457     C
C       0.3998   0.1824   0.6543     C
C       0.3998   0.3457   0.1824     C
C       0.3998   0.3457   0.8176     C
C       0.3998   0.6543   0.1824     C
C       0.3998   0.6543   0.8176     C
C       0.3998   0.8176   0.3457     C
C       0.3998   0.8176   0.6543     C
C       0.4096   0.2253    0.355     C
C       0.4096   0.2253    0.645     C
C       0.4096    0.355   0.2253     C
C       0.4096    0.355   0.7747     C
C       0.4096    0.645   0.2253     C
C       0.4096    0.645   0.7747     C
C       0.4096   0.7747    0.355     C
C       0.4096   0.7747    0.645     C
H       0.4145   0.1684   0.3239     H
H       0.4145   0.1684   0.6761     H
H       0.4145   0.3239   0.1684     H
H       0.4145   0.3239   0.8316     H
H       0.4145   0.6761   0.1684     H
H       0.4145   0.6761   0.8316     H
H       0.4145   0.8316   0.3239     H
H       0.4145   0.8316   0.6761     H
C       0.4198   0.1495   0.1495     C
C       0.4198   0.1495   0.8505     C
C       0.4198   0.8505   0.1495     C
C       0.4198   0.8505   0.8505     C
H       0.4377   0.2066   0.2066     H
H       0.4377   0.2066   0.7934     H
H       0.4377   0.7934   0.2066     H
H       0.4377   0.7934   0.7934     H
C       0.4428   0.2491   0.3303     C
C       0.4428   0.2491   0.6697     C
C       0.4428   0.3303   0.2491     C
C       0.4428   0.3303   0.7509     C
C       0.4428   0.6697   0.2491     C
C       0.4428   0.6697   0.7509     C
C       0.4428   0.7509   0.3303     C
C       0.4428   0.7509   0.6697     C
O      0.45563  0.23231  0.29544     O
O      0.45563  0.23231  0.70456     O
O      0.45563  0.29544  0.23231     O
O      0.45563  0.29544  0.76769     O
O      0.45563  0.70456  0.23231     O
O      0.45563  0.70456  0.76769     O
O      0.45563  0.76769  0.29544     O
O      0.45563  0.76769  0.70456     O
O      0.45594  0.28399  0.34606     O
O      0.45594  0.28399  0.65394     O
O      0.45594  0.34606  0.28399     O
O      0.45594  0.34606  0.71601     O
O      0.45594  0.65394  0.28399     O
O      0.45594  0.65394  0.71601     O
O      0.45594  0.71601  0.34606     O
O      0.45594  0.71601  0.65394     O
C       0.4615   0.1636   0.1636     C
C       0.4615   0.1636   0.8364     C
C       0.4615   0.8364   0.1636     C
C       0.4615   0.8364   0.8364     C
C       0.4633   0.1957   0.1957     C
C       0.4633   0.1957   0.8043     C
C       0.4633   0.8043   0.1957     C
C       0.4633   0.8043   0.8043     C
H          0.5   0.1263   0.1263     H
H          0.5   0.1263   0.8737     H
C          0.5   0.1474   0.1474     C
C          0.5   0.1474   0.8526     C
N          0.5   0.2107   0.2107     N
N          0.5   0.2107   0.7893     N
Cu         0.5  0.25953  0.25953    Cu
Cu         0.5  0.25953  0.74047    Cu
Cu         0.5  0.31952  0.31952    Cu
Cu         0.5  0.31952  0.68048    Cu
Cu         0.5  0.68048  0.31952    Cu
Cu         0.5  0.68048  0.68048    Cu
Cu         0.5  0.74047  0.25953    Cu
Cu         0.5  0.74047  0.74047    Cu
N          0.5   0.7893   0.2107     N
N          0.5   0.7893   0.7893     N
C          0.5   0.8526   0.1474     C
C          0.5   0.8526   0.8526     C
H          0.5   0.8737   0.1263     H
H          0.5   0.8737   0.8737     H
C       0.5367   0.1957   0.1957     C
C       0.5367   0.1957   0.8043     C
C       0.5367   0.8043   0.1957     C
C       0.5367   0.8043   0.8043     C
C       0.5385   0.1636   0.1636     C
C       0.5385   0.1636   0.8364     C
C       0.5385   0.8364   0.1636     C
C       0.5385   0.8364   0.8364     C
O      0.54406  0.28399  0.34606     O
O      0.54406  0.28399  0.65394     O
O      0.54406  0.34606  0.28399     O
O      0.54406  0.34606  0.71601     O
O      0.54406  0.65394  0.28399     O
O      0.54406  0.65394  0.71601     O
O      0.54406  0.71601  0.34606     O
O      0.54406  0.71601  0.65394     O
O      0.54437  0.23231  0.29544     O
O      0.54437  0.23231  0.70456     O
O      0.54437  0.29544  0.23231     O
O      0.54437  0.29544  0.76769     O
O      0.54437  0.70456  0.23231     O
O      0.54437  0.70456  0.76769     O
O      0.54437  0.76769  0.29544     O
O      0.54437  0.76769  0.70456     O
C       0.5572   0.2491   0.3303     C
C       0.5572   0.2491   0.6697     C
C       0.5572   0.3303   0.2491     C
C       0.5572   0.3303   0.7509     C
C       0.5572   0.6697   0.2491     C
C       0.5572   0.6697   0.7509     C
C       0.5572   0.7509   0.3303     C
C       0.5572   0.7509   0.6697     C
H       0.5623   0.2066   0.2066     H
H       0.5623   0.2066   0.7934     H
H       0.5623   0.7934   0.2066     H
H       0.5623   0.7934   0.7934     H
C       0.5802   0.1495   0.1495     C
C       0.5802   0.1495   0.8505     C
C       0.5802   0.8505   0.1495     C
C       0.5802   0.8505   0.8505     C
H       0.5855   0.1684   0.3239     H
H       0.5855   0.1684   0.6761     H
H       0.5855   0.3239   0.1684     H
H       0.5855   0.3239   0.8316     H
H       0.5855   0.6761   0.1684     H
H       0.5855   0.6761   0.8316     H
H       0.5855   0.8316   0.3239     H
H       0.5855   0.8316   0.6761     H
C       0.5904   0.2253    0.355     C
C       0.5904   0.2253    0.645     C
C       0.5904    0.355   0.2253     C
C       0.5904    0.355   0.7747     C
C       0.5904    0.645   0.2253     C
C       0.5904    0.645   0.7747     C
C       0.5904   0.7747    0.355     C
C       0.5904   0.7747    0.645     C
C       0.6002   0.1824   0.3457     C
C       0.6002   0.1824   0.6543     C
C       0.6002   0.3457   0.1824     C
C       0.6002   0.3457   0.8176     C
C       0.6002   0.6543   0.1824     C
C       0.6002   0.6543   0.8176     C
C       0.6002   0.8176   0.3457     C
C       0.6002   0.8176   0.6543     C
H       0.6049   0.2737   0.3951     H
H       0.6049   0.2737   0.6049     H
H       0.6049   0.3951   0.2737     H
H       0.6049   0.3951   0.7263     H
H       0.6049   0.6049   0.2737     H
H       0.6049   0.6049   0.7263     H
H       0.6049   0.7263   0.3951     H
H       0.6049   0.7263   0.6049     H
C       0.6123   0.2457   0.3877     C
C       0.6123   0.2457   0.6123     C
C       0.6123   0.3877   0.2457     C
C       0.6123   0.3877   0.7543     C
C       0.6123   0.6123   0.2457     C
C       0.6123   0.6123   0.7543     C
C       0.6123   0.7543   0.3877     C
C       0.6123   0.7543   0.6123     C
C       0.6169    0.141    0.141     C
C       0.6169    0.141    0.859     C
C       0.6169    0.859    0.141     C
C       0.6169    0.859    0.859     C
H       0.6263      0.0   0.3737     H
H       0.6263      0.0   0.6263     H
H       0.6263   0.3737      0.0     H
H       0.6263   0.6263      0.0     H
C       0.6316   0.1605   0.3684     C
C       0.6316   0.1605   0.6316     C
C       0.6316   0.3684   0.1605     C
C       0.6316   0.3684   0.8395     C
C       0.6316   0.6316   0.1605     C
C       0.6316   0.6316   0.8395     C
C       0.6316   0.8395   0.3684     C
C       0.6316   0.8395   0.6316     C
C        0.641   0.1169    0.359     C
C        0.641   0.1169    0.641     C
C        0.641    0.359   0.1169     C
C        0.641    0.359   0.8831     C
C        0.641    0.641   0.1169     C
C        0.641    0.641   0.8831     C
C        0.641   0.8831    0.359     C
C        0.641   0.8831    0.641     C
C        0.645   0.2253   0.4096     C
C        0.645   0.2253   0.5904     C
C        0.645   0.4096   0.2253     C
C        0.645   0.4096   0.7747     C
C        0.645   0.5904   0.2253     C
C        0.645   0.5904   0.7747     C
C        0.645   0.7747   0.4096     C
C        0.645   0.7747   0.5904     C
C       0.6474      0.0   0.3526     C
C       0.6474      0.0   0.6474     C
C       0.6474   0.3526      0.0     C
C       0.6474   0.6474      0.0     C
C       0.6495   0.0802   0.3505     C
C       0.6495   0.0802   0.6495     C
C       0.6495   0.3505   0.0802     C
C       0.6495   0.3505   0.9198     C
C       0.6495   0.6495   0.0802     C
C       0.6495   0.6495   0.9198     C
C       0.6495   0.9198   0.3505     C
C       0.6495   0.9198   0.6495     C
O      0.65394  0.28399  0.45594     O
O      0.65394  0.28399  0.54406     O
O      0.65394  0.45594  0.28399     O
O      0.65394  0.45594  0.71601     O
O      0.65394  0.54406  0.28399     O
O      0.65394  0.54406  0.71601     O
O      0.65394  0.71601  0.45594     O
O      0.65394  0.71601  0.54406     O
C       0.6543   0.1824   0.3998     C
C       0.6543   0.1824   0.6002     C
C       0.6543   0.3998   0.1824     C
C       0.6543   0.3998   0.8176     C
C       0.6543   0.6002   0.1824     C
C       0.6543   0.6002   0.8176     C
C       0.6543   0.8176   0.3998     C
C       0.6543   0.8176   0.6002     C
C       0.6605   0.1316   0.1316     C
C       0.6605   0.1316   0.8684     C
C       0.6605   0.8684   0.1316     C
C       0.6605   0.8684   0.8684     C
C       0.6636   0.0385   0.3364     C
C       0.6636   0.0385   0.6636     C
C       0.6636   0.3364   0.0385     C
C       0.6636   0.3364   0.9615     C
C       0.6636   0.6636   0.0385     C
C       0.6636   0.6636   0.9615     C
C       0.6636   0.9615   0.3364     C
C       0.6636   0.9615   0.6636     C
H       0.6684   0.0855   0.1761     H
H       0.6684   0.0855   0.8239     H
H       0.6684   0.1761   0.0855     H
H       0.6684   0.1761   0.9145     H
H       0.6684   0.8239   0.0855     H
H       0.6684   0.8239   0.9145     H
H       0.6684   0.9145   0.1761     H
H       0.6684   0.9145   0.8239     H
C       0.6697   0.2491   0.4428     C
C       0.6697   0.2491   0.5572     C
C       0.6697   0.4428   0.2491     C
C       0.6697   0.4428   0.7509     C
C       0.6697   0.5572   0.2491     C
C       0.6697   0.5572   0.7509     C
C       0.6697   0.7509   0.4428     C
C       0.6697   0.7509   0.5572     C
H       0.6761   0.1684   0.4145     H
H       0.6761   0.1684   0.5855     H
H       0.6761   0.4145   0.1684     H
H       0.6761   0.4145   0.8316     H
H       0.6761   0.5855   0.1684     H
H       0.6761   0.5855   0.8316     H
H       0.6761   0.8316   0.4145     H
H       0.6761   0.8316   0.5855     H
Cu     0.68048  0.31952      0.5    Cu
Cu     0.68048      0.5  0.31952    Cu
Cu     0.68048      0.5  0.68048    Cu
Cu     0.68048  0.68048      0.5    Cu
C       0.6824   0.1002   0.1543     C
C       0.6824   0.1002   0.8457     C
C       0.6824   0.1543   0.1002     C
C       0.6824   0.1543   0.8998     C
C       0.6824   0.8457   0.1002     C
C       0.6824   0.8457   0.8998     C
C       0.6824   0.8998   0.1543     C
C       0.6824   0.8998   0.8457     C
C       0.6957   0.0367   0.3043     C
C       0.6957   0.0367   0.6957     C
C       0.6957   0.3043   0.0367     C
C       0.6957   0.3043   0.9633     C
C       0.6957   0.6957   0.0367     C
C       0.6957   0.6957   0.9633     C
C       0.6957   0.9633   0.3043     C
C       0.6957   0.9633   0.6957     C
O      0.70456  0.23231  0.45563     O
O      0.70456  0.23231  0.54437     O
O      0.70456  0.45563  0.23231     O
O      0.70456  0.45563  0.76769     O
O      0.70456  0.54437  0.23231     O
O      0.70456  0.54437  0.76769     O
O      0.70456  0.76769  0.45563     O
O      0.70456  0.76769  0.54437     O
H       0.7066   0.0623   0.2934     H
H       0.7066   0.0623   0.7066     H
H       0.7066   0.2934   0.0623     H
H       0.7066   0.2934   0.9377     H
H       0.7066   0.7066   0.0623     H
H       0.7066   0.7066   0.9377     H
H       0.7066   0.9377   0.2934     H
H       0.7066   0.9377   0.7066     H
N       0.7107      0.0   0.2893     N
N       0.7107      0.0   0.7107     N
N       0.7107   0.2893      0.0     N
N       0.7107   0.7107      0.0     N
O      0.71601  0.34606  0.45594     O
O      0.71601  0.34606  0.54406     O
O      0.71601  0.45594  0.34606     O
O      0.71601  0.45594  0.65394     O
O      0.71601  0.54406  0.34606     O
O      0.71601  0.54406  0.65394     O
O      0.71601  0.65394  0.45594     O
O      0.71601  0.65394  0.54406     O
C       0.7253   0.0904    0.145     C
C       0.7253   0.0904    0.855     C
C       0.7253    0.145   0.0904     C
C       0.7253    0.145   0.9096     C
C       0.7253    0.855   0.0904     C
C       0.7253    0.855   0.9096     C
C       0.7253   0.9096    0.145     C
C       0.7253   0.9096    0.855     C
H       0.7263   0.3951   0.3951     H
H       0.7263   0.3951   0.6049     H
H       0.7263   0.6049   0.3951     H
H       0.7263   0.6049   0.6049     H
O      0.73231  0.04437  0.20456     O
O      0.73231  0.04437  0.79544     O
O      0.73231  0.20456  0.04437     O
O      0.73231  0.20456  0.95563     O
O      0.73231  0.79544  0.04437     O
O      0.73231  0.79544  0.95563     O
O      0.73231  0.95563  0.20456     O
O      0.73231  0.95563  0.79544     O
Cu     0.74047  0.25953      0.5    Cu
Cu     0.74047      0.5  0.25953    Cu
Cu     0.74047      0.5  0.74047    Cu
Cu     0.74047  0.74047      0.5    Cu
C       0.7457   0.1123   0.1123     C
C       0.7457   0.1123   0.8877     C
C       0.7457   0.8877   0.1123     C
C       0.7457   0.8877   0.8877     C
C       0.7491   0.0572   0.1697     C
C       0.7491   0.0572   0.8303     C
C       0.7491   0.1697   0.0572     C
C       0.7491   0.1697   0.9428     C
C       0.7491   0.8303   0.0572     C
C       0.7491   0.8303   0.9428     C
C       0.7491   0.9428   0.1697     C
C       0.7491   0.9428   0.8303     C
C       0.7509   0.3303   0.4428     C
C       0.7509   0.3303   0.5572     C
C       0.7509   0.4428   0.3303     C
C       0.7509   0.4428   0.6697     C
C       0.7509   0.5572   0.3303     C
C       0.7509   0.5572   0.6697     C
C       0.7509   0.6697   0.4428     C
C       0.7509   0.6697   0.5572     C
C       0.7543   0.3877   0.3877     C
C       0.7543   0.3877   0.6123     C
C       0.7543   0.6123   0.3877     C
C       0.7543   0.6123   0.6123     C
Cu     0.75953      0.0  0.24047    Cu
Cu     0.75953      0.0  0.75953    Cu
Cu     0.75953  0.24047      0.0    Cu
Cu     0.75953  0.75953      0.0    Cu
O      0.76769  0.29544  0.45563     O
O      0.76769  0.29544  0.54437     O
O      0.76769  0.45563  0.29544     O
O      0.76769  0.45563  0.70456     O
O      0.76769  0.54437  0.29544     O
O      0.76769  0.54437  0.70456     O
O      0.76769  0.70456  0.45563     O
O      0.76769  0.70456  0.54437     O
H       0.7737   0.1049   0.1049     H
H       0.7737   0.1049   0.8951     H
H       0.7737   0.8951   0.1049     H
H       0.7737   0.8951   0.8951     H
C       0.7747    0.355   0.4096     C
C       0.7747    0.355   0.5904     C
C       0.7747   0.4096    0.355     C
C       0.7747   0.4096    0.645     C
C       0.7747   0.5904    0.355     C
C       0.7747   0.5904    0.645     C
C       0.7747    0.645   0.4096     C
C       0.7747    0.645   0.5904     C
O      0.78399  0.04406  0.15394     O
O      0.78399  0.04406  0.84606     O
O      0.78399  0.15394  0.04406     O
O      0.78399  0.15394  0.95594     O
O      0.78399  0.84606  0.04406     O
O      0.78399  0.84606  0.95594     O
O      0.78399  0.95594  0.15394     O
O      0.78399  0.95594  0.84606     O
N       0.7893   0.2107      0.5     N
N       0.7893      0.5   0.2107     N
N       0.7893      0.5   0.7893     N
N       0.7893   0.7893      0.5     N
H       0.7934   0.2066   0.4377     H
H       0.7934   0.2066   0.5623     H
H       0.7934   0.4377   0.2066     H
H       0.7934   0.4377   0.7934     H
H       0.7934   0.5623   0.2066     H
H       0.7934   0.5623   0.7934     H
H       0.7934   0.7934   0.4377     H
H       0.7934   0.7934   0.5623     H
O      0.79544  0.04437  0.26769     O
O      0.79544  0.04437  0.73231     O
O      0.79544  0.26769  0.04437     O
O      0.79544  0.26769  0.95563     O
O      0.79544  0.73231  0.04437     O
O      0.79544  0.73231  0.95563     O
O      0.79544  0.95563  0.26769     O
O      0.79544  0.95563  0.73231     O
C       0.8043   0.1957   0.4633     C
C       0.8043   0.1957   0.5367     C
C       0.8043   0.4633   0.1957     C
C       0.8043   0.4633   0.8043     C
C       0.8043   0.5367   0.1957     C
C       0.8043   0.5367   0.8043     C
C       0.8043   0.8043   0.4633     C
C       0.8043   0.8043   0.5367     C
C       0.8176   0.3457   0.3998     C
C       0.8176   0.3457   0.6002     C
C       0.8176   0.3998   0.3457     C
C       0.8176   0.3998   0.6543     C
C       0.8176   0.6002   0.3457     C
C       0.8176   0.6002   0.6543     C
C       0.8176   0.6543   0.3998     C
C       0.8176   0.6543   0.6002     C
Cu     0.81952      0.0  0.18048    Cu
Cu     0.81952      0.0  0.81952    Cu
Cu     0.81952  0.18048      0.0    Cu
Cu     0.81952  0.81952      0.0    Cu
H       0.8239   0.0855   0.3316     H
H       0.8239   0.0855   0.6684     H
H       0.8239   0.3316   0.0855     H
H       0.8239   0.3316   0.9145     H
H       0.8239   0.6684   0.0855     H
H       0.8239   0.6684   0.9145     H
H       0.8239   0.9145   0.3316     H
H       0.8239   0.9145   0.6684     H
C       0.8303   0.0572   0.2509     C
C       0.8303   0.0572   0.7491     C
C       0.8303   0.2509   0.0572     C
C       0.8303   0.2509   0.9428     C
C       0.8303   0.7491   0.0572     C
C       0.8303   0.7491   0.9428     C
C       0.8303   0.9428   0.2509     C
C       0.8303   0.9428   0.7491     C
H       0.8316   0.3239   0.4145     H
H       0.8316   0.3239   0.5855     H
H       0.8316   0.4145   0.3239     H
H       0.8316   0.4145   0.6761     H
H       0.8316   0.5855   0.3239     H
H       0.8316   0.5855   0.6761     H
H       0.8316   0.6761   0.4145     H
H       0.8316   0.6761   0.5855     H
C       0.8364   0.1636   0.4615     C
C       0.8364   0.1636   0.5385     C
C       0.8364   0.4615   0.1636     C
C       0.8364   0.4615   0.8364     C
C       0.8364   0.5385   0.1636     C
C       0.8364   0.5385   0.8364     C
C       0.8364   0.8364   0.4615     C
C       0.8364   0.8364   0.5385     C
C       0.8395   0.3684   0.3684     C
C       0.8395   0.3684   0.6316     C
C       0.8395   0.6316   0.3684     C
C       0.8395   0.6316   0.6316     C
C       0.8457   0.1002   0.3176     C
C       0.8457   0.1002   0.6824     C
C       0.8457   0.3176   0.1002     C
C       0.8457   0.3176   0.8998     C
C       0.8457   0.6824   0.1002     C
C       0.8457   0.6824   0.8998     C
C       0.8457   0.8998   0.3176     C
C       0.8457   0.8998   0.6824     C
O      0.84606  0.04406  0.21601     O
O      0.84606  0.04406  0.78399     O
O      0.84606  0.21601  0.04406     O
O      0.84606  0.21601  0.95594     O
O      0.84606  0.78399  0.04406     O
O      0.84606  0.78399  0.95594     O
O      0.84606  0.95594  0.21601     O
O      0.84606  0.95594  0.78399     O
C       0.8505   0.1495   0.4198     C
C       0.8505   0.1495   0.5802     C
C       0.8505   0.4198   0.1495     C
C       0.8505   0.4198   0.8505     C
C       0.8505   0.5802   0.1495     C
C       0.8505   0.5802   0.8505     C
C       0.8505   0.8505   0.4198     C
C       0.8505   0.8505   0.5802     C
C       0.8526   0.1474      0.5     C
C       0.8526      0.5   0.1474     C
C       0.8526      0.5   0.8526     C
C       0.8526   0.8526      0.5     C
C        0.855   0.0904   0.2747     C
C        0.855   0.0904   0.7253     C
C        0.855   0.2747   0.0904     C
C        0.855   0.2747   0.9096     C
C        0.855   0.7253   0.0904     C
C        0.855   0.7253   0.9096     C
C        0.855   0.9096   0.2747     C
C        0.855   0.9096   0.7253     C
C        0.859    0.141   0.3831     C
C        0.859    0.141   0.6169     C
C        0.859   0.3831    0.141     C
C        0.859   0.3831    0.859     C
C        0.859   0.6169    0.141     C
C        0.859   0.6169    0.859     C
C        0.859    0.859   0.3831     C
C        0.859    0.859   0.6169     C
C       0.8684   0.1316   0.3395     C
C       0.8684   0.1316   0.6605     C
C       0.8684   0.3395   0.1316     C
C       0.8684   0.3395   0.8684     C
C       0.8684   0.6605   0.1316     C
C       0.8684   0.6605   0.8684     C
C       0.8684   0.8684   0.3395     C
C       0.8684   0.8684   0.6605     C
H       0.8737   0.1263      0.5     H
H       0.8737      0.5   0.1263     H
H       0.8737      0.5   0.8737     H
H       0.8737   0.8737      0.5     H
C       0.8831    0.359    0.359     C
C       0.8831    0.359    0.641     C
C       0.8831    0.641    0.359     C
C       0.8831    0.641    0.641     C
C       0.8877   0.1123   0.2543     C
C       0.8877   0.1123   0.7457     C
C       0.8877   0.2543   0.1123     C
C       0.8877   0.2543   0.8877     C
C       0.8877   0.7457   0.1123     C
C       0.8877   0.7457   0.8877     C
C       0.8877   0.8877   0.2543     C
C       0.8877   0.8877   0.7457     C
H       0.8951   0.1049   0.2263     H
H       0.8951   0.1049   0.7737     H
H       0.8951   0.2263   0.1049     H
H       0.8951   0.2263   0.8951     H
H       0.8951   0.7737   0.1049     H
H       0.8951   0.7737   0.8951     H
H       0.8951   0.8951   0.2263     H
H       0.8951   0.8951   0.7737     H
C       0.8998   0.1543   0.3176     C
C       0.8998   0.1543   0.6824     C
C       0.8998   0.3176   0.1543     C
C       0.8998   0.3176   0.8457     C
C       0.8998   0.6824   0.1543     C
C       0.8998   0.6824   0.8457     C
C       0.8998   0.8457   0.3176     C
C       0.8998   0.8457   0.6824     C
C       0.9096    0.145   0.2747     C
C       0.9096    0.145   0.7253     C
C       0.9096   0.2747    0.145     C
C       0.9096   0.2747    0.855     C
C       0.9096   0.7253    0.145     C
C       0.9096   0.7253    0.855     C
C       0.9096    0.855   0.2747     C
C       0.9096    0.855   0.7253     C
H       0.9145   0.1761   0.3316     H
H       0.9145   0.1761   0.6684     H
H       0.9145   0.3316   0.1761     H
H       0.9145   0.3316   0.8239     H
H       0.9145   0.6684   0.1761     H
H       0.9145   0.6684   0.8239     H
H       0.9145   0.8239   0.3316     H
H       0.9145   0.8239   0.6684     H
C       0.9198   0.3505   0.3505     C
C       0.9198   0.3505   0.6495     C
C       0.9198   0.6495   0.3505     C
C       0.9198   0.6495   0.6495     C
H       0.9377   0.2934   0.2934     H
H       0.9377   0.2934   0.7066     H
H       0.9377   0.7066   0.2934     H
H       0.9377   0.7066   0.7066     H
C       0.9428   0.1697   0.2509     C
C       0.9428   0.1697   0.7491     C
C       0.9428   0.2509   0.1697     C
C       0.9428   0.2509   0.8303     C
C       0.9428   0.7491   0.1697     C
C       0.9428   0.7491   0.8303     C
C       0.9428   0.8303   0.2509     C
C       0.9428   0.8303   0.7491     C
O      0.95563  0.20456  0.26769     O
O      0.95563  0.20456  0.73231     O
O      0.95563  0.26769  0.20456     O
O      0.95563  0.26769  0.79544     O
O      0.95563  0.73231  0.20456     O
O      0.95563  0.73231  0.79544     O
O      0.95563  0.79544  0.26769     O
O      0.95563  0.79544  0.73231     O
O      0.95594  0.15394  0.21601     O
O      0.95594  0.15394  0.78399     O
O      0.95594  0.21601  0.15394     O
O      0.95594  0.21601  0.84606     O
O      0.95594  0.78399  0.15394     O
O      0.95594  0.78399  0.84606     O
O      0.95594  0.84606  0.21601     O
O      0.95594  0.84606  0.78399     O
C       0.9615   0.3364   0.3364     C
C       0.9615   0.3364   0.6636     C
C       0.9615   0.6636   0.3364     C
C       0.9615   0.6636   0.6636     C
C       0.9633   0.3043   0.3043     C
C       0.9633   0.3043   0.6957     C
C       0.9633   0.6957   0.3043     C
C       0.9633   0.6957   0.6957     C
