data_I
_chemical_name_common  '/home/zhangsd/repos/MofS-CGCNN/ML/data/TSD/clean_cifs/EMAGAB_clean'
_cell_length_a  8.49400
_cell_length_b 12.98700
_cell_length_c 15.18700
_cell_angle_alpha 91.21300
_cell_angle_beta  94.18500
_cell_angle_gamma 108.52500
_space_group_name_H-M_alt      'P 1'


loop_
_space_group_symop_operation_xyz
  'x, y, z' 

loop_
_atom_site_label
_atom_site_fract_x
_atom_site_fract_y
_atom_site_fract_z
_atom_site_type_symbol
Zn      0.0059  0.60959  0.41515    Zn
N       0.0065   0.4735   0.6995     N
H       0.0273   0.0847   0.2233     H
H        0.029   0.3139   0.4022     H
N         0.03    0.822   0.6784     N
H       0.0415   0.1438   0.5668     H
N       0.0538   0.4664    0.174     N
H       0.0569   0.2938   0.0856     H
C        0.059   0.1482    0.259     C
C         0.06    0.857    0.414     C
C        0.062   0.2763   0.3582     C
C          0.1   0.6081    0.806     C
C        0.106    0.543   0.2404     C
N       0.1077   0.7703   0.3975     N
C        0.118   0.3561   0.0591     C
C        0.134   0.5654   0.7273     C
C        0.135   0.4546   0.0963     C
O       0.1483   0.6006   0.5176     O
H       0.1534   0.0268   0.6778     H
H       0.1639   0.6712    0.838     H
H       0.1787   0.2778   0.9583     H
H       0.1893   0.0182   0.3928     H
C        0.191   0.3462    0.983     C
C        0.192    0.948    0.397     C
C        0.194   0.8856   0.6597     C
C        0.205   0.2322    0.261     C
H       0.2069   0.5996    0.244     H
N       0.2096   0.3124   0.3216     N
O       0.2183   0.4296   0.5472     O
H       0.2293   0.5951    0.698     H
C        0.231   0.5499    0.059     C
C        0.235    0.995    0.667     C
H       0.2435   0.6183   0.0842     H
H        0.248   0.2671   0.8228     H
H       0.2654   0.7657     0.62     H
C        0.269   0.8116   0.3886     C
C         0.28   0.4373   0.9436     C
P       0.2859   0.5474   0.5162     P
H       0.2909   0.2346   0.2255     H
C          0.3   0.8406   0.6311     C
C        0.306   0.5377    0.983     C
C        0.317    0.336   0.8115     C
N       0.3221    0.916   0.3864     N
H       0.3377   0.7689   0.3842     H
O       0.3386   0.5468    0.423     O
N       0.3529   0.4278   0.8635     N
H       0.3744    0.599   0.9583     H
C        0.401    0.062    0.659     C
Zn      0.4039  0.44224  0.35894    Zn
C        0.404    0.366   0.7391     C
H       0.4052   0.3186   0.6926     H
O       0.4335   0.6129   0.5811     O
H       0.4342    0.136   0.6729     H
C        0.452   0.5091   0.8201     C
H       0.4574   0.1286   0.4012     H
C        0.467   0.9042   0.6166     C
N        0.488    0.475   0.7438     N
C        0.489   0.9847   0.3703     C
H        0.492   0.5811   0.8415     H
H        0.508   0.4189   0.1585     H
C        0.511   0.0153   0.6297     C
N        0.512    0.525   0.2562     N
C        0.533   0.0958   0.3834     C
H       0.5426   0.8714   0.5988     H
C        0.548   0.4909   0.1799     C
H       0.5658    0.864   0.3271     H
O       0.5665   0.3871   0.4189     O
H       0.5948   0.6814   0.3074     H
C        0.596    0.634   0.2609     C
Zn      0.5961  0.55776  0.64106    Zn
C        0.599    0.938    0.341     C
H       0.6256    0.401   0.0417     H
N       0.6471   0.5722   0.1365     N
O       0.6614   0.4532    0.577     O
H       0.6623   0.2311   0.6158     H
N       0.6779    0.084   0.6136     N
C        0.683    0.664   0.1885     C
C        0.694   0.4623    0.017     C
C          0.7   0.1594   0.3689     C
H       0.7091   0.7654   0.7745     H
P       0.7141   0.4526   0.4838     P
C         0.72   0.5627   0.0564     C
C        0.731   0.1884   0.6114     C
H       0.7346   0.2343     0.38     H
H        0.752   0.7329   0.1772     H
H       0.7565   0.3817   0.9158     H
C        0.765    0.005    0.333     C
C        0.769   0.4501    0.941     C
H       0.7707   0.4049    0.302     H
O       0.7817   0.5704   0.4528     O
N       0.7904   0.6876   0.6784     N
H       0.7931   0.4004    0.756     H
C        0.795   0.7678    0.739     C
C        0.806   0.1144   0.3403     C
C        0.808    0.052    0.603     C
C        0.809   0.6538    0.017     C
H       0.8107   0.9818   0.6072     H
H       0.8213   0.7222   0.0417     H
H       0.8361   0.3288    0.162     H
H       0.8466   0.9732   0.3222     H
O       0.8517   0.3994   0.4824     O
C        0.865   0.5454   0.9037     C
C        0.866   0.4346   0.2727     C
C        0.882   0.6439   0.9409     C
N       0.8923   0.2297   0.6025     N
C        0.894    0.457   0.7596     C
C          0.9   0.3919    0.194     C
C        0.938   0.7237   0.6418     C
C         0.94    0.143    0.586     C
C        0.941   0.8518    0.741     C
H       0.9431   0.7062   0.9144     H
N       0.9462   0.5336    0.826     N
H       0.9585   0.8562   0.4332     H
N         0.97    0.178   0.3216     N
H        0.971   0.6861   0.5978     H
H       0.9727   0.9153   0.7767     H
N       0.9935   0.5265   0.3005     N
Zn      0.9941  0.39041  0.58485    Zn
