data_I
_chemical_name_common  '/home/zhangsd/repos/MofS-CGCNN/ML/data/TSD/clean_cifs/EMOSOP_clean'
_cell_length_a  9.56670
_cell_length_b 16.40810
_cell_length_c 16.44690
_cell_angle_alpha 90.00000
_cell_angle_beta  90.00000
_cell_angle_gamma 90.00000
_space_group_name_H-M_alt      'P 1'


loop_
_space_group_symop_operation_xyz
  'x, y, z' 

loop_
_atom_site_label
_atom_site_fract_x
_atom_site_fract_y
_atom_site_fract_z
_atom_site_type_symbol
H       0.0023    0.516   0.6736     H
C       0.0096   0.0406      0.6     C
H       0.0104   0.1599   0.6213     H
H       0.0253   0.2977   0.5937     H
Cd     0.02557  0.42964  0.12079    Cd
H       0.0308   0.3105   0.7319     H
C       0.0337     0.89   0.5723     C
O       0.0393  0.30267  0.35785     O
C       0.0439   0.3073   0.4351     C
C       0.0492   0.3548   0.6945     C
O       0.0551   0.7809  0.02219     O
H       0.0602   0.8496   0.6125     H
H       0.0659   0.4242    0.553     H
C        0.066   0.7773   0.4763     C
H       0.0676   0.3924   0.9294     H
C       0.0683   0.1144   0.6194     C
H       0.0799   0.7487    0.528     H
C       0.0815   0.9874   0.8288     C
C       0.0824   0.2578   0.0533     C
H        0.083   0.1177   0.3335     H
C       0.0835   0.9032   0.8177     C
H       0.0856   0.5373   0.9109     H
N       0.0875   0.8653   0.4916     N
C       0.0908   0.9717   0.5967     C
O       0.0997  0.82983  0.30547     O
N       0.1059   0.3206    0.617     N
O        0.119   0.1846   0.0493     O
H       0.1193   0.3898    0.719     H
H       0.1237   0.9379   0.1495     H
O       0.1338  0.61153   0.1237     O
C       0.1425   0.3848   0.5572     C
C       0.1477   0.7622   0.3271     C
O       0.1569  0.31636  0.07911     O
C       0.1683   0.0905   0.3336     C
N       0.1695   0.0097   0.3476     N
C       0.1695   0.3457   0.4733     C
C       0.1729   0.7434   0.4155     C
H        0.176   0.6847   0.4218     H
H       0.1827   0.8691   0.4994     H
Cd     0.18443  0.75012  0.14895    Cd
O       0.1871  0.70777  0.27669     O
H       0.2037    0.084   0.8507     H
N       0.2044   0.1243   0.6356     N
H       0.2052   0.3873   0.4369     H
C       0.2064   0.0278   0.8434     C
H       0.2096    0.065   0.1176     H
O       0.2101   0.4969   0.0669     O
C       0.2122   0.8656   0.8196     C
C       0.2177   0.9428   0.1358     C
H       0.2181   0.8096   0.8113     H
C       0.2238   0.5717   0.0851     C
C       0.2316   0.9801   0.6168     C
H       0.2357   0.2356   0.9301     H
H       0.2415   0.3045   0.4792     H
H       0.2585   0.6955   0.9792     H
H       0.2643   0.7644   0.4301     H
C       0.2684   0.0199   0.1168     C
C       0.2762   0.4283   0.5851     C
H       0.2819   0.1904   0.3113     H
C       0.2823   0.0572   0.6358     C
C       0.2878   0.1344   0.3196     C
O       0.2899   0.5031   0.5669     O
H       0.2904    0.935   0.6176     H
C       0.2936   0.9722   0.3434     C
H       0.2948   0.6127   0.9369     H
N       0.2956   0.8757   0.1356     N
H       0.2963    0.916   0.3507     H
O       0.3129  0.29223  0.77669     O
Cd     0.31557  0.24988  0.64895    Cd
H       0.3173   0.1309   0.9994     H
H        0.324   0.3153   0.9218     H
C       0.3271   0.2566   0.9155     C
C       0.3305   0.6543   0.9733     C
N       0.3305   0.9903   0.8476     N
C       0.3317   0.9095   0.8336     C
O       0.3431  0.68364  0.57911     O
C       0.3523   0.2378   0.8271     C
C       0.3575   0.6152   0.0572     C
O       0.3662  0.38847   0.6237     O
H       0.3763   0.0621   0.6495     H
H       0.3807   0.6102    0.219     H
O        0.381   0.8154   0.5493     O
N       0.3941   0.6794    0.117     N
O       0.4003  0.17017  0.80547     O
C       0.4092   0.0283   0.0967     C
N       0.4125   0.1347   0.9916     N
H       0.4144   0.4627   0.4109     H
C       0.4165   0.0968   0.3177     C
H        0.417   0.8823   0.8335     H
C       0.4176   0.7422   0.5533     C
C       0.4185   0.0126   0.3288     C
H       0.4201   0.2513    0.028     H
C       0.4317   0.8856   0.1194     C
H       0.4324   0.6076   0.4294     H
C        0.434   0.2227   0.9763     C
H       0.4341   0.5758    0.053     H
H       0.4398   0.1504   0.1125     H
O       0.4449   0.2191  0.52219     O
C       0.4508   0.6452   0.1945     C
C       0.4561   0.6927   0.9351     C
O       0.4607  0.69733  0.85785     O
C       0.4663     0.11   0.0723     C
H       0.4692   0.6895   0.2319     H
Cd     0.47443  0.57036  0.62079    Cd
H       0.4747   0.7023   0.0937     H
H       0.4896   0.8401   0.1213     H
C       0.4904   0.9594      0.1     C
H       0.4977    0.484   0.1736     H
H       0.5023    0.984   0.3264     H
C       0.5096   0.4594      0.4     C
H       0.5104   0.3401   0.3787     H
H       0.5253   0.2023   0.4063     H
Cd     0.52557  0.07036  0.87921    Cd
H       0.5308   0.1895   0.2681     H
C       0.5337     0.61   0.4277     C
O       0.5393  0.19733  0.64215     O
C       0.5439   0.1927   0.5649     C
C       0.5492   0.1452   0.3055     C
O       0.5551   0.7191  0.97781     O
H       0.5602   0.6504   0.3875     H
H       0.5659   0.0758    0.447     H
C        0.566   0.7227   0.5237     C
H       0.5676   0.1076   0.0706     H
C       0.5683   0.3856   0.3806     C
H       0.5799   0.7513    0.472     H
C       0.5815   0.5126   0.1712     C
C       0.5824   0.2422   0.9467     C
H        0.583   0.3823   0.6665     H
C       0.5835   0.5968   0.1823     C
H       0.5856   0.9627   0.0891     H
N       0.5875   0.6347   0.5084     N
C       0.5908   0.5283   0.4033     C
O       0.5997  0.67017  0.69453     O
N       0.6059   0.1794    0.383     N
O        0.619   0.3154   0.9507     O
H       0.6193   0.1102    0.281     H
H       0.6237   0.5621   0.8505     H
O       0.6338  0.88847   0.8763     O
C       0.6425   0.1152   0.4428     C
C       0.6477   0.7378   0.6729     C
O       0.6569  0.18364  0.92089     O
C       0.6683   0.4095   0.6664     C
C       0.6695   0.1543   0.5267     C
N       0.6695   0.4903   0.6524     N
C       0.6729   0.7566   0.5845     C
H        0.676   0.8153   0.5782     H
H       0.6827   0.6309   0.5006     H
Cd     0.68443  0.74988  0.85105    Cd
O       0.6871  0.79223  0.72331     O
H       0.7037    0.416   0.1493     H
N       0.7044   0.3757   0.3644     N
H       0.7052   0.1127   0.5631     H
C       0.7064   0.4722   0.1566     C
H       0.7096    0.435   0.8824     H
O       0.7101   0.0031   0.9331     O
C       0.7122   0.6344   0.1804     C
C       0.7177   0.5572   0.8642     C
H       0.7181   0.6904   0.1887     H
C       0.7238   0.9283   0.9149     C
C       0.7316   0.5199   0.3832     C
H       0.7357   0.2644   0.0699     H
H       0.7415   0.1955   0.5208     H
H       0.7585   0.8045   0.0208     H
H       0.7643   0.7356   0.5699     H
C       0.7684   0.4801   0.8832     C
C       0.7762   0.0717   0.4149     C
H       0.7819   0.3096   0.6887     H
C       0.7823   0.4428   0.3642     C
C       0.7878   0.3656   0.6804     C
O       0.7899   0.9969   0.4331     O
H       0.7904    0.565   0.3824     H
C       0.7936   0.5278   0.6566     C
H       0.7948   0.8873   0.0631     H
N       0.7956   0.6243   0.8644     N
H       0.7963    0.584   0.6493     H
O       0.8129  0.20777  0.22331     O
Cd     0.81557  0.25012  0.35105    Cd
H       0.8173   0.3691   0.0006     H
H        0.824   0.1847   0.0782     H
C       0.8271   0.2434   0.0845     C
N       0.8305   0.5097   0.1524     N
C       0.8305   0.8457   0.0267     C
C       0.8317   0.5905   0.1664     C
O       0.8431  0.81636  0.42089     O
C       0.8523   0.2622   0.1729     C
C       0.8575   0.8848   0.9428     C
O       0.8662  0.11153   0.3763     O
H       0.8763   0.4379   0.3505     H
H       0.8807   0.8898    0.781     H
O        0.881   0.6846   0.4507     O
N       0.8941   0.8206    0.883     N
O       0.9003  0.32983  0.19453     O
C       0.9092   0.4717   0.9033     C
N       0.9125   0.3653   0.0084     N
H       0.9144   0.0373   0.5891     H
C       0.9165   0.4032   0.6823     C
H        0.917   0.6177   0.1665     H
C       0.9176   0.7578   0.4467     C
C       0.9185   0.4874   0.6712     C
H       0.9201   0.2487    0.972     H
C       0.9317   0.6144   0.8806     C
H       0.9324   0.8924   0.5706     H
C        0.934   0.2773   0.0237     C
H       0.9341   0.9242    0.947     H
H       0.9398   0.3496   0.8875     H
O       0.9449   0.2809  0.47781     O
C       0.9508   0.8548   0.8055     C
C       0.9561   0.8073   0.0649     C
O       0.9607  0.80267  0.14215     O
C       0.9663     0.39   0.9277     C
H       0.9692   0.8105   0.7681     H
Cd     0.97443  0.92964  0.37921    Cd
H       0.9747   0.7977   0.9063     H
H       0.9896   0.6599   0.8787     H
C       0.9904   0.5406      0.9     C
H       0.9977    0.016   0.8264     H
