data_I
_chemical_name_common  '/home/zhangsd/repos/MofS-CGCNN/ML/data/TSD/clean_cifs/EMUTUD_clean'
_cell_length_a  9.93250
_cell_length_b 12.70890
_cell_length_c 16.20270
_cell_angle_alpha 90.00000
_cell_angle_beta  96.23600
_cell_angle_gamma 90.00000
_space_group_name_H-M_alt      'P 1'


loop_
_space_group_symop_operation_xyz
  'x, y, z' 

loop_
_atom_site_label
_atom_site_fract_x
_atom_site_fract_y
_atom_site_fract_z
_atom_site_type_symbol
C       0.0074   0.0115   0.0471     C
C       0.0074   0.4885   0.5471     C
H       0.0094   0.5754   0.0468     H
H       0.0094   0.9246   0.5468     H
H       0.0579   0.0504   0.6511     H
H       0.0579   0.4496   0.1511     H
C       0.0901   0.5788   0.0816     C
C       0.0901   0.9212   0.5816     C
O       0.0956   0.5009   0.4159     O
O       0.0956   0.9991   0.9159     O
C       0.1179   0.5048   0.1461     C
C       0.1179   0.9952   0.6461     C
O       0.1228   0.0381   0.0794     O
O       0.1228   0.4619   0.5794     O
H        0.166   0.7015   0.0266     H
H        0.166   0.7985   0.5266     H
C       0.1827   0.6552   0.0709     C
C       0.1827   0.8448   0.5709     C
Br      0.2194  0.24502   0.4835    Br
Br      0.2194  0.25498   0.9835    Br
C       0.2299   0.5128   0.2007     C
C       0.2299   0.9872   0.7007     C
H       0.2446   0.0356   0.7437     H
H       0.2446   0.4644   0.2437     H
O       0.2667   0.6419    0.523     O
O       0.2667   0.8581    0.023     O
C       0.3039   0.6663   0.1254     C
C       0.3039   0.8337   0.6254     C
Eu      0.3059  0.04326  0.99499    Eu
Eu      0.3059  0.45674  0.49499    Eu
C       0.3257   0.5943   0.1932     C
C       0.3257   0.9057   0.6932     C
O       0.3628   0.5228   0.3663     O
O       0.3628   0.9772   0.8663     O
H       0.3772   0.1799   0.2299     H
H       0.3772   0.3201   0.7299     H
C       0.3851   0.6709   0.5495     C
C       0.3851   0.8291   0.0495     C
C       0.4053    0.744   0.1137     C
C       0.4053    0.756   0.6137     C
H       0.4092    0.207   0.8448     H
H       0.4092    0.293   0.3448     H
O       0.4136   0.0441   0.1326     O
O       0.4136   0.4559   0.6326     O
C       0.4456    0.607   0.2508     C
C       0.4456    0.893   0.7508     C
C       0.4577   0.1769    0.265     C
C       0.4577   0.3231    0.765     C
C       0.4665   0.5516   0.3339     C
C       0.4665   0.9484   0.8339     C
C       0.4773   0.2461   0.3346     C
C       0.4773   0.2539   0.8346     C
O       0.4864   0.6236   0.5269     O
O       0.4864   0.8764   0.0269     O
O       0.5136   0.1236   0.9731     O
O       0.5136   0.3764   0.4731     O
C       0.5227   0.7461   0.1654     C
C       0.5227   0.7539   0.6654     C
C       0.5335   0.0516   0.1661     C
C       0.5335   0.4484   0.6661     C
C       0.5423   0.6769    0.235     C
C       0.5423   0.8231    0.735     C
C       0.5544    0.107   0.2492     C
C       0.5544    0.393   0.7492     C
O       0.5864   0.5441   0.3674     O
O       0.5864   0.9559   0.8674     O
H       0.5908    0.707   0.6552     H
H       0.5908    0.793   0.1552     H
C       0.5947    0.244   0.3863     C
C       0.5947    0.256   0.8863     C
C       0.6149   0.1709   0.9505     C
C       0.6149   0.3291   0.4505     C
H       0.6228   0.6799   0.2701     H
H       0.6228   0.8201   0.7701     H
O       0.6372   0.0228   0.1337     O
O       0.6372   0.4772   0.6337     O
C       0.6743   0.0943   0.3068     C
C       0.6743   0.4057   0.8068     C
Eu      0.6941  0.54326  0.50501    Eu
Eu      0.6941  0.95674  0.00501    Eu
C       0.6961   0.1663   0.3746     C
C       0.6961   0.3337   0.8746     C
O       0.7333   0.1419    0.977     O
O       0.7333   0.3581    0.477     O
H       0.7554   0.5356   0.7563     H
H       0.7554   0.9644   0.2563     H
C       0.7701   0.0128   0.2993     C
C       0.7701   0.4872   0.7993     C
Br      0.7806  0.74502   0.0165    Br
Br      0.7806  0.75498   0.5165    Br
C       0.8173   0.1552   0.4291     C
C       0.8173   0.3448   0.9291     C
H        0.834   0.2015   0.4734     H
H        0.834   0.2985   0.9734     H
O       0.8772   0.5381   0.4206     O
O       0.8772   0.9619   0.9206     O
C       0.8821   0.0048   0.3539     C
C       0.8821   0.4952   0.8539     C
O       0.9044   0.0009   0.0841     O
O       0.9044   0.4991   0.5841     O
C       0.9099   0.0788   0.4184     C
C       0.9099   0.4212   0.9184     C
H       0.9421   0.5504   0.8489     H
H       0.9421   0.9496   0.3489     H
H       0.9906   0.0754   0.4532     H
H       0.9906   0.4246   0.9532     H
C       0.9926   0.5115   0.4529     C
C       0.9926   0.9885   0.9529     C
