data_I
_chemical_name_common  '/home/zhangsd/repos/MofS-CGCNN/ML/data/TSD/clean_cifs/EMUVAL_clean'
_cell_length_a  9.95240
_cell_length_b 12.67000
_cell_length_c 16.21370
_cell_angle_alpha 90.00000
_cell_angle_beta  96.18000
_cell_angle_gamma 90.00000
_space_group_name_H-M_alt      'P 1'


loop_
_space_group_symop_operation_xyz
  'x, y, z' 

loop_
_atom_site_label
_atom_site_fract_x
_atom_site_fract_y
_atom_site_fract_z
_atom_site_type_symbol
C       0.0071   0.0104   0.0474     C
C       0.0071   0.4896   0.5474     C
H       0.0088   0.5751   0.0476     H
H       0.0088   0.9249   0.5476     H
H       0.0572   0.0511   0.6524     H
H       0.0572   0.4489   0.1524     H
C       0.0894   0.5788   0.0823     C
C       0.0894   0.9212   0.5823     C
O       0.0953   0.5001   0.4158     O
O       0.0953   0.9999   0.9158     O
C       0.1171   0.5042   0.1468     C
C       0.1171   0.9958   0.6468     C
O        0.123   0.0378    0.079     O
O        0.123   0.4622    0.579     O
H        0.162   0.7022   0.0272     H
H        0.162   0.7978   0.5272     H
C       0.1797   0.6552   0.0711     C
C       0.1797   0.8448   0.5711     C
Br      0.2206  0.24331   0.4842    Br
Br      0.2206  0.25669   0.9842    Br
C        0.231    0.513   0.2007     C
C        0.231    0.987   0.7007     C
H       0.2468   0.0356   0.7436     H
H       0.2468   0.4644   0.2436     H
O       0.2645   0.6418   0.5225     O
O       0.2645   0.8582   0.0225     O
C        0.303   0.6658   0.1255     C
C        0.303   0.8342   0.6255     C
Sm     0.30634  0.04382  0.99503    Sm
Sm     0.30634  0.45618  0.49503    Sm
C       0.3254   0.5941   0.1931     C
C       0.3254   0.9059   0.6931     C
O        0.364   0.5221   0.3658     O
O        0.364   0.9779   0.8658     O
H       0.3781   0.1799   0.2308     H
H       0.3781   0.3201   0.7308     H
C       0.3825   0.6713    0.548     C
C       0.3825   0.8287    0.048     C
C       0.4035   0.7426   0.1137     C
C       0.4035   0.7574   0.6137     C
H       0.4105    0.206   0.8453     H
H       0.4105    0.294   0.3453     H
O        0.413   0.0445    0.133     O
O        0.413   0.4555    0.633     O
C       0.4453   0.6064     0.25     C
C       0.4453   0.8936     0.75     C
C       0.4584   0.1769   0.2658     C
C       0.4584   0.3231   0.7658     C
C       0.4662   0.5514   0.3333     C
C       0.4662   0.9486   0.8333     C
C       0.4778   0.2464    0.335     C
C       0.4778   0.2536    0.835     C
O       0.4837   0.6231   0.5268     O
O       0.4837   0.8769   0.0268     O
O       0.5163   0.1231   0.9732     O
O       0.5163   0.3769   0.4732     O
C       0.5222   0.7464    0.165     C
C       0.5222   0.7536    0.665     C
C       0.5338   0.0514   0.1667     C
C       0.5338   0.4486   0.6667     C
C       0.5416   0.6769   0.2342     C
C       0.5416   0.8231   0.7342     C
C       0.5547   0.1064     0.25     C
C       0.5547   0.3936     0.75     C
O        0.587   0.5445    0.367     O
O        0.587   0.9555    0.867     O
H       0.5895    0.706   0.6547     H
H       0.5895    0.794   0.1547     H
C       0.5965   0.2426   0.3863     C
C       0.5965   0.2574   0.8863     C
C       0.6175   0.1713    0.952     C
C       0.6175   0.3287    0.452     C
H       0.6219   0.6799   0.2692     H
H       0.6219   0.8201   0.7692     H
O        0.636   0.0221   0.1342     O
O        0.636   0.4779   0.6342     O
C       0.6746   0.0941   0.3069     C
C       0.6746   0.4059   0.8069     C
Sm     0.69366  0.54382  0.50497    Sm
Sm     0.69366  0.95618  0.00497    Sm
C        0.697   0.1658   0.3745     C
C        0.697   0.3342   0.8745     C
O       0.7355   0.1418   0.9775     O
O       0.7355   0.3582   0.4775     O
H       0.7532   0.5356   0.7564     H
H       0.7532   0.9644   0.2564     H
C        0.769    0.013   0.2993     C
C        0.769    0.487   0.7993     C
Br      0.7794  0.74331   0.0158    Br
Br      0.7794  0.75669   0.5158    Br
C       0.8203   0.1552   0.4289     C
C       0.8203   0.3448   0.9289     C
H        0.838   0.2022   0.4728     H
H        0.838   0.2978   0.9728     H
O        0.877   0.5378    0.421     O
O        0.877   0.9622    0.921     O
C       0.8829   0.0042   0.3532     C
C       0.8829   0.4958   0.8532     C
O       0.9047   0.0001   0.0842     O
O       0.9047   0.4999   0.5842     O
C       0.9106   0.0788   0.4177     C
C       0.9106   0.4212   0.9177     C
H       0.9428   0.5511   0.8476     H
H       0.9428   0.9489   0.3476     H
H       0.9912   0.0751   0.4524     H
H       0.9912   0.4249   0.9524     H
C       0.9929   0.5104   0.4526     C
C       0.9929   0.9896   0.9526     C
