data_I
_chemical_name_common  '/home/zhangsd/repos/MofS-CGCNN/ML/data/TSD/clean_cifs/ENOVAG_clean'
_cell_length_a 17.35300
_cell_length_b 30.45300
_cell_length_c 17.51100
_cell_angle_alpha 90.00000
_cell_angle_beta  119.54700
_cell_angle_gamma 90.00000
_space_group_name_H-M_alt      'P 1'


loop_
_space_group_symop_operation_xyz
  'x, y, z' 

loop_
_atom_site_label
_atom_site_fract_x
_atom_site_fract_y
_atom_site_fract_z
_atom_site_type_symbol
Nd     0.00567  0.07145  0.69564    Nd
Nd     0.00567  0.42855  0.69564    Nd
O       0.0334  0.55487   0.0975     O
O       0.0334  0.94513   0.0975     O
C       0.0388   0.0631   0.9066     C
C       0.0388   0.4369   0.9066     C
H       0.0428   0.0027   0.4742     H
H       0.0428   0.4973   0.4742     H
O       0.0472   0.0867   0.8476     O
O       0.0472   0.4133   0.8476     O
H       0.0621    0.211   0.6578     H
H       0.0621    0.289   0.6578     H
H       0.0675   0.0039   0.0252     H
H       0.0675   0.4961   0.0252     H
O       0.0706  0.50261   0.7833     O
O       0.0706  0.99739   0.7833     O
O       0.0717   0.0511   0.6037     O
O       0.0717   0.4489   0.6037     O
C       0.0879  0.01285   0.4647     C
C       0.0879  0.48715   0.4647     C
O       0.0928  0.63408   0.3224     O
O       0.0928  0.86592   0.3224     O
O       0.0935  0.14002   0.6975     O
O       0.0935  0.35998   0.6975     O
N       0.0952  0.50368   0.4021     N
N       0.0952  0.99632   0.4021     N
H       0.0984   0.7134   0.1565     H
H       0.0984   0.7866   0.1565     H
N       0.1021    0.728   0.2048     N
C       0.1021    0.772   0.2048     C
C       0.1039   0.2266   0.7062     C
C       0.1039   0.2734   0.7062     C
C       0.1043  0.65519   0.2671     C
C       0.1043  0.84481   0.2671     C
C       0.1069   0.7048   0.2696     C
C       0.1069   0.7952   0.2696     C
C       0.1169   0.7283   0.3477     C
C       0.1169   0.7717   0.3477     C
O       0.1196  0.54692   0.2841     O
O       0.1196  0.95308   0.2841     O
C       0.1218  0.01342   0.0327     C
C       0.1218    0.048    0.978     C
C       0.1218    0.452    0.978     C
C       0.1218  0.48658   0.0327     C
H       0.1231   0.7128   0.3962     H
H       0.1231   0.7872   0.3962     H
O        0.125  0.63857   0.2166     O
O        0.125  0.86143   0.2166     O
C       0.1356   0.0624   0.5978     C
C       0.1356   0.4376   0.5978     C
C       0.1464  0.04671   0.5222     C
C       0.1464  0.45329   0.5222     C
C       0.1523   0.0089   0.8095     C
C       0.1523   0.4911   0.8095     C
C       0.1563   0.0124   0.3804     C
C       0.1563   0.4876   0.3804     C
C       0.1583   0.1564   0.7675     C
C       0.1583   0.3436   0.7675     C
H       0.1636   0.5627   0.9066     H
H       0.1636   0.9373   0.9066     H
C       0.1638   0.5092   0.3103     C
C       0.1638   0.9908   0.3103     C
C       0.1644    0.206   0.7763     C
C       0.1644    0.294   0.7763     C
O       0.1669  0.04521   0.7844     O
O       0.1669  0.45479   0.7844     O
Nd     0.18938  0.57313  0.19359    Nd
Nd     0.18938  0.92687  0.19359    Nd
N        0.195  0.50607   0.0941     N
N        0.195  0.99393   0.0941     N
O       0.2031  0.08534   0.6541     O
O       0.2031  0.41466   0.6541     O
C       0.2039  0.06462    0.005     C
C       0.2039  0.43538    0.005     C
C       0.2057   0.0654   0.4997     C
C       0.2057   0.4346   0.4997     C
H       0.2086   0.0876   0.9724     H
H       0.2086   0.4124   0.9724     H
C       0.2094   0.0479   0.4265     C
C       0.2094   0.4521   0.4265     C
O       0.2125  0.00121   0.2802     O
O       0.2125  0.49879   0.2802     O
O       0.2161  0.13457   0.8297     O
O       0.2161  0.36543   0.8297     O
C       0.2193  0.55059   0.9253     C
C       0.2193  0.94941   0.9253     C
N       0.2252   0.2291   0.8516     N
C       0.2252   0.2709   0.8516     C
C       0.2285  0.51525   0.8805     C
C       0.2285  0.98475   0.8805     C
H       0.2287   0.7146   0.1247     H
H       0.2287   0.7854   0.1247     H
H       0.2418   0.0887   0.5317     H
H       0.2418   0.4113   0.5317     H
H       0.2475   0.0602   0.4093     H
H       0.2475   0.4398   0.4093     H
H       0.2614    0.589   0.4703     H
H       0.2614    0.911   0.4703     H
H       0.2616   0.5644   0.5984     H
H       0.2616   0.9356   0.5984     H
H       0.2655   0.2138   0.9014     H
H       0.2655   0.2862   0.9014     H
O       0.2686  0.63908   0.1846     O
O       0.2686  0.86092   0.1846     O
C       0.2704   0.0114   0.1223     C
C       0.2704   0.4886   0.1223     C
N       0.2755  0.72927   0.1708     N
C       0.2755  0.77073   0.1708     C
C       0.2793  0.05042   0.0755     C
C       0.2793  0.44958   0.0755     C
H       0.2863   0.5899   0.0304     H
H       0.2863   0.9101   0.0304     H
O       0.2881  0.50392   0.7171     O
O       0.2881  0.99608   0.7171     O
C        0.292   0.5677   0.9969     C
C        0.292   0.9323   0.9969     C
C       0.2964   0.5508   0.5785     C
C       0.2964   0.9492   0.5785     C
O       0.2992  0.58621   0.3446     O
O       0.2992  0.91379   0.3446     O
C       0.2997   0.5666   0.5036     C
C       0.2997   0.9334   0.5036     C
N       0.3049  0.00233   0.8988     N
N       0.3049  0.49767   0.8988     N
Nd      0.3098  0.07072  0.80598    Nd
Nd      0.3098  0.42928  0.80598    Nd
O       0.3308  0.54702   0.2146     O
O       0.3308  0.95298   0.2146     O
H       0.3335   0.0641   0.0937     H
H       0.3335   0.4359   0.0937     H
C       0.3383   0.0097   0.6892     C
C       0.3383   0.4903   0.6892     C
C       0.3398  0.65424   0.2358     C
C       0.3398  0.84576   0.2358     C
C       0.3449   0.5158   0.6185     C
C       0.3449   0.9842   0.6185     C
C       0.3468  0.70338   0.2408     C
C       0.3468  0.79662   0.2408     C
C       0.3484  0.51284   0.1883     C
C       0.3484  0.98716   0.1883     C
C       0.3574   0.5499   0.4794     C
C       0.3574   0.9501   0.4794     C
C       0.3609  0.56597   0.4029     C
C       0.3609  0.93403   0.4029     C
O       0.3679  0.13637   0.7843     O
O       0.3679  0.36363   0.7843     O
H       0.3691   0.2127   0.6081     H
H       0.3691   0.2873   0.6081     H
C       0.3757   0.5506   0.0181     C
C       0.3757   0.9494   0.0181     C
C      0.37719   0.5186    0.961     C
C      0.37719   0.9814    0.961     C
O       0.3791  0.04521   0.7174     O
O       0.3791  0.45479   0.7174     O
C       0.3798  0.22796   0.6584     C
C       0.3798  0.27204   0.6584     C
C       0.3934  0.15584   0.7357     C
C       0.3934  0.34416   0.7357     C
C       0.3966   0.2039   0.7372     C
C       0.3966   0.2961   0.7372     C
N       0.4015  0.22751   0.8113     N
C       0.4015  0.27249   0.8113     C
N       0.4042  0.00468    0.599     N
N       0.4042  0.49532    0.599     N
H       0.4047   0.2122   0.8588     H
H       0.4047   0.2878   0.8588     H
C       0.4074   0.7258    0.305     C
C       0.4074   0.7742    0.305     C
O       0.4083  0.13626   0.6814     O
O       0.4083  0.36374   0.6814     O
C       0.4104  0.51393   0.5318     C
C       0.4104  0.98607   0.5318     C
O       0.4116  0.63686   0.2843     O
O       0.4116  0.86314   0.2843     O
O       0.4254  0.00036   0.2109     O
O       0.4254  0.49964   0.2109     O
O        0.429  0.55349   0.3959     O
O        0.429  0.94651   0.3959     O
H       0.4319   0.5113   0.9668     H
H       0.4319   0.9887   0.9668     H
H       0.4522   0.5025   0.5188     H
H       0.4522   0.9975   0.5188     H
H       0.4524    0.711   0.3525     H
H       0.4524    0.789   0.3525     H
O       0.4588  0.58757   0.1552     O
O       0.4588  0.91243   0.1552     O
C       0.4596    0.566   0.0957     C
C       0.4596    0.934   0.0957     C
O       0.4655   0.0558   0.9016     O
O       0.4655   0.4442   0.9016     O
Nd     0.49622   0.5719  0.30522    Nd
Nd     0.49622   0.9281  0.30522    Nd
Nd     0.50378   0.0719  0.69478    Nd
Nd     0.50378   0.4281  0.69478    Nd
O       0.5345   0.5558   0.0984     O
O       0.5345   0.9442   0.0984     O
C       0.5404    0.066   0.9043     C
C       0.5404    0.434   0.9043     C
O       0.5412  0.08757   0.8448     O
O       0.5412  0.41243   0.8448     O
H       0.5476    0.211   0.6475     H
H       0.5476    0.289   0.6475     H
H       0.5478   0.0025   0.4812     H
H       0.5478   0.4975   0.4812     H
H       0.5681   0.0113   0.0332     H
H       0.5681   0.4887   0.0332     H
O        0.571  0.05349   0.6041     O
O        0.571  0.44651   0.6041     O
O       0.5746  0.50036   0.7891     O
O       0.5746  0.99964   0.7891     O
O       0.5884  0.13686   0.7157     O
O       0.5884  0.36314   0.7157     O
C       0.5896  0.01393   0.4682     C
C       0.5896  0.48607   0.4682     C
O       0.5917  0.63626   0.3186     O
O       0.5917  0.86374   0.3186     O
C       0.5926   0.2258    0.695     C
C       0.5926   0.2742    0.695     C
H       0.5953   0.7122   0.1412     H
H       0.5953   0.7878   0.1412     H
N       0.5958  0.50468    0.401     N
N       0.5958  0.99532    0.401     N
N       0.5985  0.72751   0.1887     N
C       0.5985  0.77249   0.1887     C
C       0.6034   0.7039   0.2628     C
C       0.6034   0.7961   0.2628     C
C       0.6066  0.65584   0.2643     C
C       0.6066  0.84416   0.2643     C
C       0.6202  0.72796   0.3416     C
C       0.6202  0.77204   0.3416     C
O       0.6209  0.54521   0.2826     O
O       0.6209  0.95479   0.2826     O
C      0.62281   0.0186    0.039     C
C      0.62281   0.4814    0.039     C
C       0.6243   0.0506   0.9819     C
C       0.6243   0.4494   0.9819     C
H       0.6309   0.7127   0.3919     H
H       0.6309   0.7873   0.3919     H
O       0.6321  0.63637   0.2157     O
O       0.6321  0.86363   0.2157     O
C       0.6391  0.06597   0.5971     C
C       0.6391  0.43403   0.5971     C
C       0.6426   0.0499   0.5206     C
C       0.6426   0.4501   0.5206     C
C       0.6516  0.01284   0.8117     C
C       0.6516  0.48716   0.8117     C
C       0.6532  0.20338   0.7592     C
C       0.6532  0.29662   0.7592     C
C       0.6551   0.0158   0.3815     C
C       0.6551   0.4842   0.3815     C
C       0.6602  0.15424   0.7642     C
C       0.6602  0.34576   0.7642     C
C       0.6617   0.5097   0.3108     C
C       0.6617   0.9903   0.3108     C
H       0.6665   0.5641   0.9063     H
H       0.6665   0.9359   0.9063     H
O       0.6692  0.04702   0.7854     O
O       0.6692  0.45298   0.7854     O
Nd      0.6902  0.57072  0.19402    Nd
Nd      0.6902  0.92928  0.19402    Nd
N       0.6951  0.50233   0.1012     N
N       0.6951  0.99767   0.1012     N
C       0.7003   0.0666   0.4964     C
C       0.7003   0.4334   0.4964     C
O       0.7008  0.08621   0.6554     O
O       0.7008  0.41379   0.6554     O
C       0.7036   0.0508   0.4215     C
C       0.7036   0.4492   0.4215     C
C        0.708   0.0677   0.0031     C
C        0.708   0.4323   0.0031     C
O       0.7119  0.00392   0.2829     O
O       0.7119  0.49608   0.2829     O
H       0.7137   0.0899   0.9696     H
H       0.7137   0.4101   0.9696     H
C       0.7207  0.55042   0.9245     C
C       0.7207  0.94958   0.9245     C
N       0.7245  0.22927   0.8292     N
C       0.7245  0.27073   0.8292     C
C       0.7296   0.5114   0.8777     C
C       0.7296   0.9886   0.8777     C
O       0.7314  0.13908   0.8154     O
O       0.7314  0.36092   0.8154     O
H       0.7345   0.7138   0.0986     H
H       0.7345   0.7862   0.0986     H
H       0.7384   0.0644   0.4016     H
H       0.7384   0.4356   0.4016     H
H       0.7386    0.089   0.5297     H
H       0.7386    0.411   0.5297     H
H       0.7525   0.5602   0.5907     H
H       0.7525   0.9398   0.5907     H
H       0.7582   0.5887   0.4683     H
H       0.7582   0.9113   0.4683     H
H       0.7713   0.2146   0.8753     H
H       0.7713   0.2854   0.8753     H
C       0.7715  0.01525   0.1195     C
C       0.7715  0.48475   0.1195     C
N       0.7748   0.7291   0.1484     N
C       0.7748   0.7709   0.1484     C
C       0.7807  0.05059   0.0747     C
C       0.7807  0.44941   0.0747     C
O       0.7839  0.63457   0.1703     O
O       0.7839  0.86543   0.1703     O
O       0.7875  0.50121   0.7198     O
O       0.7875  0.99879   0.7198     O
C       0.7906   0.5479   0.5735     C
C       0.7906   0.9521   0.5735     C
H       0.7914   0.5876   0.0276     H
H       0.7914   0.9124   0.0276     H
C       0.7943   0.5654   0.5003     C
C       0.7943   0.9346   0.5003     C
C       0.7961  0.56462    0.995     C
C       0.7961  0.93538    0.995     C
O       0.7969  0.58534   0.3459     O
O       0.7969  0.91466   0.3459     O
N        0.805  0.00607   0.9059     N
N        0.805  0.49393   0.9059     N
Nd     0.81062  0.07313  0.80641    Nd
Nd     0.81062  0.42687  0.80641    Nd
O       0.8331  0.54521   0.2156     O
O       0.8331  0.95479   0.2156     O
C       0.8356    0.706   0.2237     C
C       0.8356    0.794   0.2237     C
C       0.8362   0.0092   0.6897     C
C       0.8362   0.4908   0.6897     C
H       0.8364   0.0627   0.0934     H
H       0.8364   0.4373   0.0934     H
C       0.8417   0.6564   0.2325     C
C       0.8417   0.8436   0.2325     C
C       0.8437   0.5124   0.6196     C
C       0.8437   0.9876   0.6196     C
C       0.8477   0.5089   0.1905     C
C       0.8477   0.9911   0.1905     C
C       0.8536  0.54671   0.4778     C
C       0.8536  0.95329   0.4778     C
C       0.8644   0.5624   0.4022     C
C       0.8644   0.9376   0.4022     C
O        0.875  0.13857   0.7834     O
O        0.875  0.36143   0.7834     O
H       0.8769   0.2128   0.6038     H
H       0.8769   0.2872   0.6038     H
C       0.8782  0.51342   0.9673     C
C       0.8782    0.548    0.022     C
C       0.8782    0.952    0.022     C
C       0.8782  0.98658   0.9673     C
O       0.8804  0.04692   0.7159     O
O       0.8804  0.45308   0.7159     O
C       0.8831   0.2283   0.6523     C
C       0.8831   0.2717   0.6523     C
C       0.8931   0.2048   0.7304     C
C       0.8931   0.2952   0.7304     C
C       0.8957  0.15519   0.7329     C
C       0.8957  0.34481   0.7329     C
C       0.8961   0.7266   0.2938     C
C       0.8961   0.7734   0.2938     C
N       0.8979    0.228   0.7952     N
C       0.8979    0.272   0.7952     C
H       0.9016   0.2134   0.8435     H
H       0.9016   0.2866   0.8435     H
N       0.9048  0.00368   0.5979     N
N       0.9048  0.49632   0.5979     N
O       0.9065  0.64002   0.3025     O
O       0.9065  0.85998   0.3025     O
O       0.9072  0.13408   0.6776     O
O       0.9072  0.36592   0.6776     O
C       0.9121  0.51285   0.5353     C
C       0.9121  0.98715   0.5353     C
O       0.9283   0.5511   0.3963     O
O       0.9283   0.9489   0.3963     O
O       0.9294  0.00261   0.2167     O
O       0.9294  0.49739   0.2167     O
H       0.9325   0.5039   0.9748     H
H       0.9325   0.9961   0.9748     H
H       0.9379    0.711   0.3422     H
H       0.9379    0.789   0.3422     H
O       0.9528   0.5867   0.1524     O
O       0.9528   0.9133   0.1524     O
H       0.9572   0.5027   0.5258     H
H       0.9572   0.9973   0.5258     H
C       0.9612   0.5631   0.0934     C
C       0.9612   0.9369   0.0934     C
O       0.9666  0.05487   0.9025     O
O       0.9666  0.44513   0.9025     O
Nd     0.99433  0.57145  0.30436    Nd
Nd     0.99433  0.92855  0.30436    Nd
