data_I
_chemical_name_common  '/home/zhangsd/repos/MofS-CGCNN/ML/data/TSD/clean_cifs/EQERAU_clean'
_cell_length_a 13.57920
_cell_length_b 13.89580
_cell_length_c 20.74780
_cell_angle_alpha 90.00000
_cell_angle_beta  104.88200
_cell_angle_gamma 90.00000
_space_group_name_H-M_alt      'P 1'


loop_
_space_group_symop_operation_xyz
  'x, y, z' 

loop_
_atom_site_label
_atom_site_fract_x
_atom_site_fract_y
_atom_site_fract_z
_atom_site_type_symbol
C       0.0069   0.0565   0.9324     C
C       0.0069   0.4435   0.4324     C
H       0.0298   0.1057   0.9645     H
H       0.0298   0.3943   0.4645     H
C       0.0442   0.5742   0.3692     C
C       0.0442   0.9258   0.8692     C
C       0.0587   0.0833   0.1625     C
C       0.0587   0.4167   0.6625     C
C       0.0766   0.5051   0.4166     C
C       0.0766   0.9949   0.9166     C
H       0.0807   0.1314   0.1956     H
H       0.0807   0.3686   0.6956     H
H       0.0923   0.6162   0.3577     H
H       0.0923   0.8838   0.8577     H
C       0.0965   0.5475    0.598     C
C       0.0965   0.9525    0.098     C
C       0.1293   0.0229  0.14608     C
C       0.1293   0.4771  0.64608     C
H       0.1443   0.5893   0.5861     H
H       0.1443   0.9107   0.0861     H
H       0.1788   0.6333   0.7319     H
H       0.1788   0.8667   0.2319     H
C       0.1901   0.0061   0.9505     C
C       0.1901   0.4939   0.4505     C
O       0.2143   0.0774  0.98864     O
O       0.2143   0.4226  0.48864     O
H       0.2468   0.0402   0.3183     H
H       0.2468   0.4598   0.8183     H
O       0.2482   0.5558  0.43793     O
O       0.2482   0.9442  0.93793     O
C       0.2509   0.6392    0.746     C
C       0.2509   0.8608    0.246     C
H       0.2518   0.7387   0.2999     H
H       0.2518   0.7613   0.7999     H
P      0.26404  0.03705   0.1815     P
P      0.26404  0.46295   0.6815     P
C       0.2713   0.1019   0.3103     C
C       0.2713   0.3981   0.8103     C
C       0.2841   0.1256  0.24731     C
C       0.2841   0.3744  0.74731     C
H       0.2864   0.1543   0.4034     H
H       0.2864   0.3457   0.9034     H
C       0.2943   0.7147   0.7871     C
C       0.2943   0.7853   0.2871     C
C       0.2951     0.17   0.3606     C
C       0.2951     0.33   0.8606     C
C       0.3114   0.5727   0.7254     C
C       0.3114   0.9273   0.2254     C
C       0.3174   0.2157   0.2361     C
C       0.3174   0.2843   0.7361     C
O       0.3212   0.0623  0.13157     O
O       0.3212   0.4377  0.63157     O
H       0.3248   0.2322   0.1931     H
H       0.3248   0.2678   0.6931     H
C       0.3308   0.2406  0.85036     C
C       0.3308   0.2594  0.35036     C
C       0.3402   0.2173    0.787     C
C       0.3402   0.2827    0.287     C
Mg     0.34614  0.13395  0.04953    Mg
Mg     0.34614  0.36605  0.54953    Mg
C       0.3592   0.1685   0.9066     C
C       0.3592   0.3315   0.4066     C
H       0.3625   0.1548   0.7786     H
H       0.3625   0.3452   0.2786     H
O       0.3695    0.203  0.96473     O
O       0.3695    0.297  0.46473     O
O       0.3715   0.0831  0.89263     O
O       0.3715   0.4169  0.39263     O
O       0.3916   0.6291  0.36522     O
O       0.3916   0.8709  0.86522     O
C       0.3993   0.7228   0.8099     C
C       0.3993   0.7772   0.3099     C
Mg     0.40507  0.54299   0.4483    Mg
Mg     0.40507  0.95701   0.9483    Mg
C       0.4173    0.583   0.7462     C
C       0.4173    0.917   0.2462     C
H       0.4329   0.5262   0.5729     H
H       0.4329   0.9738   0.0729     H
O      0.43996   0.0238  0.03977     O
O      0.43996   0.4762  0.53977     O
C       0.4471   0.6998   0.3592     C
C       0.4471   0.8002   0.8592     C
H       0.4599   0.5392   0.7307     H
H       0.4599   0.9608   0.2307     H
C       0.4601   0.6558   0.7885     C
C       0.4601   0.8442   0.2885     C
O       0.4616   0.2143  0.11031     O
O       0.4616   0.2857  0.61031     O
H       0.4678   0.1606   0.6965     H
H       0.4678   0.3394   0.1965     H
H       0.5322   0.6606   0.8035     H
H       0.5322   0.8394   0.3035     H
O       0.5384   0.7143  0.38969     O
O       0.5384   0.7857  0.88969     O
C       0.5399   0.1558   0.7115     C
C       0.5399   0.3442   0.2115     C
H       0.5401   0.0392   0.7693     H
H       0.5401   0.4608   0.2693     H
C       0.5529   0.1998   0.1408     C
C       0.5529   0.3002   0.6408     C
O      0.56004   0.5238  0.46023     O
O      0.56004   0.9762  0.96023     O
H       0.5671   0.0262   0.9271     H
H       0.5671   0.4738   0.4271     H
C       0.5827    0.083   0.7538     C
C       0.5827    0.417   0.2538     C
Mg     0.59493  0.04299   0.0517    Mg
Mg     0.59493  0.45701   0.5517    Mg
C       0.6007   0.2228   0.6901     C
C       0.6007   0.2772   0.1901     C
O       0.6084   0.1291  0.13478     O
O       0.6084   0.3709  0.63478     O
O       0.6285   0.5831  0.60737     O
O       0.6285   0.9169  0.10737     O
O       0.6305    0.703  0.53527     O
O       0.6305    0.797  0.03527     O
H       0.6375   0.6548   0.7214     H
H       0.6375   0.8452   0.2214     H
C       0.6408   0.6685   0.5934     C
C       0.6408   0.8315   0.0934     C
Mg     0.65386  0.63395  0.45047    Mg
Mg     0.65386  0.86605  0.95047    Mg
C       0.6598   0.7173    0.713     C
C       0.6598   0.7827    0.213     C
C       0.6692   0.7406  0.64964     C
C       0.6692   0.7594  0.14964     C
H       0.6752   0.7322   0.3069     H
H       0.6752   0.7678   0.8069     H
O       0.6788   0.5623  0.36843     O
O       0.6788   0.9377  0.86843     O
C       0.6826   0.7157   0.2639     C
C       0.6826   0.7843   0.7639     C
C       0.6886   0.0727   0.7746     C
C       0.6886   0.4273   0.2746     C
C       0.7049     0.67   0.1394     C
C       0.7049     0.83   0.6394     C
C       0.7057   0.2147   0.7129     C
C       0.7057   0.2853   0.2129     C
H       0.7136   0.6543   0.0966     H
H       0.7136   0.8457   0.5966     H
C       0.7159   0.6256  0.25269     C
C       0.7159   0.8744  0.75269     C
C       0.7287   0.6019   0.1897     C
C       0.7287   0.8981   0.6897     C
P      0.73596  0.53705   0.3185     P
P      0.73596  0.96295   0.8185     P
H       0.7482   0.2387   0.2001     H
H       0.7482   0.2613   0.7001     H
C       0.7491   0.1392    0.754     C
C       0.7491   0.3608    0.254     C
O       0.7518   0.0558  0.06207     O
O       0.7518   0.4442  0.56207     O
H       0.7532   0.5402   0.1817     H
H       0.7532   0.9598   0.6817     H
O       0.7857   0.5774  0.51136     O
O       0.7857   0.9226  0.01136     O
C       0.8099   0.5061   0.5495     C
C       0.8099   0.9939   0.0495     C
H       0.8212   0.1333   0.7681     H
H       0.8212   0.3667   0.2681     H
H       0.8557   0.0893   0.9139     H
H       0.8557   0.4107   0.4139     H
C       0.8707   0.5229  0.35392     C
C       0.8707   0.9771  0.85392     C
C       0.9035   0.0475    0.902     C
C       0.9035   0.4525    0.402     C
H       0.9077   0.1162   0.1423     H
H       0.9077   0.3838   0.6423     H
H       0.9193   0.6314   0.3044     H
H       0.9193   0.8686   0.8044     H
C       0.9234   0.0051   0.0834     C
C       0.9234   0.4949   0.5834     C
C       0.9413   0.5833   0.3375     C
C       0.9413   0.9167   0.8375     C
C       0.9558   0.0742   0.1308     C
C       0.9558   0.4258   0.6308     C
H       0.9702   0.6057   0.5355     H
H       0.9702   0.8943   0.0355     H
C       0.9931   0.5565   0.5676     C
C       0.9931   0.9435   0.0676     C
