data_I
_chemical_name_common  '/home/zhangsd/repos/MofS-CGCNN/ML/data/TSD/clean_cifs/EQETAX_clean'
_cell_length_a 16.26900
_cell_length_b 20.73000
_cell_length_c 14.98280
_cell_angle_alpha 90.00000
_cell_angle_beta  90.00000
_cell_angle_gamma 90.00000
_space_group_name_H-M_alt      'P 1'


loop_
_space_group_symop_operation_xyz
  'x, y, z' 

loop_
_atom_site_label
_atom_site_fract_x
_atom_site_fract_y
_atom_site_fract_z
_atom_site_type_symbol
C      0.00873  0.06113   0.1148     C
C      0.00873  0.43887   0.6148     C
C      0.01301  0.24763  0.32923     C
C      0.01301  0.25237  0.82923     C
C      0.01383  0.15454  0.22235     C
C      0.01383  0.34546  0.72235     C
C      0.02392  0.14682  0.89202     C
C      0.02392  0.35318  0.39202     C
O      0.02698  0.00398  0.10255     O
O      0.02698  0.49602  0.60255     O
H       0.0323   0.6727   0.3073     H
H       0.0323   0.8273   0.8073     H
O      0.04069  0.59486  0.43177     O
O      0.04069  0.90514  0.93177     O
C      0.04588  0.09642  0.19346     C
C      0.04588  0.40358  0.69346     C
C      0.04894  0.18673  0.29505     C
C      0.04894  0.31327  0.79505     C
N      0.05753  0.64097  0.59981     N
N      0.05753  0.85903  0.09981     N
H       0.0577   0.1119   0.9106     H
H       0.0577   0.3881   0.4106     H
C      0.06093  0.20081  0.85807     C
C      0.06093  0.29919  0.35807     C
C       0.0709  0.74571   0.6635     C
C       0.0709  0.75429   0.1635     C
C      0.10347  0.68997   0.6277     C
C      0.10347  0.81003   0.1277     C
Cu     0.10619   0.5663  0.53314    Cu
Cu     0.10619   0.9337  0.03314    Cu
H       0.1062   0.7207    0.183     H
H       0.1062   0.7793    0.683     H
C      0.11238  0.06891  0.23708     C
C      0.11238  0.43109  0.73708     C
C       0.1179  0.15987  0.33717     C
C       0.1179  0.34013  0.83717     C
H       0.1191   0.2031   0.8542     H
H       0.1191   0.2969   0.3542     H
H       0.1332   0.0284   0.2177     H
H       0.1332   0.4716   0.7177     H
H       0.1436   0.1824   0.3849     H
H       0.1436   0.3176   0.8849     H
C      0.14918  0.10044  0.30973     C
C      0.14918  0.39956  0.80973     C
H        0.153   0.5494   0.3436     H
H        0.153   0.9506   0.8436     H
H       0.1615   0.6865   0.6227     H
H       0.1615   0.8135   0.1227     H
N      0.16882  0.50331  0.45802     N
N      0.16882  0.99669  0.95802     N
C      0.18233  0.51508  0.37108     C
C      0.18233  0.98492  0.87108     C
H       0.1997   0.0567   0.0549     H
H       0.1997   0.4433   0.5549     H
H       0.2036   0.1158   0.4782     H
H       0.2036   0.3842   0.9782     H
C      0.21042    0.046  0.99439     C
C      0.21042    0.454  0.49439     C
C      0.21676  0.06841  0.35965     C
C      0.21676  0.43159  0.85965     C
C      0.23233  0.08194  0.44887     C
C      0.23233  0.41806  0.94887     C
C      0.23658  0.02005  0.81973     C
C      0.23658  0.47995  0.31973     C
H       0.2421   0.0114   0.7578     H
H       0.2421   0.4886   0.2578     H
H       0.2579   0.0114   0.2578     H
H       0.2579   0.4886   0.7578     H
C      0.26342  0.02005  0.31973     C
C      0.26342  0.47995  0.81973     C
C      0.26767  0.08194  0.94887     C
C      0.26767  0.41806  0.44887     C
C      0.28324  0.06841  0.85965     C
C      0.28324  0.43159  0.35965     C
C      0.28958    0.046  0.49439     C
C      0.28958    0.454  0.99439     C
H       0.2964   0.1158   0.9782     H
H       0.2964   0.3842   0.4782     H
H       0.3003   0.0567   0.5549     H
H       0.3003   0.4433   0.0549     H
C      0.31767  0.51508  0.87108     C
C      0.31767  0.98492  0.37108     C
N      0.33118  0.50331  0.95802     N
N      0.33118  0.99669  0.45802     N
H       0.3385   0.6865   0.1227     H
H       0.3385   0.8135   0.6227     H
H        0.347   0.5494   0.8436     H
H        0.347   0.9506   0.3436     H
C      0.35082  0.10044  0.80973     C
C      0.35082  0.39956  0.30973     C
H       0.3564   0.1824   0.8849     H
H       0.3564   0.3176   0.3849     H
H       0.3668   0.0284   0.7177     H
H       0.3668   0.4716   0.2177     H
H       0.3809   0.2031   0.3542     H
H       0.3809   0.2969   0.8542     H
C       0.3821  0.15987  0.83717     C
C       0.3821  0.34013  0.33717     C
C      0.38762  0.06891  0.73708     C
C      0.38762  0.43109  0.23708     C
H       0.3938   0.7207    0.683     H
H       0.3938   0.7793    0.183     H
Cu     0.39381   0.5663  0.03314    Cu
Cu     0.39381   0.9337  0.53314    Cu
C      0.39653  0.68997   0.1277     C
C      0.39653  0.81003   0.6277     C
C       0.4291  0.74571   0.1635     C
C       0.4291  0.75429   0.6635     C
C      0.43907  0.20081  0.35807     C
C      0.43907  0.29919  0.85807     C
H       0.4423   0.1119   0.4106     H
H       0.4423   0.3881   0.9106     H
N      0.44247  0.64097  0.09981     N
N      0.44247  0.85903  0.59981     N
C      0.45106  0.18673  0.79505     C
C      0.45106  0.31327  0.29505     C
C      0.45412  0.09642  0.69346     C
C      0.45412  0.40358  0.19346     C
O      0.45931  0.59486  0.93177     O
O      0.45931  0.90514  0.43177     O
H       0.4677   0.6727   0.8073     H
H       0.4677   0.8273   0.3073     H
O      0.47302  0.00398  0.60255     O
O      0.47302  0.49602  0.10255     O
C      0.47608  0.14682  0.39202     C
C      0.47608  0.35318  0.89202     C
C      0.48617  0.15454  0.72235     C
C      0.48617  0.34546  0.22235     C
C      0.48699  0.24763  0.82923     C
C      0.48699  0.25237  0.32923     C
C      0.49127  0.06113   0.6148     C
C      0.49127  0.43887   0.1148     C
C      0.50873  0.56113   0.8852     C
C      0.50873  0.93887   0.3852     C
C      0.51301  0.74763  0.67077     C
C      0.51301  0.75237  0.17077     C
C      0.51383  0.65454  0.77765     C
C      0.51383  0.84546  0.27765     C
C      0.52392  0.64682  0.10798     C
C      0.52392  0.85318  0.60798     C
O      0.52698  0.50398  0.89745     O
O      0.52698  0.99602  0.39745     O
H       0.5323   0.1727   0.6927     H
H       0.5323   0.3273   0.1927     H
O      0.54069  0.09486  0.56823     O
O      0.54069  0.40514  0.06823     O
C      0.54588  0.59642  0.80654     C
C      0.54588  0.90358  0.30654     C
C      0.54894  0.68673  0.70495     C
C      0.54894  0.81327  0.20495     C
N      0.55753  0.14097  0.40019     N
N      0.55753  0.35903  0.90019     N
H       0.5577   0.6119   0.0894     H
H       0.5577   0.8881   0.5894     H
C      0.56093  0.70081  0.14193     C
C      0.56093  0.79919  0.64193     C
C       0.5709  0.24571   0.3365     C
C       0.5709  0.25429   0.8365     C
C      0.60347  0.18997   0.3723     C
C      0.60347  0.31003   0.8723     C
Cu     0.60619   0.0663  0.46686    Cu
Cu     0.60619   0.4337  0.96686    Cu
H       0.6062   0.2207    0.817     H
H       0.6062   0.2793    0.317     H
C      0.61238  0.56891  0.76292     C
C      0.61238  0.93109  0.26292     C
C       0.6179  0.65987  0.66283     C
C       0.6179  0.84013  0.16283     C
H       0.6191   0.7031   0.1458     H
H       0.6191   0.7969   0.6458     H
H       0.6332   0.5284   0.7823     H
H       0.6332   0.9716   0.2823     H
H       0.6436   0.6824   0.6151     H
H       0.6436   0.8176   0.1151     H
C      0.64918  0.60044  0.69027     C
C      0.64918  0.89956  0.19027     C
H        0.653   0.0494   0.6564     H
H        0.653   0.4506   0.1564     H
H       0.6615   0.1865   0.3773     H
H       0.6615   0.3135   0.8773     H
N      0.66882  0.00331  0.54198     N
N      0.66882  0.49669  0.04198     N
C      0.68233  0.01508  0.62892     C
C      0.68233  0.48492  0.12892     C
H       0.6997   0.5567   0.9451     H
H       0.6997   0.9433   0.4451     H
H       0.7036   0.6158   0.5218     H
H       0.7036   0.8842   0.0218     H
C      0.71042    0.546  0.00561     C
C      0.71042    0.954  0.50561     C
C      0.71676  0.56841  0.64035     C
C      0.71676  0.93159  0.14035     C
C      0.73233  0.58194  0.55113     C
C      0.73233  0.91806  0.05113     C
C      0.73658  0.52005  0.18027     C
C      0.73658  0.97995  0.68027     C
H       0.7421   0.5114   0.2422     H
H       0.7421   0.9886   0.7422     H
H       0.7579   0.5114   0.7422     H
H       0.7579   0.9886   0.2422     H
C      0.76342  0.52005  0.68027     C
C      0.76342  0.97995  0.18027     C
C      0.76767  0.58194  0.05113     C
C      0.76767  0.91806  0.55113     C
C      0.78324  0.56841  0.14035     C
C      0.78324  0.93159  0.64035     C
C      0.78958    0.546  0.50561     C
C      0.78958    0.954  0.00561     C
H       0.7964   0.6158   0.0218     H
H       0.7964   0.8842   0.5218     H
H       0.8003   0.5567   0.4451     H
H       0.8003   0.9433   0.9451     H
C      0.81767  0.01508  0.12892     C
C      0.81767  0.48492  0.62892     C
N      0.83118  0.00331  0.04198     N
N      0.83118  0.49669  0.54198     N
H       0.8385   0.1865   0.8773     H
H       0.8385   0.3135   0.3773     H
H        0.847   0.0494   0.1564     H
H        0.847   0.4506   0.6564     H
C      0.85082  0.60044  0.19027     C
C      0.85082  0.89956  0.69027     C
H       0.8564   0.6824   0.1151     H
H       0.8564   0.8176   0.6151     H
H       0.8668   0.5284   0.2823     H
H       0.8668   0.9716   0.7823     H
H       0.8809   0.7031   0.6458     H
H       0.8809   0.7969   0.1458     H
C       0.8821  0.65987  0.16283     C
C       0.8821  0.84013  0.66283     C
C      0.88762  0.56891  0.26292     C
C      0.88762  0.93109  0.76292     C
H       0.8938   0.2207    0.317     H
H       0.8938   0.2793    0.817     H
Cu     0.89381   0.0663  0.96686    Cu
Cu     0.89381   0.4337  0.46686    Cu
C      0.89653  0.18997   0.8723     C
C      0.89653  0.31003   0.3723     C
C       0.9291  0.24571   0.8365     C
C       0.9291  0.25429   0.3365     C
C      0.93907  0.70081  0.64193     C
C      0.93907  0.79919  0.14193     C
H       0.9423   0.6119   0.5894     H
H       0.9423   0.8881   0.0894     H
N      0.94247  0.14097  0.90019     N
N      0.94247  0.35903  0.40019     N
C      0.95106  0.68673  0.20495     C
C      0.95106  0.81327  0.70495     C
C      0.95412  0.59642  0.30654     C
C      0.95412  0.90358  0.80654     C
O      0.95931  0.09486  0.06823     O
O      0.95931  0.40514  0.56823     O
H       0.9677   0.1727   0.1927     H
H       0.9677   0.3273   0.6927     H
O      0.97302  0.50398  0.39745     O
O      0.97302  0.99602  0.89745     O
C      0.97608  0.64682  0.60798     C
C      0.97608  0.85318  0.10798     C
C      0.98617  0.65454  0.27765     C
C      0.98617  0.84546  0.77765     C
C      0.98699  0.74763  0.17077     C
C      0.98699  0.75237  0.67077     C
C      0.99127  0.56113   0.3852     C
C      0.99127  0.93887   0.8852     C
