data_I
_chemical_name_common  '/home/zhangsd/repos/MofS-CGCNN/ML/data/TSD/clean_cifs/EQUBIC_clean'
_cell_length_a  8.46720
_cell_length_b 17.12050
_cell_length_c 17.12050
_cell_angle_alpha 90.00000
_cell_angle_beta  90.00000
_cell_angle_gamma 90.00000
_space_group_name_H-M_alt      'P 1'


loop_
_space_group_symop_operation_xyz
  'x, y, z' 

loop_
_atom_site_label
_atom_site_fract_x
_atom_site_fract_y
_atom_site_fract_z
_atom_site_type_symbol
C       0.0021    0.302   0.7763     C
C       0.0021    0.698   0.2237     C
C       0.0081   0.2136   0.8921     C
C       0.0081   0.7864   0.1079     C
S      0.02364  0.35614  0.39234     S
S      0.02364  0.64386  0.60766     S
O       0.0307   0.2108   0.9661     O
O       0.0307   0.7892   0.0339     O
C       0.0377    0.373   0.7412     C
C       0.0377    0.627   0.2588     C
O       0.0438   0.1482   0.1587     O
O       0.0438   0.8518   0.8413     O
C       0.0493   0.2882   0.8526     C
C       0.0493   0.7118   0.1474     C
H       0.0531   0.2513    0.264     H
H       0.0531   0.7487    0.736     H
O       0.0819   0.3904   0.3205     O
O       0.0819   0.6096   0.6795     O
O       0.1157   0.4247   0.6048     O
O       0.1157   0.5753   0.3952     O
O       0.1208   0.0259   0.9275     O
O       0.1208   0.9741   0.0725     O
C        0.123   0.4289   0.7804     C
C        0.123   0.5711   0.2196     C
C       0.1376   0.3443   0.8906     C
C       0.1376   0.6557   0.1094     C
H       0.1446   0.4765   0.7566     H
H       0.1446   0.5235   0.2434     H
O        0.147   0.3491   0.4506     O
O        0.147   0.6509   0.5494     O
Tb      0.1498  0.10982  0.03733    Tb
Tb      0.1498  0.89018  0.96267    Tb
H       0.1721   0.3351   0.9414     H
H       0.1721   0.6649   0.0586     H
C       0.1757   0.4143    0.854     C
C       0.1757   0.5857    0.146     C
H         0.22    0.034    0.904     H
H         0.22    0.966    0.096     H
H       0.2372   0.4512   0.8798     H
H       0.2372   0.5488   0.1202     H
H       0.2628   0.0488   0.3798     H
H       0.2628   0.9512   0.6202     H
H         0.28    0.466    0.404     H
H         0.28    0.534    0.596     H
C       0.3243   0.0857    0.354     C
C       0.3243   0.9143    0.646     C
H       0.3279   0.1649   0.4414     H
H       0.3279   0.8351   0.5586     H
Tb      0.3502  0.39018  0.53733    Tb
Tb      0.3502  0.60982  0.46267    Tb
O        0.353   0.1509   0.9506     O
O        0.353   0.8491   0.0494     O
H       0.3554   0.0235   0.2566     H
H       0.3554   0.9765   0.7434     H
C       0.3624   0.1557   0.3906     C
C       0.3624   0.8443   0.6094     C
C        0.377   0.0711   0.2804     C
C        0.377   0.9289   0.7196     C
O       0.3792   0.4741   0.4275     O
O       0.3792   0.5259   0.5725     O
O       0.3843   0.0753   0.1048     O
O       0.3843   0.9247   0.8952     O
O       0.4181   0.1096   0.8205     O
O       0.4181   0.8904   0.1795     O
H       0.4469   0.2487    0.764     H
H       0.4469   0.7513    0.236     H
C       0.4507   0.2118   0.3526     C
C       0.4507   0.7882   0.6474     C
O       0.4562   0.3518   0.6587     O
O       0.4562   0.6482   0.3413     O
C       0.4623    0.127   0.2412     C
C       0.4623    0.873   0.7588     C
O       0.4693   0.2892   0.4661     O
O       0.4693   0.7108   0.5339     O
S      0.47636  0.14386  0.89234     S
S      0.47636  0.85614  0.10766     S
C       0.4919   0.2864   0.3921     C
C       0.4919   0.7136   0.6079     C
C       0.4979    0.198   0.2763     C
C       0.4979    0.802   0.7237     C
C       0.5021   0.2763    0.802     C
C       0.5021   0.7237    0.198     C
C       0.5081   0.3921   0.7136     C
C       0.5081   0.6079   0.2864     C
S      0.52364  0.10766  0.14386     S
S      0.52364  0.89234  0.85614     S
O       0.5307   0.4661   0.7108     O
O       0.5307   0.5339   0.2892     O
C       0.5377   0.2412    0.873     C
C       0.5377   0.7588    0.127     C
O       0.5438   0.3413   0.3518     O
O       0.5438   0.6587   0.6482     O
C       0.5493   0.3526   0.7882     C
C       0.5493   0.6474   0.2118     C
H       0.5531    0.236   0.2487     H
H       0.5531    0.764   0.7513     H
O       0.5819   0.1795   0.1096     O
O       0.5819   0.8205   0.8904     O
O       0.6157   0.1048   0.9247     O
O       0.6157   0.8952   0.0753     O
O       0.6208   0.4275   0.5259     O
O       0.6208   0.5725   0.4741     O
C        0.623   0.2804   0.9289     C
C        0.623   0.7196   0.0711     C
C       0.6376   0.3906   0.8443     C
C       0.6376   0.6094   0.1557     C
H       0.6446   0.2566   0.9765     H
H       0.6446   0.7434   0.0235     H
O        0.647   0.0494   0.1509     O
O        0.647   0.9506   0.8491     O
Tb      0.6498  0.46267  0.39018    Tb
Tb      0.6498  0.53733  0.60982    Tb
H       0.6721   0.4414   0.8351     H
H       0.6721   0.5586   0.1649     H
C       0.6757    0.354   0.9143     C
C       0.6757    0.646   0.0857     C
H         0.72    0.404    0.534     H
H         0.72    0.596    0.466     H
H       0.7372   0.3798   0.9512     H
H       0.7372   0.6202   0.0488     H
H       0.7628   0.1202   0.4512     H
H       0.7628   0.8798   0.5488     H
H         0.78    0.096    0.034     H
H         0.78    0.904    0.966     H
C       0.8243    0.146   0.4143     C
C       0.8243    0.854   0.5857     C
H       0.8279   0.0586   0.3351     H
H       0.8279   0.9414   0.6649     H
Tb      0.8502  0.03733  0.89018    Tb
Tb      0.8502  0.96267  0.10982    Tb
O        0.853   0.4506   0.6509     O
O        0.853   0.5494   0.3491     O
H       0.8554   0.2434   0.4765     H
H       0.8554   0.7566   0.5235     H
C       0.8624   0.1094   0.3443     C
C       0.8624   0.8906   0.6557     C
C        0.877   0.2196   0.4289     C
C        0.877   0.7804   0.5711     C
O       0.8792   0.0725   0.0259     O
O       0.8792   0.9275   0.9741     O
O       0.8843   0.3952   0.4247     O
O       0.8843   0.6048   0.5753     O
O       0.9181   0.3205   0.6096     O
O       0.9181   0.6795   0.3904     O
H       0.9469    0.264   0.7487     H
H       0.9469    0.736   0.2513     H
C       0.9507   0.1474   0.2882     C
C       0.9507   0.8526   0.7118     C
O       0.9562   0.1587   0.8518     O
O       0.9562   0.8413   0.1482     O
C       0.9623   0.2588    0.373     C
C       0.9623   0.7412    0.627     C
O       0.9693   0.0339   0.2108     O
O       0.9693   0.9661   0.7892     O
S      0.97636  0.39234  0.64386     S
S      0.97636  0.60766  0.35614     S
C       0.9919   0.1079   0.2136     C
C       0.9919   0.8921   0.7864     C
C       0.9979   0.2237    0.302     C
C       0.9979   0.7763    0.698     C
