data_I
_chemical_name_common  '/home/zhangsd/repos/MofS-CGCNN/ML/data/TSD/clean_cifs/ERIJUM_clean'
_cell_length_a 23.34200
_cell_length_b 20.68500
_cell_length_c 12.54020
_cell_angle_alpha 90.00000
_cell_angle_beta  97.97000
_cell_angle_gamma 90.00000
_space_group_name_H-M_alt      'P 1'


loop_
_space_group_symop_operation_xyz
  'x, y, z' 

loop_
_atom_site_label
_atom_site_fract_x
_atom_site_fract_y
_atom_site_fract_z
_atom_site_type_symbol
Ag         0.0     0.09     0.25    Ag
Ag         0.0   0.1925     0.75    Ag
N          0.0    0.197     0.25     N
N          0.0    0.302     0.75     N
N          0.0    0.329     0.25     N
N          0.0    0.443     0.75     N
Ag         0.0   0.4459     0.25    Ag
Ag         0.0   0.5541     0.75    Ag
N          0.0    0.557     0.25     N
N          0.0    0.671     0.75     N
N          0.0    0.698     0.25     N
N          0.0    0.803     0.75     N
Ag         0.0   0.8075     0.25    Ag
Ag         0.0     0.91     0.75    Ag
N       0.0006   0.0338    0.095     N
N       0.0006   0.9662    0.595     N
C        0.022     0.34     0.67     C
C        0.022     0.66     0.17     C
C        0.024     0.23     0.18     C
C        0.024    0.298    0.179     C
C        0.024    0.702    0.679     C
C        0.024     0.77     0.68     C
C        0.027    0.402    0.672     C
C        0.027    0.598    0.172     C
H       0.0326   0.4295   0.0244     H
H       0.0326   0.5705   0.5244     H
H       0.0339   0.3184   0.6118     H
H       0.0339   0.6816   0.1118     H
H        0.041   0.3206   0.1281     H
H        0.041   0.6794   0.6281     H
H       0.0415    0.208   0.1285     H
H       0.0415    0.792   0.6285     H
C        0.047    0.026    0.473     C
C        0.047    0.974    0.973     C
H       0.0471   0.4222   0.6231     H
H       0.0471   0.5778   0.1231     H
C        0.048    0.009    0.068     C
C        0.048    0.991    0.568     C
C         0.07    0.442    0.053     C
C         0.07    0.558    0.553     C
N        0.075    0.461    0.147     N
N        0.075    0.539    0.647     N
H       0.0811   0.0444   0.4573     H
H       0.0811   0.9556   0.9573     H
N        0.082    0.156    0.845     N
N        0.082    0.844    0.345     N
H       0.0828   0.0154   0.1131     H
H       0.0828   0.9846   0.6131     H
H       0.0916   0.0712     0.77     H
H       0.0916   0.9288     0.27     H
H       0.0959    0.425   0.9136     H
H       0.0959    0.575   0.4136     H
H       0.1027   0.2341   0.9281     H
H       0.1027   0.7659   0.4281     H
C        0.108    0.097    0.826     C
C        0.108    0.437    0.984     C
C        0.108    0.563    0.484     C
C        0.108    0.903    0.326     C
C        0.116    0.193    0.915     C
C        0.116    0.807    0.415     C
C         0.13    0.479    0.185     C
C         0.13    0.521    0.685     C
H       0.1387   0.4944    0.255     H
H       0.1387   0.5056    0.755     H
C        0.153    0.079    0.887     C
C        0.153    0.921    0.387     C
H        0.166   0.0373   0.8775     H
H        0.166   0.9627   0.3775     H
N        0.167     0.45    0.017     N
N        0.167     0.55    0.517     N
C        0.168    0.175    0.968     C
C        0.168    0.825    0.468     C
C         0.17    0.476    0.123     C
C         0.17    0.524    0.623     C
N       0.1838    0.113    0.962     N
N       0.1838    0.887    0.462     N
H       0.1919   0.2047   0.0081     H
H       0.1919   0.7953   0.5081     H
H       0.2062   0.4936   0.1517     H
H       0.2062   0.5064   0.6517     H
Ag      0.2368   0.4235    0.935    Ag
Ag      0.2368   0.5765    0.435    Ag
Ag      0.2632   0.0765    0.065    Ag
Ag      0.2632   0.9235    0.565    Ag
H       0.2938   0.0064   0.8483     H
H       0.2938   0.9936   0.3483     H
H       0.3081   0.2953   0.9919     H
H       0.3081   0.7047   0.4919     H
N       0.3162    0.387    0.038     N
N       0.3162    0.613    0.538     N
C         0.33    0.024    0.877     C
C         0.33    0.976    0.377     C
C        0.332    0.325    0.032     C
C        0.332    0.675    0.532     C
N        0.333     0.05    0.983     N
N        0.333     0.95    0.483     N
H        0.334   0.4627   0.1225     H
H        0.334   0.5373   0.6225     H
C        0.347    0.421    0.113     C
C        0.347    0.579    0.613     C
H       0.3613   0.0056    0.745     H
H       0.3613   0.9944    0.245     H
C         0.37    0.021    0.815     C
C         0.37    0.979    0.315     C
C        0.384    0.307    0.085     C
C        0.384    0.693    0.585     C
C        0.392    0.063    0.016     C
C        0.392    0.403    0.174     C
C        0.392    0.597    0.674     C
C        0.392    0.937    0.516     C
H       0.3973   0.2659   0.0719     H
H       0.3973   0.7341   0.5719     H
H       0.4041    0.075   0.0864     H
H       0.4041    0.925   0.5864     H
H       0.4084   0.4288     0.23     H
H       0.4084   0.5712     0.73     H
H       0.4172   0.4846   0.8869     H
H       0.4172   0.5154   0.3869     H
N        0.418    0.344    0.155     N
N        0.418    0.656    0.655     N
H       0.4189   0.4556   0.5427     H
H       0.4189   0.5444   0.0427     H
N        0.425    0.039    0.853     N
N        0.425    0.961    0.353     N
C         0.43    0.058    0.947     C
C         0.43    0.942    0.447     C
C        0.452    0.491    0.932     C
C        0.452    0.509    0.432     C
H       0.4529   0.0778   0.3769     H
H       0.4529   0.9222   0.8769     H
C        0.453    0.474    0.527     C
C        0.453    0.526    0.027     C
H       0.4585    0.292   0.8715     H
H       0.4585    0.708   0.3715     H
H        0.459   0.1794   0.8719     H
H        0.459   0.8206   0.3719     H
H       0.4661   0.1816   0.3882     H
H       0.4661   0.8184   0.8882     H
H       0.4674   0.0705   0.9756     H
H       0.4674   0.9295   0.4756     H
C        0.473    0.098    0.328     C
C        0.473    0.902    0.828     C
C        0.476    0.202    0.821     C
C        0.476     0.27     0.82     C
C        0.476     0.73     0.32     C
C        0.476    0.798    0.321     C
C        0.478     0.16     0.33     C
C        0.478     0.84     0.83     C
N       0.4994   0.4662    0.905     N
N       0.4994   0.5338    0.405     N
Ag         0.5   0.0541     0.75    Ag
N          0.5    0.057     0.25     N
N          0.5    0.171     0.75     N
N          0.5    0.198     0.25     N
N          0.5    0.303     0.75     N
Ag         0.5   0.3075     0.25    Ag
Ag         0.5     0.41     0.75    Ag
Ag         0.5     0.59     0.25    Ag
Ag         0.5   0.6925     0.75    Ag
N          0.5    0.697     0.25     N
N          0.5    0.802     0.75     N
N          0.5    0.829     0.25     N
N          0.5    0.943     0.75     N
Ag         0.5   0.9459     0.25    Ag
N       0.5006   0.4662    0.595     N
N       0.5006   0.5338    0.095     N
C        0.522     0.16     0.17     C
C        0.522     0.84     0.67     C
C        0.524    0.202    0.679     C
C        0.524     0.27     0.68     C
C        0.524     0.73     0.18     C
C        0.524    0.798    0.179     C
C        0.527    0.098    0.172     C
C        0.527    0.902    0.672     C
H       0.5326   0.0705   0.5244     H
H       0.5326   0.9295   0.0244     H
H       0.5339   0.1816   0.1118     H
H       0.5339   0.8184   0.6118     H
H        0.541   0.1794   0.6281     H
H        0.541   0.8206   0.1281     H
H       0.5415    0.292   0.6285     H
H       0.5415    0.708   0.1285     H
C        0.547    0.474    0.973     C
C        0.547    0.526    0.473     C
H       0.5471   0.0778   0.1231     H
H       0.5471   0.9222   0.6231     H
C        0.548    0.491    0.568     C
C        0.548    0.509    0.068     C
C         0.57    0.058    0.553     C
C         0.57    0.942    0.053     C
N        0.575    0.039    0.647     N
N        0.575    0.961    0.147     N
H       0.5811   0.4556   0.9573     H
H       0.5811   0.5444   0.4573     H
N        0.582    0.344    0.345     N
N        0.582    0.656    0.845     N
H       0.5828   0.4846   0.6131     H
H       0.5828   0.5154   0.1131     H
H       0.5916   0.4288     0.27     H
H       0.5916   0.5712     0.77     H
H       0.5959    0.075   0.4136     H
H       0.5959    0.925   0.9136     H
H       0.6027   0.2659   0.4281     H
H       0.6027   0.7341   0.9281     H
C        0.608    0.063    0.484     C
C        0.608    0.403    0.326     C
C        0.608    0.597    0.826     C
C        0.608    0.937    0.984     C
C        0.616    0.307    0.415     C
C        0.616    0.693    0.915     C
C         0.63    0.021    0.685     C
C         0.63    0.979    0.185     C
H       0.6387   0.0056    0.755     H
H       0.6387   0.9944    0.255     H
C        0.653    0.421    0.387     C
C        0.653    0.579    0.887     C
H        0.666   0.4627   0.3775     H
H        0.666   0.5373   0.8775     H
N        0.667     0.05    0.517     N
N        0.667     0.95    0.017     N
C        0.668    0.325    0.468     C
C        0.668    0.675    0.968     C
C         0.67    0.024    0.623     C
C         0.67    0.976    0.123     C
N       0.6838    0.387    0.462     N
N       0.6838    0.613    0.962     N
H       0.6919   0.2953   0.5081     H
H       0.6919   0.7047   0.0081     H
H       0.7062   0.0064   0.6517     H
H       0.7062   0.9936   0.1517     H
Ag      0.7368   0.0765    0.435    Ag
Ag      0.7368   0.9235    0.935    Ag
Ag      0.7632   0.4235    0.565    Ag
Ag      0.7632   0.5765    0.065    Ag
H       0.7938   0.4936   0.3483     H
H       0.7938   0.5064   0.8483     H
H       0.8081   0.2047   0.4919     H
H       0.8081   0.7953   0.9919     H
N       0.8162    0.113    0.538     N
N       0.8162    0.887    0.038     N
C         0.83    0.476    0.377     C
C         0.83    0.524    0.877     C
C        0.832    0.175    0.532     C
C        0.832    0.825    0.032     C
N        0.833     0.45    0.483     N
N        0.833     0.55    0.983     N
H        0.834   0.0373   0.6225     H
H        0.834   0.9627   0.1225     H
C        0.847    0.079    0.613     C
C        0.847    0.921    0.113     C
H       0.8613   0.4944    0.245     H
H       0.8613   0.5056    0.745     H
C         0.87    0.479    0.315     C
C         0.87    0.521    0.815     C
C        0.884    0.193    0.585     C
C        0.884    0.807    0.085     C
C        0.892    0.097    0.674     C
C        0.892    0.437    0.516     C
C        0.892    0.563    0.016     C
C        0.892    0.903    0.174     C
H       0.8973   0.2341   0.5719     H
H       0.8973   0.7659   0.0719     H
H       0.9041    0.425   0.5864     H
H       0.9041    0.575   0.0864     H
H       0.9084   0.0712     0.73     H
H       0.9084   0.9288     0.23     H
H       0.9172   0.0154   0.3869     H
H       0.9172   0.9846   0.8869     H
N        0.918    0.156    0.655     N
N        0.918    0.844    0.155     N
H       0.9189   0.0444   0.0427     H
H       0.9189   0.9556   0.5427     H
N        0.925    0.461    0.353     N
N        0.925    0.539    0.853     N
C         0.93    0.442    0.447     C
C         0.93    0.558    0.947     C
C        0.952    0.009    0.432     C
C        0.952    0.991    0.932     C
H       0.9529   0.4222   0.8769     H
H       0.9529   0.5778   0.3769     H
C        0.953    0.026    0.027     C
C        0.953    0.974    0.527     C
H       0.9585    0.208   0.3715     H
H       0.9585    0.792   0.8715     H
H        0.959   0.3206   0.3719     H
H        0.959   0.6794   0.8719     H
H       0.9661   0.3184   0.8882     H
H       0.9661   0.6816   0.3882     H
H       0.9674   0.4295   0.4756     H
H       0.9674   0.5705   0.9756     H
C        0.973    0.402    0.828     C
C        0.973    0.598    0.328     C
C        0.976     0.23     0.32     C
C        0.976    0.298    0.321     C
C        0.976    0.702    0.821     C
C        0.976     0.77     0.82     C
C        0.978     0.34     0.83     C
C        0.978     0.66     0.33     C
N       0.9994   0.0338    0.405     N
N       0.9994   0.9662    0.905     N
