data_I
_chemical_name_common  '/home/zhangsd/repos/MofS-CGCNN/ML/data/TSD/clean_cifs/ESASEY_clean'
_cell_length_a 27.51850
_cell_length_b 10.42470
_cell_length_c 14.86560
_cell_angle_alpha 90.00000
_cell_angle_beta  117.54100
_cell_angle_gamma 90.00000
_space_group_name_H-M_alt      'P 1'


loop_
_space_group_symop_operation_xyz
  'x, y, z' 

loop_
_atom_site_label
_atom_site_fract_x
_atom_site_fract_y
_atom_site_fract_z
_atom_site_type_symbol
N      0.01258    0.465   0.5375     N
N      0.01258    0.535   0.0375     N
H       0.0194   0.2811   0.1802     H
H       0.0194   0.7189   0.6802     H
C       0.0255   0.2663    0.249     C
C       0.0255   0.7337    0.749     C
H       0.0427   0.1829   0.2704     H
H       0.0427   0.8171   0.7704     H
H       0.0543   0.4539   0.2853     H
H       0.0543   0.5461   0.7853     H
H       0.0591   0.3783   0.3801     H
H       0.0591   0.6217   0.8801     H
C       0.0645    0.372   0.3202     C
C       0.0645    0.628   0.8202     C
C      0.07029   0.4797   0.5853     C
C      0.07029   0.5203   0.0853     C
H       0.0798   0.3829   0.9977     H
H       0.0798   0.6171   0.4977     H
H       0.0803   0.3453   0.6912     H
H       0.0803   0.6547   0.1912     H
C      0.09873   0.4365   0.0531     C
C      0.09873   0.5635   0.5531     C
C      0.09917   0.4022   0.6705     C
C      0.09917   0.5978   0.1705     C
C       0.1232   0.3486   0.3525     C
C       0.1232   0.6514   0.8525     C
H       0.1282   0.3438   0.2922     H
H       0.1282   0.6562   0.7922     H
H       0.1415   0.0338   0.2502     H
H       0.1415   0.9662   0.7502     H
H       0.1437   0.4223   0.3914     H
H       0.1437   0.5777   0.8914     H
H       0.1438   0.2702   0.5436     H
H       0.1438   0.7298   0.0436     H
N       0.1474   0.2325   0.4136     N
N       0.1474   0.7675   0.9136     N
C       0.1526   0.2117   0.5061     C
C       0.1526   0.7883   0.0061     C
H       0.1527   0.1806   0.2462     H
H       0.1527   0.8194   0.7462     H
C      0.15585   0.4341   0.1048     C
C      0.15585   0.5659   0.6048     C
C      0.15598   0.4099   0.7245     C
C      0.15598   0.5901   0.2245     C
C        0.163   0.1238   0.3861     C
C        0.163   0.8762   0.8861     C
C        0.165    0.104   0.2865     C
C        0.165    0.896   0.7865     C
O      0.16589   0.2347   0.8319     O
O      0.16589   0.7653   0.3319     O
O      0.16737   0.2502   0.0213     O
O      0.16737   0.7498   0.5213     O
C       0.1728    0.091   0.5372     C
C       0.1728    0.909   0.0372     C
N       0.1778   0.0359   0.4558     N
N       0.1778   0.9641   0.9558     N
H       0.1814   0.0531   0.5994     H
H       0.1814   0.9469   0.0994     H
C      0.18416   0.4918   0.6906     C
C      0.18416   0.5082   0.1906     C
C      0.18718   0.3354   0.8215     C
C      0.18718   0.6646   0.3215     C
C      0.18804    0.353   0.0651     C
C      0.18804    0.647   0.5651     C
H       0.2019   0.0852      0.3     H
H       0.2019   0.9148      0.8     H
Zn      0.2087  0.13976  0.96623    Zn
Zn      0.2087  0.86024  0.46623    Zn
H       0.2222   0.4965   0.7259     H
H       0.2222   0.5035   0.2259     H
O      0.23153   0.3839   0.8845     O
O      0.23153   0.6161   0.3845     O
O      0.23291   0.3999   0.0794     O
O      0.23291   0.6001   0.5794     O
O      0.26709   0.1001   0.9206     O
O      0.26709   0.8999   0.4206     O
O      0.26847   0.1161   0.1155     O
O      0.26847   0.8839   0.6155     O
H       0.2778   0.0035   0.2741     H
H       0.2778   0.9965   0.7741     H
Zn      0.2913  0.36024  0.03377    Zn
Zn      0.2913  0.63976  0.53377    Zn
H       0.2981   0.4148      0.7     H
H       0.2981   0.5852      0.2     H
C      0.31196    0.147   0.9349     C
C      0.31196    0.853   0.4349     C
C      0.31282   0.1646   0.1785     C
C      0.31282   0.8354   0.6785     C
C      0.31584   0.0082   0.3094     C
C      0.31584   0.9918   0.8094     C
H       0.3186   0.4469   0.4006     H
H       0.3186   0.5531   0.9006     H
N       0.3222   0.4641   0.5442     N
N       0.3222   0.5359   0.0442     N
C       0.3272    0.409   0.4628     C
C       0.3272    0.591   0.9628     C
O      0.33263   0.2498   0.9787     O
O      0.33263   0.7502   0.4787     O
O      0.33411   0.2653   0.1681     O
O      0.33411   0.7347   0.6681     O
C        0.335    0.396   0.7135     C
C        0.335    0.604   0.2135     C
C        0.337   0.3762   0.6139     C
C        0.337   0.6238   0.1139     C
C      0.34402   0.0901   0.2755     C
C      0.34402   0.9099   0.7755     C
C      0.34415   0.0659   0.8952     C
C      0.34415   0.9341   0.3952     C
H       0.3473   0.3194   0.7538     H
H       0.3473   0.6806   0.2538     H
C       0.3474   0.2883   0.4939     C
C       0.3474   0.7117   0.9939     C
N       0.3526   0.2675   0.5864     N
N       0.3526   0.7325   0.0864     N
H       0.3562   0.2298   0.4564     H
H       0.3562   0.7702   0.9564     H
H       0.3563   0.0777   0.6086     H
H       0.3563   0.9223   0.1086     H
H       0.3585   0.4662   0.7498     H
H       0.3585   0.5338   0.2498     H
H       0.3718   0.1562   0.7078     H
H       0.3718   0.8438   0.2078     H
C       0.3768   0.1514   0.6475     C
C       0.3768   0.8486   0.1475     C
C      0.40083   0.0978   0.3295     C
C      0.40083   0.9022   0.8295     C
C      0.40127   0.0635   0.9469     C
C      0.40127   0.9365   0.4469     C
H       0.4197   0.1547   0.3088     H
H       0.4197   0.8453   0.8088     H
H       0.4202   0.1171   0.0023     H
H       0.4202   0.8829   0.5023     H
C      0.42971   0.0203   0.4147     C
C      0.42971   0.9797   0.9147     C
C       0.4355    0.128   0.6798     C
C       0.4355    0.872   0.1798     C
H       0.4409   0.1217   0.6199     H
H       0.4409   0.8783   0.1199     H
H       0.4457   0.0461   0.7147     H
H       0.4457   0.9539   0.2147     H
H       0.4573   0.3171   0.7296     H
H       0.4573   0.6829   0.2296     H
C       0.4745   0.2337    0.751     C
C       0.4745   0.7663    0.251     C
H       0.4806   0.2189   0.8198     H
H       0.4806   0.7811   0.3198     H
N      0.48742    0.035   0.4625     N
N      0.48742    0.965   0.9625     N
N      0.51258    0.035   0.0375     N
N      0.51258    0.965   0.5375     N
H       0.5194   0.2189   0.6802     H
H       0.5194   0.7811   0.1802     H
C       0.5255   0.2337    0.749     C
C       0.5255   0.7663    0.249     C
H       0.5427   0.3171   0.7704     H
H       0.5427   0.6829   0.2704     H
H       0.5543   0.0461   0.7853     H
H       0.5543   0.9539   0.2853     H
H       0.5591   0.1217   0.8801     H
H       0.5591   0.8783   0.3801     H
C       0.5645    0.128   0.8202     C
C       0.5645    0.872   0.3202     C
C      0.57029   0.0203   0.0853     C
C      0.57029   0.9797   0.5853     C
H       0.5798   0.1171   0.4977     H
H       0.5798   0.8829   0.9977     H
H       0.5803   0.1547   0.1912     H
H       0.5803   0.8453   0.6912     H
C      0.59873   0.0635   0.5531     C
C      0.59873   0.9365   0.0531     C
C      0.59917   0.0978   0.1705     C
C      0.59917   0.9022   0.6705     C
C       0.6232   0.1514   0.8525     C
C       0.6232   0.8486   0.3525     C
H       0.6282   0.1562   0.7922     H
H       0.6282   0.8438   0.2922     H
H       0.6415   0.4662   0.7502     H
H       0.6415   0.5338   0.2502     H
H       0.6437   0.0777   0.8914     H
H       0.6437   0.9223   0.3914     H
H       0.6438   0.2298   0.0436     H
H       0.6438   0.7702   0.5436     H
N       0.6474   0.2675   0.9136     N
N       0.6474   0.7325   0.4136     N
C       0.6526   0.2883   0.0061     C
C       0.6526   0.7117   0.5061     C
H       0.6527   0.3194   0.7462     H
H       0.6527   0.6806   0.2462     H
C      0.65585   0.0659   0.6048     C
C      0.65585   0.9341   0.1048     C
C      0.65598   0.0901   0.2245     C
C      0.65598   0.9099   0.7245     C
C        0.663   0.3762   0.8861     C
C        0.663   0.6238   0.3861     C
C        0.665    0.396   0.7865     C
C        0.665    0.604   0.2865     C
O      0.66589   0.2653   0.3319     O
O      0.66589   0.7347   0.8319     O
O      0.66737   0.2498   0.5213     O
O      0.66737   0.7502   0.0213     O
C       0.6728    0.409   0.0372     C
C       0.6728    0.591   0.5372     C
N       0.6778   0.4641   0.9558     N
N       0.6778   0.5359   0.4558     N
H       0.6814   0.4469   0.0994     H
H       0.6814   0.5531   0.5994     H
C      0.68416   0.0082   0.1906     C
C      0.68416   0.9918   0.6906     C
C      0.68718   0.1646   0.3215     C
C      0.68718   0.8354   0.8215     C
C      0.68804    0.147   0.5651     C
C      0.68804    0.853   0.0651     C
H       0.7019   0.4148      0.8     H
H       0.7019   0.5852      0.3     H
Zn      0.7087  0.36024  0.46623    Zn
Zn      0.7087  0.63976  0.96623    Zn
H       0.7222   0.0035   0.2259     H
H       0.7222   0.9965   0.7259     H
O      0.73153   0.1161   0.3845     O
O      0.73153   0.8839   0.8845     O
O      0.73291   0.1001   0.5794     O
O      0.73291   0.8999   0.0794     O
O      0.76709   0.3999   0.4206     O
O      0.76709   0.6001   0.9206     O
O      0.76847   0.3839   0.6155     O
O      0.76847   0.6161   0.1155     O
H       0.7778   0.4965   0.7741     H
H       0.7778   0.5035   0.2741     H
Zn      0.7913  0.13976  0.53377    Zn
Zn      0.7913  0.86024  0.03377    Zn
H       0.7981   0.0852      0.2     H
H       0.7981   0.9148      0.7     H
C      0.81196    0.353   0.4349     C
C      0.81196    0.647   0.9349     C
C      0.81282   0.3354   0.6785     C
C      0.81282   0.6646   0.1785     C
C      0.81584   0.4918   0.8094     C
C      0.81584   0.5082   0.3094     C
H       0.8186   0.0531   0.9006     H
H       0.8186   0.9469   0.4006     H
N       0.8222   0.0359   0.0442     N
N       0.8222   0.9641   0.5442     N
C       0.8272    0.091   0.9628     C
C       0.8272    0.909   0.4628     C
O      0.83263   0.2502   0.4787     O
O      0.83263   0.7498   0.9787     O
O      0.83411   0.2347   0.6681     O
O      0.83411   0.7653   0.1681     O
C        0.835    0.104   0.2135     C
C        0.835    0.896   0.7135     C
C        0.837   0.1238   0.1139     C
C        0.837   0.8762   0.6139     C
C      0.84402   0.4099   0.7755     C
C      0.84402   0.5901   0.2755     C
C      0.84415   0.4341   0.3952     C
C      0.84415   0.5659   0.8952     C
H       0.8473   0.1806   0.2538     H
H       0.8473   0.8194   0.7538     H
C       0.8474   0.2117   0.9939     C
C       0.8474   0.7883   0.4939     C
N       0.8526   0.2325   0.0864     N
N       0.8526   0.7675   0.5864     N
H       0.8562   0.2702   0.9564     H
H       0.8562   0.7298   0.4564     H
H       0.8563   0.4223   0.1086     H
H       0.8563   0.5777   0.6086     H
H       0.8585   0.0338   0.2498     H
H       0.8585   0.9662   0.7498     H
H       0.8718   0.3438   0.2078     H
H       0.8718   0.6562   0.7078     H
C       0.8768   0.3486   0.1475     C
C       0.8768   0.6514   0.6475     C
C      0.90083   0.4022   0.8295     C
C      0.90083   0.5978   0.3295     C
C      0.90127   0.4365   0.4469     C
C      0.90127   0.5635   0.9469     C
H       0.9197   0.3453   0.8088     H
H       0.9197   0.6547   0.3088     H
H       0.9202   0.3829   0.5023     H
H       0.9202   0.6171   0.0023     H
C      0.92971   0.4797   0.9147     C
C      0.92971   0.5203   0.4147     C
C       0.9355    0.372   0.1798     C
C       0.9355    0.628   0.6798     C
H       0.9409   0.3783   0.1199     H
H       0.9409   0.6217   0.6199     H
H       0.9457   0.4539   0.2147     H
H       0.9457   0.5461   0.7147     H
H       0.9573   0.1829   0.2296     H
H       0.9573   0.8171   0.7296     H
C       0.9745   0.2663    0.251     C
C       0.9745   0.7337    0.751     C
H       0.9806   0.2811   0.3198     H
H       0.9806   0.7189   0.8198     H
N      0.98742    0.465   0.9625     N
N      0.98742    0.535   0.4625     N
