data_I
_chemical_name_common  '/home/zhangsd/repos/MofS-CGCNN/ML/data/TSD/clean_cifs/ESASAU_clean'
_cell_length_a 27.62130
_cell_length_b 10.51210
_cell_length_c 14.76140
_cell_angle_alpha 90.00000
_cell_angle_beta  117.04800
_cell_angle_gamma 90.00000
_space_group_name_H-M_alt      'P 1'


loop_
_space_group_symop_operation_xyz
  'x, y, z' 

loop_
_atom_site_label
_atom_site_fract_x
_atom_site_fract_y
_atom_site_fract_z
_atom_site_type_symbol
O       0.0019   0.1235   0.4213     O
O       0.0019   0.8765   0.9213     O
N        0.014   0.0332   0.0364     N
N        0.014   0.9668   0.5364     N
C       0.0312   0.2482   0.7639     C
C       0.0312   0.7518   0.2639     C
H       0.0349   0.2421   0.7018     H
H       0.0349   0.7579   0.2018     H
H       0.0472   0.3283   0.7964     H
H       0.0472   0.6717   0.2964     H
H       0.0507   0.0607   0.7967     H
H       0.0507   0.9393   0.2967     H
H       0.0529   0.1367   0.8898     H
H       0.0529   0.8633   0.3898     H
C       0.0622   0.1402   0.8339     C
C       0.0622   0.8598   0.3339     C
C       0.0711   0.0158   0.0874     C
C       0.0711   0.9842   0.5874     C
H       0.0799   0.1515   0.1917     H
H       0.0799   0.8485   0.6917     H
H       0.0813     0.12    0.499     H
H       0.0813     0.88    0.999     H
C       0.0989   0.0934   0.1725     C
C       0.0989   0.9066   0.6725     C
C       0.0997   0.0676   0.5551     C
C       0.0997   0.9324   0.0551     C
H        0.122   0.2729   0.0462     H
H        0.122   0.7271   0.5462     H
C       0.1235   0.1525   0.8769     C
C       0.1235   0.8475   0.3769     C
H       0.1337   0.1432   0.8225     H
H       0.1337   0.8568   0.3225     H
C       0.1361   0.3186   0.0097     C
C       0.1361   0.6814   0.5097     C
H       0.1411   0.0853   0.9261     H
H       0.1411   0.9147   0.4261     H
N       0.1418   0.2771   0.9262     N
N       0.1418   0.7229   0.4262     N
H       0.1484   0.3228   0.7534     H
H       0.1484   0.6772   0.2534     H
C      0.15529   0.0832   0.2285     C
C      0.15529   0.9168   0.7285     C
C       0.1553   0.4393   0.0277     C
C       0.1553   0.5607   0.5277     C
C      0.15615   0.0706   0.6084     C
C      0.15615   0.9294   0.1084     C
H       0.1566   0.4917   0.0795     H
H       0.1566   0.5083   0.5795     H
C       0.1641   0.3717   0.8974     C
C       0.1641   0.6283   0.3974     C
O      0.16591   0.2635    0.332     O
O      0.16591   0.7365    0.832     O
O      0.16911   0.2505    0.525     O
O      0.16911   0.7495    0.025     O
N      0.17275   0.4721   0.9568     N
N      0.17275   0.5279   0.4568     N
C       0.1782   0.3627    0.811     C
C       0.1782   0.6373    0.311     C
H       0.1829   0.4477   0.7907     H
H       0.1829   0.5523   0.2907     H
C      0.18385   0.0021   0.1952     C
C      0.18385   0.9979   0.6952     C
C      0.18632   0.1599   0.3247     C
C      0.18632   0.8401   0.8247     C
C       0.1889   0.1488   0.5692     C
C       0.1889   0.8512   0.0692     C
Zn     0.20908     0.36  0.46452    Zn
Zn     0.20908     0.64  0.96452    Zn
H       0.2215   0.0032   0.7312     H
H       0.2215   0.9968   0.2312     H
H       0.2252   0.2006   0.8576     H
H       0.2252   0.7994   0.3576     H
O       0.2303   0.1126   0.3884     O
C       0.2303   0.2857   0.8399     C
C       0.2303   0.7143   0.3399     C
O       0.2303   0.8874   0.8884     O
O      0.23361   0.1016   0.5847     O
O      0.23361   0.8984   0.0847     O
H       0.2384   0.2834   0.7833     H
H       0.2384   0.7166   0.2833     H
H       0.2401    0.175    0.103     H
H       0.2401    0.825    0.603     H
H       0.2599    0.325    0.897     H
H       0.2599    0.675    0.397     H
H       0.2616   0.2166   0.2167     H
H       0.2616   0.7834   0.7167     H
O      0.26639   0.3984   0.4153     O
O      0.26639   0.6016   0.9153     O
C       0.2697   0.2143   0.1601     C
O       0.2697   0.3874   0.6116     O
O       0.2697   0.6126   0.1116     O
C       0.2697   0.7857   0.6601     C
H       0.2748   0.2994   0.1424     H
H       0.2748   0.7006   0.6424     H
H       0.2785   0.4968   0.2688     H
H       0.2785   0.5032   0.7688     H
Zn     0.29092     0.14  0.53548    Zn
Zn     0.29092     0.86  0.03548    Zn
C       0.3111   0.3512   0.4308     C
C       0.3111   0.6488   0.9308     C
C      0.31368   0.3401   0.6753     C
C      0.31368   0.6599   0.1753     C
C      0.31615   0.4979   0.8048     C
C      0.31615   0.5021   0.3048     C
H       0.3171   0.0523   0.2093     H
H       0.3171   0.9477   0.7093     H
C       0.3218   0.1373    0.189     C
C       0.3218   0.8627    0.689     C
N      0.32725   0.0279   0.0432     N
N      0.32725   0.9721   0.5432     N
O      0.33089   0.2495    0.475     O
O      0.33089   0.7505    0.975     O
O      0.33409   0.2365    0.668     O
O      0.33409   0.7635    0.168     O
C       0.3359   0.1283   0.1026     C
C       0.3359   0.8717   0.6026     C
H       0.3434   0.0083   0.9205     H
H       0.3434   0.9917   0.4205     H
C      0.34385   0.4294   0.3916     C
C      0.34385   0.5706   0.8916     C
C       0.3447   0.0607   0.9723     C
C       0.3447   0.9393   0.4723     C
C      0.34471   0.4168   0.7715     C
C      0.34471   0.5832   0.2715     C
H       0.3516   0.1772   0.2466     H
H       0.3516   0.8228   0.7466     H
N       0.3582   0.2229   0.0738     N
N       0.3582   0.7771   0.5738     N
H       0.3589   0.4147   0.0739     H
H       0.3589   0.5853   0.5739     H
C       0.3639   0.1814   0.9903     C
C       0.3639   0.8186   0.4903     C
H       0.3663   0.3568   0.1775     H
H       0.3663   0.6432   0.6775     H
C       0.3765   0.3475   0.1231     C
C       0.3765   0.6525   0.6231     C
H        0.378   0.2271   0.9538     H
H        0.378   0.7729   0.4538     H
C       0.4003   0.4324   0.4449     C
C       0.4003   0.5676   0.9449     C
C       0.4011   0.4066   0.8275     C
C       0.4011   0.5934   0.3275     C
H       0.4187     0.38    0.501     H
H       0.4187     0.62    0.001     H
H       0.4201   0.3485   0.8083     H
H       0.4201   0.6515   0.3083     H
C       0.4289   0.4842   0.9126     C
C       0.4289   0.5158   0.4126     C
C       0.4378   0.3598   0.1661     C
C       0.4378   0.6402   0.6661     C
H       0.4471   0.3633   0.1102     H
H       0.4471   0.6367   0.6102     H
H       0.4493   0.4393   0.2033     H
H       0.4493   0.5607   0.7033     H
H       0.4528   0.1717   0.2036     H
H       0.4528   0.8283   0.7036     H
H       0.4651   0.2579   0.2982     H
H       0.4651   0.7421   0.7982     H
C       0.4688   0.2518   0.2361     C
C       0.4688   0.7482   0.7361     C
N        0.486   0.4668   0.9636     N
N        0.486   0.5332   0.4636     N
O       0.4981   0.3765   0.5787     O
O       0.4981   0.6235   0.0787     O
O       0.5019   0.3765   0.9213     O
O       0.5019   0.6235   0.4213     O
N        0.514   0.4668   0.5364     N
N        0.514   0.5332   0.0364     N
C       0.5312   0.2518   0.2639     C
C       0.5312   0.7482   0.7639     C
H       0.5349   0.2579   0.2018     H
H       0.5349   0.7421   0.7018     H
H       0.5472   0.1717   0.2964     H
H       0.5472   0.8283   0.7964     H
H       0.5507   0.4393   0.2967     H
H       0.5507   0.5607   0.7967     H
H       0.5529   0.3633   0.3898     H
H       0.5529   0.6367   0.8898     H
C       0.5622   0.3598   0.3339     C
C       0.5622   0.6402   0.8339     C
C       0.5711   0.4842   0.5874     C
C       0.5711   0.5158   0.0874     C
H       0.5799   0.3485   0.6917     H
H       0.5799   0.6515   0.1917     H
H       0.5813     0.38    0.999     H
H       0.5813     0.62    0.499     H
C       0.5989   0.4066   0.6725     C
C       0.5989   0.5934   0.1725     C
C       0.5997   0.4324   0.0551     C
C       0.5997   0.5676   0.5551     C
H        0.622   0.2271   0.5462     H
H        0.622   0.7729   0.0462     H
C       0.6235   0.3475   0.3769     C
C       0.6235   0.6525   0.8769     C
H       0.6337   0.3568   0.3225     H
H       0.6337   0.6432   0.8225     H
C       0.6361   0.1814   0.5097     C
C       0.6361   0.8186   0.0097     C
H       0.6411   0.4147   0.4261     H
H       0.6411   0.5853   0.9261     H
N       0.6418   0.2229   0.4262     N
N       0.6418   0.7771   0.9262     N
H       0.6484   0.1772   0.2534     H
H       0.6484   0.8228   0.7534     H
C      0.65529   0.4168   0.7285     C
C      0.65529   0.5832   0.2285     C
C       0.6553   0.0607   0.5277     C
C       0.6553   0.9393   0.0277     C
C      0.65615   0.4294   0.1084     C
C      0.65615   0.5706   0.6084     C
H       0.6566   0.0083   0.5795     H
H       0.6566   0.9917   0.0795     H
C       0.6641   0.1283   0.3974     C
C       0.6641   0.8717   0.8974     C
O      0.66591   0.2365    0.832     O
O      0.66591   0.7635    0.332     O
O      0.66911   0.2495    0.025     O
O      0.66911   0.7505    0.525     O
N      0.67275   0.0279   0.4568     N
N      0.67275   0.9721   0.9568     N
C       0.6782   0.1373    0.311     C
C       0.6782   0.8627    0.811     C
H       0.6829   0.0523   0.2907     H
H       0.6829   0.9477   0.7907     H
C      0.68385   0.4979   0.6952     C
C      0.68385   0.5021   0.1952     C
C      0.68632   0.3401   0.8247     C
C      0.68632   0.6599   0.3247     C
C       0.6889   0.3512   0.0692     C
C       0.6889   0.6488   0.5692     C
Zn     0.70908     0.14  0.96452    Zn
Zn     0.70908     0.86  0.46452    Zn
H       0.7215   0.4968   0.2312     H
H       0.7215   0.5032   0.7312     H
H       0.7252   0.2994   0.3576     H
H       0.7252   0.7006   0.8576     H
C       0.7303   0.2143   0.3399     C
O       0.7303   0.3874   0.8884     O
O       0.7303   0.6126   0.3884     O
C       0.7303   0.7857   0.8399     C
O      0.73361   0.3984   0.0847     O
O      0.73361   0.6016   0.5847     O
H       0.7384   0.2166   0.2833     H
H       0.7384   0.7834   0.7833     H
H       0.7401    0.325    0.603     H
H       0.7401    0.675    0.103     H
H       0.7599    0.175    0.397     H
H       0.7599    0.825    0.897     H
H       0.7616   0.2834   0.7167     H
H       0.7616   0.7166   0.2167     H
O      0.76639   0.1016   0.9153     O
O      0.76639   0.8984   0.4153     O
O       0.7697   0.1126   0.1116     O
C       0.7697   0.2857   0.6601     C
C       0.7697   0.7143   0.1601     C
O       0.7697   0.8874   0.6116     O
H       0.7748   0.2006   0.6424     H
H       0.7748   0.7994   0.1424     H
H       0.7785   0.0032   0.7688     H
H       0.7785   0.9968   0.2688     H
Zn     0.79092     0.36  0.03548    Zn
Zn     0.79092     0.64  0.53548    Zn
C       0.8111   0.1488   0.9308     C
C       0.8111   0.8512   0.4308     C
C      0.81368   0.1599   0.1753     C
C      0.81368   0.8401   0.6753     C
C      0.81615   0.0021   0.3048     C
C      0.81615   0.9979   0.8048     C
H       0.8171   0.4477   0.7093     H
H       0.8171   0.5523   0.2093     H
C       0.8218   0.3627    0.689     C
C       0.8218   0.6373    0.189     C
N      0.82725   0.4721   0.5432     N
N      0.82725   0.5279   0.0432     N
O      0.83089   0.2505    0.975     O
O      0.83089   0.7495    0.475     O
O      0.83409   0.2635    0.168     O
O      0.83409   0.7365    0.668     O
C       0.8359   0.3717   0.6026     C
C       0.8359   0.6283   0.1026     C
H       0.8434   0.4917   0.4205     H
H       0.8434   0.5083   0.9205     H
C      0.84385   0.0706   0.8916     C
C      0.84385   0.9294   0.3916     C
C       0.8447   0.4393   0.4723     C
C       0.8447   0.5607   0.9723     C
C      0.84471   0.0832   0.2715     C
C      0.84471   0.9168   0.7715     C
H       0.8516   0.3228   0.7466     H
H       0.8516   0.6772   0.2466     H
N       0.8582   0.2771   0.5738     N
N       0.8582   0.7229   0.0738     N
H       0.8589   0.0853   0.5739     H
H       0.8589   0.9147   0.0739     H
C       0.8639   0.3186   0.4903     C
C       0.8639   0.6814   0.9903     C
H       0.8663   0.1432   0.6775     H
H       0.8663   0.8568   0.1775     H
C       0.8765   0.1525   0.6231     C
C       0.8765   0.8475   0.1231     C
H        0.878   0.2729   0.4538     H
H        0.878   0.7271   0.9538     H
C       0.9003   0.0676   0.9449     C
C       0.9003   0.9324   0.4449     C
C       0.9011   0.0934   0.3275     C
C       0.9011   0.9066   0.8275     C
H       0.9187     0.12    0.001     H
H       0.9187     0.88    0.501     H
H       0.9201   0.1515   0.3083     H
H       0.9201   0.8485   0.8083     H
C       0.9289   0.0158   0.4126     C
C       0.9289   0.9842   0.9126     C
C       0.9378   0.1402   0.6661     C
C       0.9378   0.8598   0.1661     C
H       0.9471   0.1367   0.6102     H
H       0.9471   0.8633   0.1102     H
H       0.9493   0.0607   0.7033     H
H       0.9493   0.9393   0.2033     H
H       0.9528   0.3283   0.7036     H
H       0.9528   0.6717   0.2036     H
H       0.9651   0.2421   0.7982     H
H       0.9651   0.7579   0.2982     H
C       0.9688   0.2482   0.7361     C
C       0.9688   0.7518   0.2361     C
N        0.986   0.0332   0.4636     N
N        0.986   0.9668   0.9636     N
O       0.9981   0.1235   0.0787     O
O       0.9981   0.8765   0.5787     O
