data_I
_chemical_name_common  '/home/zhangsd/repos/MofS-CGCNN/ML/data/TSD/clean_cifs/ESEHIV_clean'
_cell_length_a 11.80740
_cell_length_b 12.02870
_cell_length_c 12.58150
_cell_angle_alpha 77.50800
_cell_angle_beta  88.50500
_cell_angle_gamma 62.82300
_space_group_name_H-M_alt      'P 1'


loop_
_space_group_symop_operation_xyz
  'x, y, z' 

loop_
_atom_site_label
_atom_site_fract_x
_atom_site_fract_y
_atom_site_fract_z
_atom_site_type_symbol
O       0.0033   0.8877   0.6576     O
H       0.0085   0.5916   0.0727     H
C       0.0165   0.6559   0.3898     C
N       0.0206   0.2771   0.4067     N
C       0.0228   0.7646    0.525     C
O       0.0306   0.5006   0.2949     O
H       0.0427   0.0675   0.6104     H
C       0.0509   0.1299   0.5574     C
H       0.0603   0.1509   0.9659     H
H       0.0853   0.8134   0.0395     H
N       0.1018   0.8239   0.8734     N
H       0.1102   0.0598   0.1622     H
C       0.1108   0.7963   0.4723     C
H       0.1123    0.122   0.7766     H
C       0.1129   0.6814   0.3356     C
C       0.1155   0.2634   0.4722     C
N       0.1314   0.1779   0.5665     N
H       0.1382   0.8472   0.4985     H
C       0.1387   0.8046    0.983     C
C       0.1409   0.1012    0.003     C
H       0.1439   0.6519   0.2731     H
C       0.1593   0.7514   0.3785     C
H       0.1638    0.307   0.4551     H
C       0.1698   0.0513   0.1107     C
C       0.1909   0.1194   0.7618     C
C       0.2036      0.8   0.8223     C
H       0.2059   0.8051   0.7475     H
C       0.2232   0.1432    0.655     C
N       0.2584   0.0622   0.9596     N
C       0.2607   0.7764   0.3214     C
C       0.2664   0.7706   0.9942     C
C       0.2796   0.0922    0.844     C
O       0.2896   0.8538   0.3516     O
N       0.3024   0.9844   0.1344     N
N       0.3048   0.7672   0.8893     N
O       0.3135   0.7191   0.2494     O
H       0.3159   0.7537   0.0576     H
C        0.341   0.1364   0.6285     C
C       0.3502   0.9914   0.0408     C
H       0.3606   0.1507   0.5563     H
H        0.362    0.832   0.6953     H
C       0.3992   0.0887   0.8246     C
Cu      0.4129  0.90296  0.27391    Cu
H        0.413   0.8038   0.5211     H
C       0.4272    0.748   0.8533     C
C       0.4286   0.1071   0.7158     C
O       0.4292   0.1378   0.2622     O
C       0.4352   0.7904   0.7434     C
H        0.437   0.9522   0.0314     H
H       0.4561   0.0747   0.8817     H
C       0.4837   0.8186   0.5107     C
N       0.5148   0.8527   0.4172     N
C       0.5173    0.064   0.2174     C
H       0.5257   0.6748   0.0024     H
O       0.5314    0.961   0.2005     O
C       0.5334   0.6969   0.9281     C
H       0.5354   0.2111   0.5448     H
N       0.5496   0.0977   0.6922     N
C       0.5541   0.7707   0.7044     C
N        0.562   0.8054   0.5945     N
C       0.5884   0.1525   0.6057     C
H       0.6052   0.2153   0.2808     H
C       0.6211   0.1001   0.1759     C
C       0.6243   0.8625   0.4333     C
C       0.6507   0.1818   0.2242     C
C       0.6526    0.679   0.8903     C
C       0.6538   0.8336   0.5453     C
C       0.6548   0.0232   0.7625     C
H       0.6563   0.9747   0.8314     H
C       0.6632   0.7134   0.7765     C
H       0.6655    0.004   0.0581     H
H       0.6703   0.8845    0.379     H
C       0.6849   0.0571   0.0896     C
O       0.7072   0.3592    0.296     O
C       0.7123    0.112   0.6184     C
H       0.7224   0.8334   0.5802     H
H       0.7282   0.5044   0.0884     H
H       0.7423   0.6978   0.7505     H
C       0.7469   0.2108   0.1867     C
N       0.7545   0.0294   0.7191     N
N       0.7586   0.6259   0.9659     N
H       0.7618   0.1351   0.5685     H
C       0.7811   0.0914   0.0458     C
C       0.7814   0.2903   0.2414     C
C       0.7816   0.5403    0.063     C
C       0.8059   0.1696   0.0937     C
C       0.8468   0.0515   0.9495     C
O        0.849   0.6049   0.3627     O
O       0.8504   0.9478    0.933     O
C       0.8591   0.6579   0.9591     C
H       0.8642   0.1972    0.064     H
H       0.8714   0.7142   0.9023     H
N       0.8838    0.515   0.1149     N
O       0.8904   0.2845   0.2198     O
O       0.8928   0.1096   0.8903     O
H       0.9098   0.6815   0.5221     H
O       0.9204   0.7557   0.6916     O
H       0.9233   0.1678   0.4318     H
Cu     0.92878  0.91965  0.79521    Cu
C       0.9344   0.5894   0.0528     C
Cu     0.96266  0.39111  0.25823    Cu
C       0.9629   0.5817   0.3474     C
C       0.9721   0.6984   0.4862     C
C       0.9771   0.8052   0.6307     C
C       0.9835   0.1863   0.4593     C
