data_I
_chemical_name_common  '/home/zhangsd/repos/MofS-CGCNN/ML/data/TSD/clean_cifs/ESURER04_clean'
_cell_length_a 17.51800
_cell_length_b 13.30900
_cell_length_c 11.18100
_cell_angle_alpha 90.00000
_cell_angle_beta  95.87300
_cell_angle_gamma 90.00000
_space_group_name_H-M_alt      'P 1'


loop_
_space_group_symop_operation_xyz
  'x, y, z' 

loop_
_atom_site_label
_atom_site_fract_x
_atom_site_fract_y
_atom_site_fract_z
_atom_site_type_symbol
Co         0.0  0.09134     0.25    Co
Co         0.0  0.90866     0.75    Co
O       0.0219   0.0764   0.4355     O
O       0.0219   0.9236   0.9355     O
H        0.049     0.13    0.439     H
H        0.049     0.87    0.939     H
Co     0.08071  0.05812  0.00149    Co
Co     0.08071  0.94188  0.50149    Co
O       0.0823   0.2019   0.2361     O
O       0.0823   0.7981   0.7361     O
N       0.0927    0.014    0.749     N
N       0.0927    0.986    0.249     N
N        0.127   0.0259   0.6469     N
N        0.127   0.9741   0.1469     N
N         0.13   0.0612   0.8398     N
N         0.13   0.9388   0.3398     N
C       0.1339   0.2188   0.1702     C
C       0.1339   0.7812   0.6702     C
O       0.1369    0.183   0.0634     O
O       0.1369    0.817   0.5634     O
H       0.1654   0.2881   0.3891     H
H       0.1654   0.7119   0.8891     H
C        0.189   0.0865   0.6748     C
C        0.189   0.9135   0.1748     C
C       0.1916   0.1088   0.8004     C
C       0.1916   0.8912   0.3004     C
C       0.1972   0.2908   0.2193     C
C       0.1972   0.7092   0.7193     C
C       0.2017   0.3151   0.3432     C
C       0.2017   0.6849   0.8432     C
H       0.2404   0.1066   0.5204     H
H       0.2404   0.8934   0.0204     H
C       0.2424    0.123   0.6015     C
C       0.2424    0.877   0.1015     C
H       0.2465   0.3124   0.0659     H
H       0.2465   0.6876   0.5659     H
C       0.2498   0.3283   0.1473     C
C       0.2498   0.6717   0.6473     C
C       0.2502   0.1717   0.8527     C
C       0.2502   0.8283   0.3527     C
H       0.2535   0.1876   0.9341     H
H       0.2535   0.8124   0.4341     H
C       0.2576    0.377   0.3985     C
C       0.2576    0.623   0.8985     C
H       0.2596   0.3934   0.4796     H
H       0.2596   0.6066   0.9796     H
C       0.2983   0.1849   0.6568     C
C       0.2983   0.8151   0.1568     C
C       0.3028   0.2092   0.7807     C
C       0.3028   0.7908   0.2807     C
C       0.3084   0.3912   0.1996     C
C       0.3084   0.6088   0.6996     C
C        0.311   0.4135   0.3252     C
C        0.311   0.5865   0.8252     C
H       0.3346   0.2119   0.6109     H
H       0.3346   0.7881   0.1109     H
O       0.3631    0.317   0.9366     O
O       0.3631    0.683   0.4366     O
C       0.3661   0.2812   0.8298     C
C       0.3661   0.7188   0.3298     C
N         0.37   0.4388   0.1602     N
N         0.37   0.5612   0.6602     N
N        0.373   0.4741   0.3531     N
N        0.373   0.5259   0.8531     N
N       0.4073    0.486    0.251     N
N       0.4073    0.514    0.751     N
O       0.4177   0.2981   0.7639     O
O       0.4177   0.7019   0.2639     O
Co     0.41929  0.44188  0.99851    Co
Co     0.41929  0.55812  0.49851    Co
H        0.451     0.37    0.561     H
H        0.451     0.63    0.061     H
O       0.4781   0.4236   0.5645     O
O       0.4781   0.5764   0.0645     O
Co         0.5  0.40866     0.75    Co
Co         0.5  0.59134     0.25    Co
O       0.5219   0.4236   0.9355     O
O       0.5219   0.5764   0.4355     O
H        0.549     0.37    0.939     H
H        0.549     0.63    0.439     H
Co     0.58071  0.44188  0.50149    Co
Co     0.58071  0.55812  0.00149    Co
O       0.5823   0.2981   0.7361     O
O       0.5823   0.7019   0.2361     O
N       0.5927    0.486    0.249     N
N       0.5927    0.514    0.749     N
N        0.627   0.4741   0.1469     N
N        0.627   0.5259   0.6469     N
N         0.63   0.4388   0.3398     N
N         0.63   0.5612   0.8398     N
C       0.6339   0.2812   0.6702     C
C       0.6339   0.7188   0.1702     C
O       0.6369    0.317   0.5634     O
O       0.6369    0.683   0.0634     O
H       0.6654   0.2119   0.8891     H
H       0.6654   0.7881   0.3891     H
C        0.689   0.4135   0.1748     C
C        0.689   0.5865   0.6748     C
C       0.6916   0.3912   0.3004     C
C       0.6916   0.6088   0.8004     C
C       0.6972   0.2092   0.7193     C
C       0.6972   0.7908   0.2193     C
C       0.7017   0.1849   0.8432     C
C       0.7017   0.8151   0.3432     C
H       0.7404   0.3934   0.0204     H
H       0.7404   0.6066   0.5204     H
C       0.7424    0.377   0.1015     C
C       0.7424    0.623   0.6015     C
H       0.7465   0.1876   0.5659     H
H       0.7465   0.8124   0.0659     H
C       0.7498   0.1717   0.6473     C
C       0.7498   0.8283   0.1473     C
C       0.7502   0.3283   0.3527     C
C       0.7502   0.6717   0.8527     C
H       0.7535   0.3124   0.4341     H
H       0.7535   0.6876   0.9341     H
C       0.7576    0.123   0.8985     C
C       0.7576    0.877   0.3985     C
H       0.7596   0.1066   0.9796     H
H       0.7596   0.8934   0.4796     H
C       0.7983   0.3151   0.1568     C
C       0.7983   0.6849   0.6568     C
C       0.8028   0.2908   0.2807     C
C       0.8028   0.7092   0.7807     C
C       0.8084   0.1088   0.6996     C
C       0.8084   0.8912   0.1996     C
C        0.811   0.0865   0.8252     C
C        0.811   0.9135   0.3252     C
H       0.8346   0.2881   0.1109     H
H       0.8346   0.7119   0.6109     H
O       0.8631    0.183   0.4366     O
O       0.8631    0.817   0.9366     O
C       0.8661   0.2188   0.3298     C
C       0.8661   0.7812   0.8298     C
N         0.87   0.0612   0.6602     N
N         0.87   0.9388   0.1602     N
N        0.873   0.0259   0.8531     N
N        0.873   0.9741   0.3531     N
N       0.9073    0.014    0.751     N
N       0.9073    0.986    0.251     N
O       0.9177   0.2019   0.2639     O
O       0.9177   0.7981   0.7639     O
Co     0.91929  0.05812  0.49851    Co
Co     0.91929  0.94188  0.99851    Co
H        0.951     0.13    0.061     H
H        0.951     0.87    0.561     H
O       0.9781   0.0764   0.0645     O
O       0.9781   0.9236   0.5645     O
