data_I
_chemical_name_common  '/home/zhangsd/repos/MofS-CGCNN/ML/data/TSD/clean_cifs/ETEKEU_clean'
_cell_length_a 10.55070
_cell_length_b 10.92650
_cell_length_c 12.89780
_cell_angle_alpha 103.18400
_cell_angle_beta  111.14700
_cell_angle_gamma 96.56600
_space_group_name_H-M_alt      'P 1'


loop_
_space_group_symop_operation_xyz
  'x, y, z' 

loop_
_atom_site_label
_atom_site_fract_x
_atom_site_fract_y
_atom_site_fract_z
_atom_site_type_symbol
C       0.0003   0.9117   0.4053     C
H       0.0009    0.852   0.3413     H
O       0.0149   0.6628   0.4134     O
C       0.0209   0.8771   0.5064     C
C        0.021   0.9678   0.6031     C
C       0.0368   0.7433   0.5076     C
O       0.0411   0.9435    0.706     O
H       0.0532     0.87   0.7016     H
O       0.0717   0.7199   0.6051     O
Er     0.10646  0.54653  0.68267    Er
O       0.1208   0.4352   0.3428     O
O       0.1682   0.4969   0.5301     O
O       0.1737   0.7503   0.8448     O
H        0.184   0.9116   0.9506     H
C       0.2068   0.4722   0.4484     C
O       0.2348   0.9809   0.9942     O
H       0.2366    0.404   0.2628     H
C       0.2954   0.7698   0.8457     C
O       0.3172   0.4061   0.2697     O
O       0.3282    0.688   0.7801     O
C       0.3578   0.4861   0.4727     C
C        0.364   0.9868   0.9941     C
C       0.3993   0.8897   0.9247     C
C       0.4046    0.453   0.3842     C
H       0.4229   0.5552   0.6474     H
H       0.4402   0.1608   0.1127     H
C       0.4543    0.533   0.5882     C
C       0.4642   0.0959   0.0676     C
C       0.5358   0.9041   0.9324     C
C       0.5457    0.467   0.4118     C
H       0.5598   0.8392   0.8873     H
H       0.5771   0.4448   0.3526     H
C       0.5954    0.547   0.6158     C
C       0.6007   0.1103   0.0753     C
C        0.636   0.0132   0.0059     C
C       0.6422   0.5139   0.5273     C
O       0.6718    0.312   0.2199     O
O       0.6828   0.5939   0.7303     O
C       0.7046   0.2302   0.1543     C
H       0.7634    0.596   0.7372     H
O       0.7652   0.0191   0.0058     O
C       0.7932   0.5278   0.5516     C
H        0.816   0.0884   0.0494     H
O       0.8263   0.2497   0.1552     O
O       0.8318   0.5031   0.4699     O
O       0.8792   0.5648   0.6572     O
Er     0.89354  0.45347  0.31733    Er
O       0.9283   0.2801   0.3949     O
H       0.9468     0.13   0.2984     H
O       0.9589   0.0565    0.294     O
C       0.9632   0.2567   0.4924     C
C        0.979   0.0322   0.3969     C
C       0.9791   0.1229   0.4936     C
O       0.9851   0.3372   0.5866     O
H       0.9991    0.148   0.6587     H
C       0.9997   0.0883   0.5947     C
