data_I
_chemical_name_common  '/home/zhangsd/repos/MofS-CGCNN/ML/data/TSD/clean_cifs/EVUNEP_clean'
_cell_length_a  9.84380
_cell_length_b 13.20670
_cell_length_c 16.49190
_cell_angle_alpha 81.12080
_cell_angle_beta  72.63580
_cell_angle_gamma 68.11880
_space_group_name_H-M_alt      'P 1'


loop_
_space_group_symop_operation_xyz
  'x, y, z' 

loop_
_atom_site_label
_atom_site_fract_x
_atom_site_fract_y
_atom_site_fract_z
_atom_site_type_symbol
C       0.0224   0.7296   0.5622     C
H       0.0225   0.1853   0.1833     H
H       0.0242   0.4301   0.1299     H
C       0.0249   0.7781   0.7663     C
N      0.03646  0.41828   0.9242     N
N      0.03936  0.20338   0.2975     N
C       0.0527   0.5126   0.8876     C
C       0.0644   0.7272   0.6416     C
O      0.07267  0.22106   0.0018     O
O        0.106   0.1992   0.4414     O
O       0.1071  0.66615  0.50485     O
Zn     0.11408  0.66051  0.04571    Zn
N      0.16337  0.70226   0.7516     N
C       0.1742   0.3566   0.9398     C
O      0.17766  0.97228    0.372     O
Zn      0.1797  0.16051  0.54571    Zn
C       0.1903   0.6675   0.6719     C
N      0.19072  0.51576   0.8788     N
C       0.1913   0.2458   0.9804     C
O      0.24433  0.81044   0.4395     O
Zn     0.24719   0.1104   0.3178    Zn
O       0.2534   0.6992   0.9414     O
O       0.2575  0.81012  0.19488     O
O       0.2625  0.68988  0.30512     O
C       0.2667   0.8974   0.4086     C
C       0.2685   0.4172   0.9118     C
O       0.2781  0.83385  0.99515     O
O      0.29553  0.27894   0.4982     O
C       0.3142   0.7704   0.9378     C
C       0.3148     0.75     0.25     C
O      0.31567  0.18186   0.9912     O
Zn     0.32461   0.6104   0.8178    Zn
C       0.3336   0.5758   0.6426     C
O      0.35322  0.03656   0.1914     O
O      0.36987  0.53504  0.57042     O
Sm     0.37331   0.6181  0.42714    Sm
N      0.37894  0.08172   0.5758     N
N      0.38277  0.20226   0.2516     N
H       0.3911   0.3147   0.3167     H
C       0.4025   0.9172   0.4118     C
N      0.41472  0.01576   0.3788     N
H       0.4158   0.9301   0.6299     H
C       0.4175   0.2542   0.5196     C
Sm     0.41855   0.8819  0.07286    Sm
O      0.41882  0.53656   0.6914     O
C       0.4273   0.3974   0.9086     C
C       0.4307   0.2781   0.2663     C
C       0.4332   0.7728   0.8584     C
C        0.448   0.0758   0.1426     C
C       0.4529   0.9874   0.6124     C
N      0.45976  0.70338   0.7975     N
O      0.46769  0.19592   0.8089     O
C       0.4703   0.1675   0.1719     C
C       0.4706   0.1434   0.5602     C
O      0.47251  0.30408   0.6911     O
C        0.473     0.75     0.25     C
O      0.47533  0.96496  0.92958     O
O      0.47806  0.47228    0.872     O
O      0.48873  0.31814   0.5088     O
O      0.49427  0.68956   0.0605     O
O      0.50573  0.31044   0.9395     O
O      0.51127  0.68186   0.4912     O
O      0.52194  0.52772    0.128     O
O      0.52467  0.03504  0.07042     O
C        0.527     0.25     0.75     C
O      0.52749  0.69592   0.3089     O
C       0.5294   0.8566   0.4398     C
C       0.5297   0.8325   0.8281     C
O      0.53231  0.80408   0.1911     O
N      0.54024  0.29662   0.2025     N
C       0.5471   0.0126   0.3876     C
C        0.552   0.9242   0.8574     C
C       0.5668   0.2272   0.1416     C
C       0.5693   0.7219   0.7337     C
C       0.5727   0.6026   0.0914     C
O      0.58118  0.46344   0.3086     O
Sm     0.58145   0.1181  0.92714    Sm
C       0.5825   0.7458   0.4804     C
H       0.5842   0.0699   0.3701     H
N      0.58528  0.98424   0.6212     N
C       0.5975   0.0828   0.5882     C
H       0.6089   0.6853   0.6833     H
N      0.61723  0.79774   0.7484     N
N      0.62106  0.91828   0.4242     N
Sm     0.62669   0.3819  0.57286    Sm
O      0.63013  0.46496  0.42958     O
O      0.64678  0.96344   0.8086     O
C       0.6664   0.4242   0.3574     C
Zn     0.67539   0.3896   0.1822    Zn
O      0.68433  0.81814   0.0088     O
C       0.6852     0.25     0.75     C
C       0.6858   0.2296   0.0622     C
O      0.70447  0.72106   0.5018     O
O       0.7219  0.16615  0.00485     O
C       0.7315   0.5828   0.0882     C
C       0.7333   0.1026   0.5914     C
O       0.7375  0.31012  0.69488     O
O       0.7425  0.18988  0.80512     O
O       0.7466   0.3008   0.0586     O
Zn     0.75281   0.8896   0.6822    Zn
O      0.75567  0.18956   0.5605     O
C       0.8087   0.7542   0.0196     C
N      0.80928  0.48424   0.1212     N
C       0.8097   0.3325   0.3281     C
Zn      0.8203  0.83949  0.45429    Zn
O      0.82234  0.02772    0.628     O
C       0.8258   0.6434   0.0602     C
N      0.83663  0.29774   0.2484     N
Zn     0.88592  0.33949  0.95429    Zn
O       0.8929  0.33385  0.49515     O
O        0.894   0.8008   0.5586     O
O      0.92733  0.77894   0.9982     O
C       0.9356   0.2728   0.3584     C
C       0.9473   0.4874   0.1124     C
N      0.96064  0.79662   0.7025     N
N      0.96354  0.58172   0.0758     N
C       0.9751   0.2219   0.2337     C
H       0.9758   0.5699   0.8701     H
H       0.9775   0.8147   0.8167     H
C       0.9776   0.2704   0.4378     C
