data_I
_chemical_name_common  '/home/zhangsd/repos/MofS-CGCNN/ML/data/TSD/clean_cifs/EWUKAK_clean'
_cell_length_a 20.32800
_cell_length_b 20.32800
_cell_length_c 17.91000
_cell_angle_alpha 90.00000
_cell_angle_beta  90.00000
_cell_angle_gamma 90.00000
_space_group_name_H-M_alt      'P 1'


loop_
_space_group_symop_operation_xyz
  'x, y, z' 

loop_
_atom_site_label
_atom_site_fract_x
_atom_site_fract_y
_atom_site_fract_z
_atom_site_type_symbol
H       0.0077    0.306   0.5108     H
H       0.0077    0.694   0.0108     H
C       0.0192   0.2909   0.1533     C
C       0.0192   0.7091   0.6533     C
O       0.0331   0.2572   0.2119     O
O       0.0331   0.7428   0.7119     O
C       0.0391   0.2696   0.6102     C
C       0.0391   0.7304   0.1102     C
C       0.0411   0.2817   0.5333     C
C       0.0411   0.7183   0.0333     C
O       0.0516   0.3397   0.1296     O
O       0.0516   0.6603   0.6296     O
O       0.0523   0.3078   0.3804     O
O       0.0523   0.6922   0.8804     O
H       0.0882    0.224   0.6947     H
H       0.0882    0.776   0.1947     H
C         0.09   0.2337    0.644     C
C         0.09   0.7663    0.144     C
C       0.0912   0.2679   0.4077     C
C       0.0912   0.7321   0.9077     C
C       0.0928   0.2575   0.4904     C
C       0.0928   0.7425   0.9904     C
Zn     0.11757  0.25841  0.26401    Zn
Zn     0.11757  0.74159  0.76401    Zn
O       0.1304    0.233   0.3686     O
O       0.1304    0.767   0.8686     O
C       0.1427   0.2128   0.6017     C
C       0.1427   0.7872   0.1017     C
C       0.1431   0.2242   0.5239     C
C       0.1431   0.7758   0.0239     C
Co     0.15294  0.34706  0.11906    Co
Co     0.15294  0.65294  0.61906    Co
O       0.1563   0.3437    0.237     O
O       0.1563   0.6563    0.737     O
O        0.157   0.2456   0.0997     O
O        0.157   0.7544   0.5997     O
O       0.1603   0.4484   0.1296     O
O       0.1603   0.5516   0.6296     O
O       0.1721   0.1941   0.2101     O
O       0.1721   0.8059   0.7101     O
C        0.178   0.1989   0.1392     C
C        0.178   0.8011   0.6392     C
H       0.1781   0.2089   0.4953     H
H       0.1781   0.7911   0.9953     H
O       0.1922   0.4477   0.3804     O
O       0.1922   0.5523   0.8804     O
H        0.194   0.4923   0.5108     H
H        0.194   0.5077   0.0108     H
O       0.1941   0.1721   0.7101     O
O       0.1941   0.8279   0.2101     O
C       0.1989    0.178   0.6392     C
C       0.1989    0.822   0.1392     C
H       0.2089   0.1781   0.9953     H
H       0.2089   0.8219   0.4953     H
C       0.2091   0.4808   0.1533     C
C       0.2091   0.5192   0.6533     C
C       0.2128   0.1427   0.1017     C
C       0.2128   0.8573   0.6017     C
C       0.2183   0.4589   0.5333     C
C       0.2183   0.5411   0.0333     C
H        0.224   0.0882   0.1947     H
H        0.224   0.9118   0.6947     H
C       0.2242   0.1431   0.0239     C
C       0.2242   0.8569   0.5239     C
C       0.2304   0.4609   0.6102     C
C       0.2304   0.5391   0.1102     C
C       0.2321   0.4088   0.4077     C
C       0.2321   0.5912   0.9077     C
O        0.233   0.1304   0.8686     O
O        0.233   0.8696   0.3686     O
C       0.2337     0.09    0.144     C
C       0.2337     0.91    0.644     C
Zn     0.24159  0.38243  0.26401    Zn
Zn     0.24159  0.61757  0.76401    Zn
C       0.2425   0.4072   0.4904     C
C       0.2425   0.5928   0.9904     C
O       0.2428   0.4669   0.2119     O
O       0.2428   0.5331   0.7119     O
O       0.2456    0.157   0.5997     O
O       0.2456    0.843   0.0997     O
O       0.2544    0.343   0.0997     O
O       0.2544    0.657   0.5997     O
O       0.2572   0.0331   0.7119     O
O       0.2572   0.9669   0.2119     O
C       0.2575   0.0928   0.9904     C
C       0.2575   0.9072   0.4904     C
Zn     0.25841  0.11757  0.76401    Zn
Zn     0.25841  0.88243  0.26401    Zn
C       0.2663     0.41    0.644     C
C       0.2663     0.59    0.144     C
O        0.267   0.3696   0.3686     O
O        0.267   0.6304   0.8686     O
C       0.2679   0.0912   0.9077     C
C       0.2679   0.9088   0.4077     C
C       0.2696   0.0391   0.1102     C
C       0.2696   0.9609   0.6102     C
C       0.2758   0.3569   0.5239     C
C       0.2758   0.6431   0.0239     C
H        0.276   0.4118   0.6947     H
H        0.276   0.5882   0.1947     H
C       0.2817   0.0411   0.0333     C
C       0.2817   0.9589   0.5333     C
C       0.2872   0.3573   0.6017     C
C       0.2872   0.6427   0.1017     C
C       0.2909   0.0192   0.6533     C
C       0.2909   0.9808   0.1533     C
H       0.2911   0.3219   0.4953     H
H       0.2911   0.6781   0.9953     H
C       0.3011    0.322   0.1392     C
C       0.3011    0.678   0.6392     C
O       0.3059   0.3279   0.2101     O
O       0.3059   0.6721   0.7101     O
H        0.306   0.0077   0.0108     H
H        0.306   0.9923   0.5108     H
O       0.3078   0.0523   0.8804     O
O       0.3078   0.9477   0.3804     O
H       0.3219   0.2911   0.9953     H
H       0.3219   0.7089   0.4953     H
C        0.322   0.3011   0.6392     C
C        0.322   0.6989   0.1392     C
O       0.3279   0.3059   0.7101     O
O       0.3279   0.6941   0.2101     O
O       0.3397   0.0516   0.6296     O
O       0.3397   0.9484   0.1296     O
O        0.343   0.2544   0.5997     O
O        0.343   0.7456   0.0997     O
O       0.3437   0.1563    0.737     O
O       0.3437   0.8437    0.237     O
Co     0.34706  0.15294  0.61906    Co
Co     0.34706  0.84706  0.11906    Co
C       0.3569   0.2758   0.0239     C
C       0.3569   0.7242   0.5239     C
C       0.3573   0.2872   0.1017     C
C       0.3573   0.7128   0.6017     C
O       0.3696    0.267   0.8686     O
O       0.3696    0.733   0.3686     O
Zn     0.38243  0.24159  0.76401    Zn
Zn     0.38243  0.75841  0.26401    Zn
C       0.4072   0.2425   0.9904     C
C       0.4072   0.7575   0.4904     C
C       0.4088   0.2321   0.9077     C
C       0.4088   0.7679   0.4077     C
C         0.41   0.2663    0.144     C
C         0.41   0.7337    0.644     C
H       0.4118    0.276   0.1947     H
H       0.4118    0.724   0.6947     H
O       0.4477   0.1922   0.8804     O
O       0.4477   0.8078   0.3804     O
O       0.4484   0.1603   0.6296     O
O       0.4484   0.8397   0.1296     O
C       0.4589   0.2183   0.0333     C
C       0.4589   0.7817   0.5333     C
C       0.4609   0.2304   0.1102     C
C       0.4609   0.7696   0.6102     C
O       0.4669   0.2428   0.7119     O
O       0.4669   0.7572   0.2119     O
C       0.4808   0.2091   0.6533     C
C       0.4808   0.7909   0.1533     C
H       0.4923    0.194   0.0108     H
H       0.4923    0.806   0.5108     H
H       0.5077    0.194   0.5108     H
H       0.5077    0.806   0.0108     H
C       0.5192   0.2091   0.1533     C
C       0.5192   0.7909   0.6533     C
O       0.5331   0.2428   0.2119     O
O       0.5331   0.7572   0.7119     O
C       0.5391   0.2304   0.6102     C
C       0.5391   0.7696   0.1102     C
C       0.5411   0.2183   0.5333     C
C       0.5411   0.7817   0.0333     C
O       0.5516   0.1603   0.1296     O
O       0.5516   0.8397   0.6296     O
O       0.5523   0.1922   0.3804     O
O       0.5523   0.8078   0.8804     O
H       0.5882    0.276   0.6947     H
H       0.5882    0.724   0.1947     H
C         0.59   0.2663    0.644     C
C         0.59   0.7337    0.144     C
C       0.5912   0.2321   0.4077     C
C       0.5912   0.7679   0.9077     C
C       0.5928   0.2425   0.4904     C
C       0.5928   0.7575   0.9904     C
Zn     0.61757  0.24159  0.26401    Zn
Zn     0.61757  0.75841  0.76401    Zn
O       0.6304    0.267   0.3686     O
O       0.6304    0.733   0.8686     O
C       0.6427   0.2872   0.6017     C
C       0.6427   0.7128   0.1017     C
C       0.6431   0.2758   0.5239     C
C       0.6431   0.7242   0.0239     C
Co     0.65294  0.15294  0.11906    Co
Co     0.65294  0.84706  0.61906    Co
O       0.6563   0.1563    0.237     O
O       0.6563   0.8437    0.737     O
O        0.657   0.2544   0.0997     O
O        0.657   0.7456   0.5997     O
O       0.6603   0.0516   0.1296     O
O       0.6603   0.9484   0.6296     O
O       0.6721   0.3059   0.2101     O
O       0.6721   0.6941   0.7101     O
C        0.678   0.3011   0.1392     C
C        0.678   0.6989   0.6392     C
H       0.6781   0.2911   0.4953     H
H       0.6781   0.7089   0.9953     H
O       0.6922   0.0523   0.3804     O
O       0.6922   0.9477   0.8804     O
H        0.694   0.0077   0.5108     H
H        0.694   0.9923   0.0108     H
O       0.6941   0.3279   0.7101     O
O       0.6941   0.6721   0.2101     O
C       0.6989    0.322   0.6392     C
C       0.6989    0.678   0.1392     C
H       0.7089   0.3219   0.9953     H
H       0.7089   0.6781   0.4953     H
C       0.7091   0.0192   0.1533     C
C       0.7091   0.9808   0.6533     C
C       0.7128   0.3573   0.1017     C
C       0.7128   0.6427   0.6017     C
C       0.7183   0.0411   0.5333     C
C       0.7183   0.9589   0.0333     C
H        0.724   0.4118   0.1947     H
H        0.724   0.5882   0.6947     H
C       0.7242   0.3569   0.0239     C
C       0.7242   0.6431   0.5239     C
C       0.7304   0.0391   0.6102     C
C       0.7304   0.9609   0.1102     C
C       0.7321   0.0912   0.4077     C
C       0.7321   0.9088   0.9077     C
O        0.733   0.3696   0.8686     O
O        0.733   0.6304   0.3686     O
C       0.7337     0.41    0.144     C
C       0.7337     0.59    0.644     C
Zn     0.74159  0.11757  0.26401    Zn
Zn     0.74159  0.88243  0.76401    Zn
C       0.7425   0.0928   0.4904     C
C       0.7425   0.9072   0.9904     C
O       0.7428   0.0331   0.2119     O
O       0.7428   0.9669   0.7119     O
O       0.7456    0.343   0.5997     O
O       0.7456    0.657   0.0997     O
O       0.7544    0.157   0.0997     O
O       0.7544    0.843   0.5997     O
O       0.7572   0.4669   0.7119     O
O       0.7572   0.5331   0.2119     O
C       0.7575   0.4072   0.9904     C
C       0.7575   0.5928   0.4904     C
Zn     0.75841  0.38243  0.76401    Zn
Zn     0.75841  0.61757  0.26401    Zn
C       0.7663     0.09    0.644     C
C       0.7663     0.91    0.144     C
O        0.767   0.1304   0.3686     O
O        0.767   0.8696   0.8686     O
C       0.7679   0.4088   0.9077     C
C       0.7679   0.5912   0.4077     C
C       0.7696   0.4609   0.1102     C
C       0.7696   0.5391   0.6102     C
C       0.7758   0.1431   0.5239     C
C       0.7758   0.8569   0.0239     C
H        0.776   0.0882   0.6947     H
H        0.776   0.9118   0.1947     H
C       0.7817   0.4589   0.0333     C
C       0.7817   0.5411   0.5333     C
C       0.7872   0.1427   0.6017     C
C       0.7872   0.8573   0.1017     C
C       0.7909   0.4808   0.6533     C
C       0.7909   0.5192   0.1533     C
H       0.7911   0.1781   0.4953     H
H       0.7911   0.8219   0.9953     H
C       0.8011    0.178   0.1392     C
C       0.8011    0.822   0.6392     C
O       0.8059   0.1721   0.2101     O
O       0.8059   0.8279   0.7101     O
H        0.806   0.4923   0.0108     H
H        0.806   0.5077   0.5108     H
O       0.8078   0.4477   0.8804     O
O       0.8078   0.5523   0.3804     O
H       0.8219   0.2089   0.9953     H
H       0.8219   0.7911   0.4953     H
C        0.822   0.1989   0.6392     C
C        0.822   0.8011   0.1392     C
O       0.8279   0.1941   0.7101     O
O       0.8279   0.8059   0.2101     O
O       0.8397   0.4484   0.6296     O
O       0.8397   0.5516   0.1296     O
O        0.843   0.2456   0.5997     O
O        0.843   0.7544   0.0997     O
O       0.8437   0.3437    0.737     O
O       0.8437   0.6563    0.237     O
Co     0.84706  0.34706  0.61906    Co
Co     0.84706  0.65294  0.11906    Co
C       0.8569   0.2242   0.0239     C
C       0.8569   0.7758   0.5239     C
C       0.8573   0.2128   0.1017     C
C       0.8573   0.7872   0.6017     C
O       0.8696    0.233   0.8686     O
O       0.8696    0.767   0.3686     O
Zn     0.88243  0.25841  0.76401    Zn
Zn     0.88243  0.74159  0.26401    Zn
C       0.9072   0.2575   0.9904     C
C       0.9072   0.7425   0.4904     C
C       0.9088   0.2679   0.9077     C
C       0.9088   0.7321   0.4077     C
C         0.91   0.2337    0.144     C
C         0.91   0.7663    0.644     C
H       0.9118    0.224   0.1947     H
H       0.9118    0.776   0.6947     H
O       0.9477   0.3078   0.8804     O
O       0.9477   0.6922   0.3804     O
O       0.9484   0.3397   0.6296     O
O       0.9484   0.6603   0.1296     O
C       0.9589   0.2817   0.0333     C
C       0.9589   0.7183   0.5333     C
C       0.9609   0.2696   0.1102     C
C       0.9609   0.7304   0.6102     C
O       0.9669   0.2572   0.7119     O
O       0.9669   0.7428   0.2119     O
C       0.9808   0.2909   0.6533     C
C       0.9808   0.7091   0.1533     C
H       0.9923    0.306   0.0108     H
H       0.9923    0.694   0.5108     H
