data_I
_chemical_name_common  '/home/zhangsd/repos/MofS-CGCNN/ML/data/TSD/clean_cifs/EWUKEO_clean'
_cell_length_a 18.38900
_cell_length_b 18.38900
_cell_length_c 17.96900
_cell_angle_alpha 90.00000
_cell_angle_beta  90.00000
_cell_angle_gamma 120.00000
_space_group_name_H-M_alt      'P 1'


loop_
_space_group_symop_operation_xyz
  'x, y, z' 

loop_
_atom_site_label
_atom_site_fract_x
_atom_site_fract_y
_atom_site_fract_z
_atom_site_type_symbol
H          0.0  0.18475    0.743     H
C          0.0   0.1963   0.6921     C
C          0.0    0.222   0.5394     C
C          0.0   0.2398   0.4604     C
O          0.0   0.3429   0.2921     O
Co         0.0  0.34934   0.1754    Co
Co         0.0  0.65066   0.6754    Co
O          0.0   0.6571   0.7921     O
C          0.0   0.7602   0.9604     C
C          0.0    0.778   0.0394     C
C          0.0   0.8037   0.1921     C
H          0.0  0.81525    0.243     H
O       0.0691   0.2814   0.4293     O
O       0.0691   0.7877   0.9293     O
C       0.0758   0.2537   0.5776     C
C       0.0758   0.8221   0.0776     C
C       0.0769   0.2434    0.654     C
C       0.0769   0.8335    0.154     C
O        0.093   0.3156   0.1627     O
O        0.093   0.7774   0.6627     O
Zn     0.09833  0.34142  0.33316    Zn
Zn     0.09833  0.75691  0.83316    Zn
O       0.1181    0.487   0.3809     O
O       0.1181   0.6311   0.8809     O
O       0.1201    0.271   0.2669     O
O       0.1201   0.8491   0.7669     O
C        0.123   0.2782   0.1968     C
C        0.123   0.8448   0.6968     C
H       0.1267   0.2824   0.5513     H
H       0.1267   0.8443   0.0513     H
O       0.1509    0.271   0.7669     O
O       0.1509   0.8799   0.2669     O
C       0.1552   0.2782   0.6968     C
C       0.1552    0.877   0.1968     C
H       0.1557   0.2824   0.0513     H
H       0.1557   0.8733   0.5513     H
C       0.1665   0.2434    0.154     C
C       0.1665   0.9231    0.654     C
C       0.1779   0.2537   0.0776     C
C       0.1779   0.9242   0.5776     C
H      0.18475      0.0    0.743     H
H      0.18475  0.18475    0.243     H
C        0.188   0.4963   0.3707     C
C        0.188   0.6917   0.8707     C
C       0.1963      0.0   0.6921     C
C       0.1963   0.1963   0.1921     C
H       0.1979   0.5525   0.8775     H
H       0.1979   0.6454   0.3775     H
O       0.2035   0.4432   0.3499     O
O       0.2035   0.7603   0.8499     O
O       0.2123   0.2814   0.9293     O
O       0.2123   0.9309   0.4293     O
C        0.222      0.0   0.5394     C
C        0.222    0.222   0.0394     C
O       0.2226   0.3156   0.6627     O
O       0.2226    0.907   0.1627     O
O       0.2397   0.4432   0.8499     O
O       0.2397   0.7965   0.3499     O
C       0.2398      0.0   0.4604     C
C       0.2398   0.2398   0.9604     C
Zn     0.24309  0.34142  0.83316    Zn
Zn     0.24309  0.90167  0.33316    Zn
C       0.2434   0.0769    0.654     C
C       0.2434   0.1665    0.154     C
C       0.2526    0.599   0.8772     C
C       0.2526   0.6536   0.3772     C
C       0.2537   0.0758   0.5776     C
C       0.2537   0.1779   0.0776     C
C       0.2643   0.5868    0.377     C
C       0.2643   0.6775    0.877     C
O        0.271   0.1201   0.2669     O
O        0.271   0.1509   0.7669     O
C       0.2782    0.123   0.1968     C
C       0.2782   0.1552   0.6968     C
O       0.2814   0.0691   0.4293     O
O       0.2814   0.2123   0.9293     O
H       0.2824   0.1267   0.5513     H
H       0.2824   0.1557   0.0513     H
C       0.3083   0.4963   0.8707     C
C       0.3083    0.812   0.3707     C
O       0.3156    0.093   0.1627     O
O       0.3156   0.2226   0.6627     O
C       0.3225   0.5868    0.877     C
C       0.3225   0.7357    0.377     C
Zn     0.34142  0.09833  0.33316    Zn
Zn     0.34142  0.24309  0.83316    Zn
O       0.3429      0.0   0.2921     O
O       0.3429   0.3429   0.7921     O
C       0.3464    0.599   0.3772     C
C       0.3464   0.7474   0.8772     C
Co     0.34934      0.0   0.1754    Co
Co     0.34934  0.34934   0.6754    Co
H       0.3546   0.5525   0.3775     H
H       0.3546   0.8021   0.8775     H
O       0.3689    0.487   0.8809     O
O       0.3689   0.8819   0.3809     O
C        0.401   0.6536   0.8772     C
C        0.401   0.7474   0.3772     C
C       0.4132   0.6775    0.377     C
C       0.4132   0.7357    0.877     C
O       0.4432   0.2035   0.3499     O
O       0.4432   0.2397   0.8499     O
H       0.4475   0.6454   0.8775     H
H       0.4475   0.8021   0.3775     H
O        0.487   0.1181   0.3809     O
O        0.487   0.3689   0.8809     O
C       0.4963    0.188   0.3707     C
C       0.4963   0.3083   0.8707     C
C       0.5037   0.6917   0.3707     C
C       0.5037    0.812   0.8707     C
O        0.513   0.6311   0.3809     O
O        0.513   0.8819   0.8809     O
H       0.5525   0.1979   0.8775     H
H       0.5525   0.3546   0.3775     H
O       0.5568   0.7603   0.3499     O
O       0.5568   0.7965   0.8499     O
C       0.5868   0.2643    0.377     C
C       0.5868   0.3225    0.877     C
C        0.599   0.2526   0.8772     C
C        0.599   0.3464   0.3772     C
O       0.6311   0.1181   0.8809     O
O       0.6311    0.513   0.3809     O
H       0.6454   0.1979   0.3775     H
H       0.6454   0.4475   0.8775     H
Co     0.65066      0.0   0.6754    Co
Co     0.65066  0.65066   0.1754    Co
C       0.6536   0.2526   0.3772     C
C       0.6536    0.401   0.8772     C
O       0.6571      0.0   0.7921     O
O       0.6571   0.6571   0.2921     O
Zn     0.65858  0.75691  0.33316    Zn
Zn     0.65858  0.90167  0.83316    Zn
C       0.6775   0.2643    0.877     C
C       0.6775   0.4132    0.377     C
O       0.6844   0.7774   0.1627     O
O       0.6844    0.907   0.6627     O
C       0.6917    0.188   0.8707     C
C       0.6917   0.5037   0.3707     C
H       0.7176   0.8443   0.5513     H
H       0.7176   0.8733   0.0513     H
O       0.7186   0.7877   0.4293     O
O       0.7186   0.9309   0.9293     O
C       0.7218   0.8448   0.1968     C
C       0.7218    0.877   0.6968     C
O        0.729   0.8491   0.2669     O
O        0.729   0.8799   0.7669     O
C       0.7357   0.3225    0.377     C
C       0.7357   0.4132    0.877     C
C       0.7463   0.8221   0.5776     C
C       0.7463   0.9242   0.0776     C
C       0.7474   0.3464   0.8772     C
C       0.7474    0.401   0.3772     C
C       0.7566   0.8335    0.654     C
C       0.7566   0.9231    0.154     C
Zn     0.75691  0.09833  0.83316    Zn
Zn     0.75691  0.65858  0.33316    Zn
C       0.7602      0.0   0.9604     C
C       0.7602   0.7602   0.4604     C
O       0.7603   0.2035   0.8499     O
O       0.7603   0.5568   0.3499     O
O       0.7774    0.093   0.6627     O
O       0.7774   0.6844   0.1627     O
C        0.778      0.0   0.0394     C
C        0.778    0.778   0.5394     C
O       0.7877   0.0691   0.9293     O
O       0.7877   0.7186   0.4293     O
O       0.7965   0.2397   0.3499     O
O       0.7965   0.5568   0.8499     O
H       0.8021   0.3546   0.8775     H
H       0.8021   0.4475   0.3775     H
C       0.8037      0.0   0.1921     C
C       0.8037   0.8037   0.6921     C
C        0.812   0.3083   0.3707     C
C        0.812   0.5037   0.8707     C
H      0.81525      0.0    0.243     H
H      0.81525  0.81525    0.743     H
C       0.8221   0.0758   0.0776     C
C       0.8221   0.7463   0.5776     C
C       0.8335   0.0769    0.154     C
C       0.8335   0.7566    0.654     C
H       0.8443   0.1267   0.0513     H
H       0.8443   0.7176   0.5513     H
C       0.8448    0.123   0.6968     C
C       0.8448   0.7218   0.1968     C
O       0.8491   0.1201   0.7669     O
O       0.8491    0.729   0.2669     O
H       0.8733   0.1557   0.5513     H
H       0.8733   0.7176   0.0513     H
C        0.877   0.1552   0.1968     C
C        0.877   0.7218   0.6968     C
O       0.8799   0.1509   0.2669     O
O       0.8799    0.729   0.7669     O
O       0.8819   0.3689   0.3809     O
O       0.8819    0.513   0.8809     O
Zn     0.90167  0.24309  0.33316    Zn
Zn     0.90167  0.65858  0.83316    Zn
O        0.907   0.2226   0.1627     O
O        0.907   0.6844   0.6627     O
C       0.9231   0.1665    0.654     C
C       0.9231   0.7566    0.154     C
C       0.9242   0.1779   0.5776     C
C       0.9242   0.7463   0.0776     C
O       0.9309   0.2123   0.4293     O
O       0.9309   0.7186   0.9293     O
