data_I
_chemical_name_common  '/home/zhangsd/repos/MofS-CGCNN/ML/data/TSD/clean_cifs/EWUSUL_clean'
_cell_length_a 19.57150
_cell_length_b 19.57160
_cell_length_c 31.96490
_cell_angle_alpha 74.85530
_cell_angle_beta  74.85540
_cell_angle_gamma 98.43070
_space_group_name_H-M_alt      'P 1'


loop_
_space_group_symop_operation_xyz
  'x, y, z' 

loop_
_atom_site_label
_atom_site_fract_x
_atom_site_fract_y
_atom_site_fract_z
_atom_site_type_symbol
H       0.0007   0.9097   0.9704     H
H         0.01   0.7022   0.4828     H
C       0.0126   0.9232   0.4452     C
C       0.0171   0.3455   0.5064     C
C       0.0175   0.6007   0.4902     C
C        0.018   0.4086   0.0206     C
C       0.0183   0.4709   0.4968     C
C        0.026   0.8816   0.5166     C
H       0.0279   0.9543   0.4154     H
H       0.0289   0.6199   0.9704     H
C       0.0291   0.4817   0.0032     C
C       0.0303   0.1761   0.4734     C
C       0.0323   0.9849   0.9968     C
C       0.0386   0.9292   0.9794     C
H       0.0429   0.2111   0.4448     H
C       0.0474   0.9342   0.4762     C
C       0.0493   0.1393   0.5386     C
H       0.0497   0.8845    0.538     H
H       0.0633   0.3245   0.0394     H
H       0.0681   0.6125   0.4786     H
N       0.0684    0.187   0.5002     N
C       0.0742   0.3746   0.0258     C
H       0.0764    0.144    0.558     H
N       0.0892   0.3586    0.488     N
C       0.0909   0.0077   0.0098     C
H       0.0911   0.0467   0.0214     H
C       0.0914    0.482   0.4794     C
H       0.0994    0.051   0.4006     H
C          0.1   0.9004   0.9742     C
C       0.1007   0.5175   0.9902     C
H       0.1027   0.8639   0.9606     H
C       0.1064   0.9964   0.4634     C
H       0.1125   0.5681   0.9786     H
H       0.1199   0.5289   0.4704     H
C       0.1244   0.0536   0.4214     C
C       0.1254   0.4258   0.4742     C
H        0.138    0.975   0.5196     H
N       0.1414   0.4108    0.012     N
Cu     0.14683  0.27717  0.48492    Cu
C       0.1481   0.9765   0.0064     C
C       0.1482   0.0088    0.491     C
N       0.1534   0.9228    0.988     N
C       0.1545   0.4829   0.9936     C
Cl     0.16825  0.83545   0.5877    Cl
S      0.17179  0.80343  0.46742     S
H       0.1755   0.4367   0.4606     H
C       0.1792    0.112   0.4124     C
Cu     0.18462  0.76914   0.5375    Cu
H        0.185   0.9928   0.0172     H
S      0.18744  0.26552  0.08408     S
S      0.18777  0.75581  0.03768     S
H       0.1883   0.1489   0.3852     H
W      0.18895  0.20895  0.03112     W
H       0.1945   0.1639   0.1818     H
H       0.2022     0.51   0.9828     H
C       0.2039   0.0691   0.4772     C
S      0.20651  0.27455  0.53768     S
H       0.2111   0.1059   0.2496     H
W      0.22007  0.74007  0.96888     W
N       0.2208    0.123   0.4374     N
H       0.2216   0.0552    0.311     H
Cu     0.22283  0.35317  0.01508    Cu
S      0.22545  0.29349  0.96232     S
H       0.2262   0.9784   0.3818     H
H       0.2314    0.073   0.4966     H
C       0.2326   0.1408   0.1818     C
S      0.23448  0.31256  0.41592     S
Cu     0.23791  0.86825  0.98492    Cu
W      0.24007  0.72007  0.46888     W
C        0.241   0.1012    0.223     C
Cl     0.24405  0.07685   0.5877    Cl
C       0.2496   0.0206   0.3106     C
C        0.252   0.9724   0.3546     C
S      0.25581  0.68777  0.53768     S
Cu     0.26914  0.68462   0.0375    Cu
S      0.27085  0.13921  0.03258     S
S      0.27152   0.8496  0.91592     S
H        0.272   0.9304   0.4966     H
Cu     0.27788  0.19336   0.5375    Cu
Cu     0.27852  0.20394  0.08206    Cu
N       0.2791   0.1445   0.1438     N
C       0.2859   0.0157   0.2714     C
Cu       0.286  0.86058  0.41794    Cu
C       0.2871   0.0573   0.2286     C
N       0.2883   0.9229   0.3562     N
H       0.2889   0.4571   0.0552     H
W      0.29105  0.31105  0.46888     W
Cu     0.29606  0.22148  0.41794    Cu
H        0.298   0.8656    0.058     H
S      0.30343  0.67179  0.96742     S
Cu     0.30664  0.22212   0.9625    Cu
N       0.3128   0.9314   0.0002     N
N        0.313   0.4316   0.9998     N
C       0.3189   0.9537   0.4772     C
C       0.3221   0.9121   0.0386     C
C       0.3226   0.9144   0.3182     C
C       0.3239   0.4697   0.0266     C
C       0.3242    0.964    0.277     C
C        0.327   0.1066   0.1454     C
C       0.3312   0.0602   0.1894     C
Cl     0.33545  0.66825   0.0877    Cl
H       0.3361   0.3055   0.3182     H
N       0.3418   0.9396   0.4374     N
H       0.3424   0.0054   0.5196     H
H       0.3441   0.0123   0.9448     H
H       0.3457   0.8763   0.3182     H
S       0.3496  0.77152  0.41592     S
C       0.3505   0.9963   0.9734     C
H       0.3511   0.3117   0.1148     H
N       0.3555   0.2209   0.3562     N
H       0.3555   0.9607   0.2504     H
H        0.356   0.4236    0.942     H
C       0.3592   0.2674   0.3182     C
H       0.3602    0.108   0.1182     H
Cu     0.36058    0.786  0.91794    Cu
C       0.3607   0.4507   0.9614     C
S      0.36079  0.22915  0.46742     S
C       0.3608   0.0002    0.491     C
H       0.3639   0.6027   0.4606     H
H       0.3656    0.798    0.558     H
H       0.3662   0.0326    0.189     H
Cu     0.36825  0.73791  0.48492    Cu
C       0.3684   0.9578   0.0548     C
H       0.3697   0.9433   0.0846     H
H       0.3763   0.8457   0.8182     H
N        0.377   0.2792   0.0626     N
C       0.3816    0.526   0.0166     C
H       0.3845   0.5497    0.038     H
C        0.388   0.3208   0.0876     C
H        0.392   0.1398   0.3818     H
C       0.3934    0.173   0.3546     C
H       0.3941   0.2889   0.2504     H
C       0.3982   0.0426   0.9834     C
C       0.3988    0.259    0.277     C
C       0.4004      0.6   0.4742     C
C       0.4084   0.9756   0.4124     C
H       0.4097   0.5007   0.4704     H
C       0.4104   0.0236   0.0238     C
C       0.4121   0.8221   0.5386     C
H       0.4123   0.0775    0.538     H
C       0.4144   0.8226   0.8182     C
H       0.4225   0.0877    0.962     H
N       0.4228   0.6534    0.488     N
N       0.4229   0.7883   0.8562     N
Cl     0.42315  0.25595   0.9123    Cl
C       0.4232   0.5126   0.9452     C
H       0.4265   0.9659   0.3852     H
H        0.427   0.2686   0.0034     H
C       0.4292   0.5386   0.4794     C
C       0.4302   0.0402   0.4634     C
H       0.4304    0.772   0.9966     H
C       0.4309   0.2961   0.0228     C
N       0.4314   0.8128   0.5002     N
C       0.4342   0.5474   0.9762     C
N       0.4396   0.8418   0.9374     N
C       0.4398   0.1688   0.3106     C
C       0.4427   0.2129   0.2714     C
H       0.4433   0.8697   0.5846     H
H       0.4448   0.2784    0.189     H
C       0.4464   0.3756   0.0786     C
H        0.449   0.4006   0.0994     H
H       0.4516     -0.0   0.0994     H
H       0.4533   0.4089   0.4786     H
C       0.4537   0.8189   0.9772     C
C       0.4542    0.025   0.4214     C
H       0.4543   0.5279   0.9154     H
C       0.4574   0.1018   0.5166     C
C       0.4578   0.8684   0.5548     C
C       0.4598   0.0698   0.0366     C
H       0.4607   0.8555   0.7504     H
C        0.464   0.8242    0.777     C
H       0.4659   0.9265   0.8852     H
H       0.4674   0.1338    0.311     H
C       0.4724    0.752   0.8546     C
C        0.475   0.0458   0.0786     C
H        0.475    0.638   0.0196     H
C       0.4756   0.9084   0.9124     C
C       0.4764   0.0896   0.4762     C
C       0.4765   0.6481   0.5064     C
H       0.4784   0.7262   0.8818     H
C       0.4794   0.2504   0.1894     C
C       0.4843   0.2141   0.2286     C
C       0.4849   0.5323   0.4968     C
H       0.4877   0.1559   0.5552     H
C       0.4912   0.3518    0.009     C
C       0.4923   0.4091   0.4902     C
H       0.4928    0.685   0.5172     H
H       0.4946   0.1576   0.9804     H
C       0.4963   0.8505   0.4734     C
C       0.4964   0.6064   0.9634     C
C       0.4998   0.1392    0.009     C
H          0.5   0.0484   0.4006     H
H          0.5   0.9516   0.5994     H
C       0.5002   0.8608    0.991     C
C       0.5036   0.3936   0.0366     C
C       0.5037   0.1495   0.5266     C
H       0.5054   0.8424   0.0196     H
H       0.5072    0.315   0.4828     H
C       0.5077   0.5909   0.5098     C
C       0.5088   0.6482    0.991     C
H       0.5123   0.8441   0.4448     H
C       0.5151   0.4677   0.5032     C
C       0.5157   0.7859   0.7714     C
C       0.5206   0.7496   0.8106     C
H       0.5216   0.2738   0.1182     H
C       0.5235   0.3519   0.4936     C
C       0.5236   0.9104   0.5238     C
C       0.5244   0.0916   0.0876     C
H        0.525    0.362   0.9804     H
C        0.525   0.9542   0.9214     C
C       0.5276    0.248   0.1454     C
H       0.5326   0.8662    0.689     H
H       0.5341   0.0735   0.1148     H
C        0.536   0.1758    0.223     C
H       0.5393   0.1445   0.2496     H
C       0.5402   0.9302   0.9634     C
C       0.5422   0.1316   0.4452     C
C       0.5426   0.8982   0.4834     C
H       0.5457   0.4721   0.0846     H
C       0.5458    0.975   0.5786     C
C       0.5463   0.1811   0.0228     C
H       0.5467   0.5911   0.5214     H
H       0.5484     -0.0   0.9006     H
H        0.551   0.5994   0.9006     H
C       0.5536   0.6244   0.9214     C
H       0.5552   0.7216    0.811     H
H       0.5567   0.1303   0.4154     H
C       0.5573   0.7871   0.7286     C
C       0.5602   0.8312   0.6894     C
N       0.5604   0.1582   0.0626     N
C       0.5658   0.4526   0.0238     C
N       0.5686   0.1872   0.4998     N
C       0.5691   0.7039   0.9772     C
H       0.5696    0.228   0.0034     H
C       0.5698   0.9598   0.5366     C
C       0.5708   0.4614   0.5206     C
H        0.573   0.7314   0.9966     H
H       0.5735   0.0341   0.6148     H
C       0.5768   0.4874   0.0548     C
Cl     0.57685  0.74405   0.0877    Cl
N       0.5771   0.2117   0.1438     N
N       0.5772   0.3466    0.512     N
H       0.5775   0.9123    0.038     H
C       0.5856   0.1774   0.1818     C
H       0.5877   0.9225    0.462     H
C       0.5879   0.1779   0.4614     C
C       0.5896   0.9764   0.9762     C
H       0.5903   0.4993   0.5296     H
C       0.5916   0.0244   0.5876     C
C       0.5996      0.4   0.5258     C
C       0.6012    0.741    0.723     C
C       0.6018   0.9574   0.0166     C
H       0.6059   0.7111   0.7496     H
C       0.6066    0.827   0.6454     C
H        0.608   0.8602   0.6182     H
C        0.612   0.6792   0.9124     C
H       0.6155   0.4503    0.962     H
C       0.6184    0.474   0.9834     C
N        0.623   0.7208   0.9374     N
H       0.6237   0.1543   0.1818     H
H       0.6303   0.0567   0.9154     H
C       0.6316   0.0422   0.9452     C
Cu     0.63175  0.26209  0.51508    Cu
H       0.6338   0.9674    0.811     H
H       0.6344    0.202    0.442     H
H       0.6361   0.3973   0.5394     H
C       0.6392   0.9998    0.509     C
S      0.63921  0.77085  0.53258     S
C       0.6393   0.5493   0.0386     C
Cu     0.63942    0.214  0.08206    Cu
H       0.6398    0.892   0.8818     H
C       0.6408   0.7326   0.6818     C
H        0.644   0.5764    0.058     H
H       0.6445   0.0393   0.7496     H
N       0.6445   0.7791   0.6438     N
H       0.6489   0.6883   0.8852     H
C       0.6495   0.0037   0.0266     C
S       0.6504  0.22848  0.58408     S
H       0.6543   0.1237   0.6818     H
H       0.6559   0.9877   0.0552     H
H       0.6576   0.9946   0.4804     H
N       0.6582   0.0604   0.5626     N
H       0.6639   0.6945   0.6818     H
Cl     0.66455  0.33175   0.9123    Cl
C       0.6688   0.9398   0.8106     C
C        0.673   0.8934   0.8546     C
C       0.6758    0.036    0.723     C
C       0.6761   0.5303   0.9734     C
C       0.6774   0.0856   0.6818     C
C       0.6779   0.0879   0.9614     C
C       0.6811   0.0463   0.5228     C
N        0.687   0.5684   0.0002     N
N       0.6872   0.0686   0.9998     N
Cu     0.69336  0.77788   0.0375    Cu
S      0.69657  0.32821  0.03258     S
H        0.702   0.1344    0.942     H
Cu     0.70394  0.77852  0.58206    Cu
W      0.70895  0.68895  0.53112     W
H       0.7111   0.5429   0.9448     H
N       0.7117   0.0771   0.6438     N
C       0.7129   0.9427   0.7714     C
Cu       0.714  0.13942  0.58206    Cu
C       0.7141   0.9843   0.7286     C
N       0.7209   0.8555   0.8562     N
Cu     0.72148  0.79606  0.91794    Cu
Cu     0.72212  0.80664   0.4625    Cu
H        0.728   0.0696   0.5034     H
S      0.72848   0.1504  0.08408     S
S      0.72915  0.86079  0.96742     S
Cu     0.73086  0.31538   0.9625    Cu
S      0.74419  0.31223  0.46232     S
C        0.748   0.0276   0.6454     C
C       0.7504   0.9794   0.6894     C
Cl     0.75595  0.92315   0.4123    Cl
C        0.759   0.8988    0.777     C
W      0.75993  0.27993  0.53112     W
Cu     0.76209  0.13175  0.01508    Cu
S      0.76552  0.68744  0.58408     S
C       0.7674   0.8592   0.8182     C
H       0.7686    0.927   0.5034     H
H       0.7738   0.0216   0.6182     H
S      0.77455  0.70651  0.03768     S
Cu     0.77717  0.64683  0.98492    Cu
H       0.7784   0.9448    0.689     H
N       0.7792    0.877   0.5626     N
W      0.77993  0.25993  0.03112     W
H       0.7889   0.8941   0.7504     H
S      0.79349  0.72545  0.46232     S
C       0.7961   0.9309   0.5228     C
H       0.7978     0.49   0.0172     H
H       0.8055   0.8361   0.8182     H
W      0.81105  0.79105  0.96888     W
H       0.8117   0.8511   0.6148     H
S      0.81223  0.24419  0.96232     S
S      0.81256  0.73448  0.91592     S
H        0.815   0.0072   0.9828     H
Cu     0.81538  0.23086   0.4625    Cu
C       0.8208    0.888   0.5876     C
H       0.8245   0.5633   0.5394     H
S      0.82821  0.19657  0.53258     S
Cl     0.83175  0.16455   0.4123    Cl
C       0.8455   0.5171   0.0064     C
N       0.8466   0.0772    0.012     N
C       0.8518   0.9912    0.509     C
C       0.8519   0.0235   0.9936     C
Cu     0.85317  0.72283  0.51508    Cu
N       0.8586   0.5892    0.988     N
H        0.862    0.025   0.4804     H
C       0.8746   0.5742   0.5258     C
C       0.8756   0.9464   0.5786     C
H       0.8801   0.4711   0.5296     H
H       0.8875   0.4319   0.0214     H
C       0.8936   0.0036   0.5366     C
H       0.8973   0.1361   0.0394     H
C       0.8993   0.4825   0.0098     C
C          0.9   0.0996   0.0258     C
H       0.9006    0.949   0.5994     H
C       0.9086    0.518   0.5206     C
H       0.9089   0.9533   0.9786     H
C       0.9091   0.9923   0.9902     C
N       0.9108   0.6414    0.512     N
H       0.9236    0.856    0.442     H
C       0.9258   0.6254   0.9742     C
N       0.9316    0.813   0.4998     N
H       0.9319   0.3875   0.5214     H
H       0.9367   0.6755   0.9606     H
H       0.9503   0.1155    0.462     H
C       0.9507   0.8607   0.4614     C
C       0.9526   0.0658   0.5238     C
H       0.9571   0.7889   0.5552     H
C       0.9614   0.0708   0.0206     C
C       0.9677   0.0151   0.0032     C
C       0.9697   0.8239   0.5266     C
C       0.9709   0.5183   0.9968     C
H       0.9711   0.3801   0.0296     H
H       0.9721   0.0457   0.5846     H
C        0.974   0.1184   0.4834     C
C       0.9817   0.5291   0.5032     C
C        0.982   0.5914   0.9794     C
C       0.9825   0.3993   0.5098     C
C       0.9829   0.6545   0.4936     C
C       0.9874   0.0768   0.5548     C
H         0.99   0.2978   0.5172     H
H       0.9993   0.0903   0.0296     H
