data_I
_chemical_name_common  '/home/zhangsd/repos/MofS-CGCNN/ML/data/TSD/clean_cifs/EWUSOF_clean'
_cell_length_a 19.57000
_cell_length_b 19.57000
_cell_length_c 31.88520
_cell_angle_alpha 105.20400
_cell_angle_beta  105.20400
_cell_angle_gamma 98.36040
_space_group_name_H-M_alt      'P 1'


loop_
_space_group_symop_operation_xyz
  'x, y, z' 

loop_
_atom_site_label
_atom_site_fract_x
_atom_site_fract_y
_atom_site_fract_z
_atom_site_type_symbol
C       0.0006   0.8918    0.962     C
H        0.001   0.5516   0.5986     H
C       0.0017   0.3623   0.0088     C
C       0.0038   0.6478   0.4726     C
H       0.0056   0.8146   0.5156     H
C       0.0071   0.1465   0.0088     C
C       0.0082   0.0918   0.4906     C
H       0.0099   0.3445    0.981     H
C       0.0111   0.2839   0.2262     C
H       0.0116    0.347   0.5564     H
C       0.0149   0.9659   0.4966     C
C       0.0161   0.2519   0.1882     C
H       0.0173   0.7729   0.8792     H
C         0.02   0.5904   0.9102     C
C       0.0229   0.4101    0.475     C
C       0.0235   0.8525    0.506     C
H       0.0255   0.5737   0.8814     H
C       0.0262   0.7476   0.8528     C
C       0.0277   0.4547   0.0788     C
H       0.0289   0.8635    0.019     H
H       0.0375   0.3639    0.312     H
C       0.0386   0.4298    0.038     C
C       0.0398   0.6758   0.7774     C
C        0.041   0.3982   0.5166     C
H       0.0422    0.977   0.9156     H
C       0.0452   0.6304   0.5552     C
C       0.0453   0.4723   0.4212     C
H       0.0462   0.6472    0.751     H
H        0.047   0.0922   0.4788     H
H        0.047   0.0976   0.0986     H
C       0.0483   0.6791   0.9786     C
C       0.0511   0.1241   0.0788     C
H       0.0516    0.501   0.0986     H
H       0.0519   0.2255    0.188     H
C       0.0577   0.2849   0.2738     C
N      0.06135  0.65995   0.9385     N
H       0.0614   0.6266   0.5844     H
C       0.0637   0.3279   0.3118     C
C       0.0649   0.9521    0.975     C
N      0.06818  0.68638  0.50036     N
C       0.0697   0.2005   0.0214     C
C       0.0702   0.4614    0.462     C
C       0.0725   0.9625    0.482     C
H       0.0737   0.5255   0.3814     H
H        0.075   0.7238   0.9998     H
H       0.0752    0.224   0.0002     H
C       0.0752     0.99   0.9448     C
H       0.0768    0.414   0.9618     H
N      0.07836  0.71356  0.85692     N
Cl     0.07897  0.24651  0.91328    Cl
N      0.07897  0.84717  0.48954     N
C       0.0815   0.6765    0.819     C
H        0.086   0.4232   0.5382     H
C       0.0873   0.6757    0.541     C
C       0.0899   0.4771    0.025     C
C       0.0904     0.52   0.4102     C
H       0.0922    0.001   0.4736     H
C       0.1016   0.2376   0.2774     C
C       0.1018    0.459   0.9834     C
H       0.1038   0.2048    0.251     H
C       0.1042    0.902   0.4792     C
C       0.1052   0.3266   0.3528     C
H       0.1063   0.3619   0.3792     H
C       0.1098   0.1802   0.0898     C
H        0.115   0.6474   0.8194     H
H        0.115   0.9522   0.0382     H
C       0.1184   0.9756   0.0166     C
N      0.12285  0.22145   0.0615     N
H       0.1266   0.5614   0.0844     H
C       0.1304   0.5452   0.0552     C
H        0.133    0.701   0.5612     H
Cu     0.13317  0.76215  0.48582    Cu
C       0.1347   0.0463    0.959     C
H       0.1361   0.4625    0.188     H
C       0.1377   0.4983   0.4912     C
H       0.1381   0.3937   0.1208     H
S      0.13944  0.27096  0.46746     S
H       0.1398   0.0718   0.9388     H
Cu     0.14086  0.71438  0.91842    Cu
C       0.1425   0.2375    0.319     C
N      0.14336  0.27856  0.35692     N
H       0.1441   0.1923   0.1186     H
H       0.1451   0.9023   0.4696     H
H       0.1472   0.5462    0.251     H
H       0.1474    0.615   0.3194     H
C       0.1478   0.5038   0.9726     C
S      0.14992  0.72822  0.41622     S
H        0.153   0.4884   0.9436     H
H       0.1555   0.4901    0.519     H
N      0.15995  0.56135   0.4385     N
Cl     0.16569  0.83323  0.08672    Cl
H        0.172   0.2044   0.3194     H
C       0.1721   0.4363   0.1882     C
C       0.1734   0.3948   0.1472     C
C       0.1752   0.0312   0.0274     C
C       0.1757   0.5873    0.041     C
C       0.1758   0.5398   0.2774     C
C       0.1765   0.5815    0.319     C
C       0.1791   0.5483   0.4786     C
N      0.18602  0.06782  0.99964     N
N      0.18638  0.56818  0.00036     N
Cu     0.19358  0.27752   0.9624    Cu
S       0.1965  0.82802  0.96746     S
H        0.201    0.633   0.0612     H
Cu     0.20404  0.27756  0.41842    Cu
Mo      0.2091  0.18854  0.46924    Mo
H       0.2094   0.0448   0.0564     H
N      0.21356  0.57836  0.35692     N
Cu     0.21438  0.64086  0.41842    Cu
C       0.2151   0.4423   0.2262     C
C       0.2161   0.4889   0.2738     C
N      0.22144  0.35664  0.14308     N
Cu     0.22244  0.29596  0.08158    Cu
Cu     0.22248  0.30642   0.5376    Cu
H       0.2238    0.575   0.4998     H
S      0.22822  0.64992  0.91622     S
S      0.22904  0.36056  0.03254     S
Cu     0.23118  0.81512   0.0376    Cu
S       0.2445  0.81176   0.5389     S
C       0.2476   0.5262   0.3528     C
C       0.2481   0.4839   0.3118     C
Cl     0.25349  0.42103  0.58672    Cl
Mo     0.26014   0.7807  0.46924    Mo
Cu     0.26215  0.63317  0.98582    Cu
C       0.2624   0.3984   0.2226     C
C       0.2625   0.3575    0.181     C
S       0.2663    0.188  0.41622     S
S      0.27286   0.2056   0.9611     S
H       0.2729   0.5173   0.3792     H
H       0.2745   0.4481    0.312     H
H        0.276   0.4248   0.4998     H
Cu     0.27633  0.14735  0.01418    Cu
N      0.27855  0.37715   0.4385     N
Mo      0.2807  0.76014  0.96924    Mo
S       0.2944  0.22714   0.5389     S
H       0.2952   0.3962    0.249     H
H       0.2956    0.328   0.1806     H
H        0.299     0.99   0.9844     H
C       0.2995   0.4303   0.4786     C
H       0.3077   0.3559   0.3814     H
Mo     0.31146   0.2909  0.03076    Mo
S      0.31176   0.7445   0.0389     S
S        0.312   0.2337  0.08378     S
H       0.3146   0.5056   0.0156     H
Cu     0.31512  0.73118   0.5376    Cu
C       0.3198   0.3902   0.4102     C
H       0.3245   0.0673   0.4696     H
S      0.32802   0.6965  0.46746     S
Cl     0.33323  0.66569  0.58672    Cl
C       0.3465   0.0175    0.994     C
N      0.34717  0.57897  0.98954     N
C       0.3525   0.5235    0.006     C
Cu     0.35265  0.22367  0.48582    Cu
C       0.3535   0.4929   0.4912     C
N      0.35763  0.08943  0.01046     N
H       0.3635   0.5289    0.519     H
C        0.375   0.0772   0.4792     C
C       0.3759   0.4489   0.4212     C
H       0.3814   0.9726   0.4736     H
H       0.3866   0.9318   0.9788     H
C       0.3918   0.5006    0.462     C
C       0.3988   0.9824   0.9906     C
C        0.402   0.6042   0.9792     C
H       0.4023   0.6451   0.9696     H
H       0.4024    0.453   0.4014     H
H       0.4078    0.453   0.0212     H
C       0.4082   0.4918   0.0094     C
C       0.4095   0.0195    0.482     C
N      0.41057  0.14237  0.48954     N
C       0.4228    0.125   0.0208     C
H       0.4282   0.3602   0.5612     H
H       0.4318   0.8866   0.4788     H
N      0.43218  0.31398  0.50036     N
H       0.4327   0.1755   0.0304     H
C       0.4521   0.5649    0.475     C
H       0.4522    0.615   0.5382     H
C       0.4537   0.3653    0.541     C
H       0.4552   0.2906   0.4436     H
C       0.4625   0.5725    0.982     C
C       0.4659   0.5149   0.9966     C
C       0.4688   0.3248   0.4726     C
C       0.4693   0.0183   0.0034     C
H       0.4726   0.8814   0.9736     H
C       0.4756   0.6184   0.5166     C
H        0.477   0.5422   0.4156     H
C       0.4805   0.0905    0.018     C
C       0.4817   0.0307   0.4966     C
C       0.4824   0.8988   0.4906     C
C       0.4825   0.1535    0.506     C
C         0.49   0.5752   0.4448     C
H         0.49    0.799   0.4844     H
H        0.499   0.4078   0.0264     H
H        0.501   0.5922   0.9736     H
H         0.51    0.201   0.5156     H
C         0.51   0.4248   0.5552     C
C       0.5175   0.8465    0.494     C
C       0.5176   0.1012   0.5094     C
C       0.5183   0.9693   0.5034     C
C       0.5195   0.9095    0.982     C
H        0.523   0.4578   0.5844     H
C       0.5244   0.3816   0.4834     C
H       0.5274   0.1186   0.0264     H
C       0.5307   0.9817   0.9966     C
C       0.5312   0.6752   0.5274     C
C       0.5341   0.4851   0.0034     C
C       0.5375   0.4275    0.018     C
H       0.5448   0.7094   0.5564     H
C       0.5463   0.6347    0.459     C
H       0.5478    0.385   0.4618     H
C       0.5479   0.4351    0.525     C
H       0.5673   0.8245   0.9696     H
N      0.56782  0.68602  0.49964     N
H       0.5682   0.1134   0.5212     H
H       0.5718   0.6398   0.4388     H
C       0.5772    0.875   0.9792     C
N      0.58943  0.85763  0.51046     N
C       0.5905   0.9805    0.518     C
C       0.5918   0.5082   0.9906     C
H       0.5922    0.547   0.9788     H
H       0.5976    0.547   0.5986     H
H       0.5977   0.3549   0.0304     H
C        0.598   0.3958   0.0208     C
C       0.6012   0.0176   0.0094     C
C       0.6082   0.4994    0.538     C
H       0.6134   0.0682   0.0212     H
H       0.6186   0.0274   0.5264     H
C       0.6241   0.5511   0.5788     C
C        0.625   0.9228   0.5208     C
H       0.6365   0.4711    0.481     H
N      0.64237  0.91057  0.98954     N
C       0.6465   0.5071   0.5088     C
Cu     0.64735  0.77633  0.51418    Cu
C       0.6475   0.4765    0.994     C
N      0.65283  0.42103  0.01046     N
C       0.6535   0.9825    0.006     C
Cl     0.66677  0.33431  0.41328    Cl
S      0.67198   0.3035  0.53254     S
H       0.6755   0.9327   0.5304     H
C       0.6802   0.6098   0.5898     C
Cu     0.68488  0.26882   0.4624    Cu
H       0.6854   0.4944   0.9844     H
S        0.688   0.7663  0.91622     S
S      0.68824   0.2555   0.9611     S
Mo     0.68854   0.7091  0.96924    Mo
H       0.6923   0.6441   0.6186     H
C       0.7005   0.5697   0.5214     C
H        0.701     0.01   0.0156     H
H       0.7044    0.672   0.8194     H
H       0.7048   0.6038    0.751     H
S       0.7056  0.77286   0.4611     S
Mo      0.7193  0.23986  0.03076    Mo
N      0.72145  0.62285   0.5615     N
Cu     0.72367  0.85265  0.98582    Cu
H        0.724   0.5752   0.5002     H
H       0.7255   0.5519    0.688     H
H       0.7271   0.4827   0.6208     H
S      0.72714   0.7944   0.0389     S
S       0.7337    0.812  0.58378     S
C       0.7375   0.6425    0.819     C
C       0.7376   0.6016   0.7774     C
Cu     0.73785  0.36683  0.01418    Cu
Mo     0.73986   0.2193  0.53076    Mo
Cl     0.74651  0.57897  0.41328    Cl
C       0.7519   0.5161   0.6882     C
C       0.7524   0.4738   0.6472     C
S       0.7555  0.18824   0.4611     S
Cu     0.76882  0.18488   0.9624    Cu
S      0.77096  0.63944  0.96746     S
S      0.77178  0.35008  0.08378     S
H       0.7762    0.425   0.5002     H
Cu     0.77752  0.69358   0.4624    Cu
Cu     0.77756  0.70404  0.91842    Cu
N      0.77856  0.64336  0.85692     N
C       0.7839   0.5111   0.7262     C
C       0.7849   0.5577   0.7738     C
Cu     0.78562  0.35914  0.58158    Cu
N      0.78644  0.42164  0.64308     N
H       0.7906   0.9552   0.9436     H
Mo      0.7909  0.81146  0.53076    Mo
Cu     0.79596  0.72244  0.58158    Cu
H        0.799    0.367   0.9388     H
S       0.8035  0.17198  0.03254     S
Cu     0.80642  0.72248   0.0376    Cu
N      0.81362  0.43182  0.99964     N
N      0.81398  0.93218  0.00036     N
C       0.8209   0.4517   0.5214     C
C       0.8235   0.4185    0.681     C
C       0.8242   0.4602   0.7226     C
C       0.8243   0.4127    0.959     C
C       0.8248   0.9688   0.9726     C
C       0.8266   0.6052   0.8528     C
C       0.8279   0.5637   0.8118     C
H        0.828   0.7956   0.6806     H
Cl     0.83431  0.16677  0.91328    Cl
N      0.84005  0.43865   0.5615     N
H       0.8445   0.5099    0.481     H
H        0.847   0.5116   0.0564     H
S      0.85008  0.27178  0.58378     S
C       0.8522   0.4962   0.0274     C
H       0.8526    0.385   0.6806     H
H       0.8528   0.4538    0.749     H
H       0.8549   0.0977   0.5304     H
H       0.8559   0.8077   0.8814     H
N      0.85664  0.72144  0.64308     N
C       0.8575   0.7625    0.681     C
Cu     0.85914  0.28562  0.08158    Cu
H       0.8602   0.9282   0.0612     H
S      0.86056  0.72904  0.53254     S
H       0.8619   0.6063   0.8792     H
C       0.8623   0.5017   0.5088     C
H       0.8639   0.5375    0.812     H
C       0.8653   0.9537    0.041     C
Cu     0.86683  0.23785  0.51418    Cu
H        0.867    0.299   0.4388     H
C       0.8696   0.4548   0.9448     C
H       0.8734   0.4386   0.9156     H
N      0.87715  0.77855   0.9385     N
C       0.8816   0.0244   0.9834     C
H        0.885   0.0478   0.9618     H
H        0.885   0.3526   0.1806     H
C       0.8902   0.8198   0.9102     C
H       0.8937   0.6381   0.6208     H
C       0.8948   0.6734   0.6472     C
C       0.8958    0.098   0.5208     C
H       0.8962   0.7952    0.749     H
C       0.8982    0.541   0.0166     C
C       0.8984   0.7624   0.7226     C
H       0.9078    0.999   0.5264     H
C       0.9096     0.48   0.5898     C
C       0.9101   0.5229    0.975     C
C       0.9127   0.3243    0.459     C
H        0.914   0.5768   0.4618     H
C       0.9185   0.3235    0.181     C
N      0.92103  0.15283  0.51046     N
Cl     0.92103  0.75349  0.08672    Cl
N      0.92164  0.28644  0.14308     N
H       0.9232    0.586   0.0382     H
C       0.9248     0.01   0.0552     C
H       0.9248    0.776   0.9998     H
H        0.925   0.2762   0.0002     H
H       0.9263   0.4745   0.6186     H
C       0.9275   0.0375    0.518     C
C       0.9298   0.5386    0.538     C
C       0.9303   0.7995   0.9786     C
N      0.93182  0.31362  0.49964     N
C       0.9351   0.0479    0.025     C
C       0.9363   0.6721   0.6882     C
H       0.9386   0.3734   0.4156     H
N      0.93865  0.34005   0.0615     N
C       0.9423   0.7151   0.7262     C
H       0.9481   0.7745    0.812     H
H       0.9484    0.499   0.9014     H
C       0.9489   0.8759   0.9212     C
C       0.9517   0.3209   0.0214     C
H        0.953   0.9024   0.9014     H
H        0.953   0.9078   0.5212     H
H       0.9538   0.3528    0.249     H
C       0.9547   0.5277   0.5788     C
C       0.9548   0.3696   0.4448     C
H       0.9578    0.023   0.0844     H
C        0.959   0.6018   0.4834     C
C       0.9602   0.3242   0.2226     C
C       0.9614   0.5702    0.962     C
H       0.9625   0.6361    0.688     H
H       0.9711   0.1365    0.981     H
C       0.9723   0.5453   0.9212     C
C       0.9738   0.2524   0.1472     C
H       0.9745   0.4263   0.1186     H
C       0.9765   0.1475    0.494     C
C       0.9771   0.5899    0.525     C
C         0.98   0.4096   0.0898     C
H       0.9827   0.2271   0.1208     H
C       0.9839   0.7481   0.8118     C
C       0.9851   0.0341   0.5034     C
H       0.9884    0.653   0.4436     H
C       0.9889   0.7161   0.7738     C
H       0.9901   0.6555    0.019     H
C       0.9918   0.9082   0.5094     C
C       0.9929   0.8535   0.9912     C
H       0.9944   0.1854   0.4844     H
C       0.9962   0.3522   0.5274     C
C       0.9983   0.6377   0.9912     C
H        0.999   0.4484   0.4014     H
C       0.9994   0.1082    0.038     C
