data_I
_chemical_name_common  '/home/zhangsd/repos/MofS-CGCNN/ML/data/TSD/clean_cifs/EXEXAH_clean'
_cell_length_a  7.16350
_cell_length_b 18.60700
_cell_length_c 18.60700
_cell_angle_alpha 90.00000
_cell_angle_beta  90.00000
_cell_angle_gamma 90.00000
_space_group_name_H-M_alt      'P 1'


loop_
_space_group_symop_operation_xyz
  'x, y, z' 

loop_
_atom_site_label
_atom_site_fract_x
_atom_site_fract_y
_atom_site_fract_z
_atom_site_type_symbol
C          0.0   0.3901   0.8901     C
H       0.0837   0.1784   0.8918     H
H       0.0837   0.3216   0.6082     H
H       0.0837   0.6082   0.3216     H
H       0.0837   0.8918   0.1784     H
N       0.0838   0.1778   0.7036     N
N       0.0838   0.3222   0.7964     N
N       0.0838   0.7036   0.1778     N
N       0.0838   0.7964   0.3222     N
C       0.1316   0.1221   0.6626     C
C       0.1316   0.3779   0.8374     C
C       0.1316   0.6626   0.1221     C
C       0.1316   0.8374   0.3779     C
C       0.1584   0.0368   0.5142     C
C       0.1584   0.4632   0.9858     C
C       0.1584   0.5142   0.0368     C
C       0.1584   0.9858   0.4632     C
H       0.1836   0.1484   0.9627     H
H       0.1836   0.3516   0.5373     H
H       0.1836   0.5373   0.3516     H
H       0.1836   0.9627   0.1484     H
C       0.1951   0.1818   0.9222     C
C       0.1951   0.3182   0.5778     C
C       0.1951   0.5778   0.3182     C
C       0.1951   0.9222   0.1818     C
H       0.2071    0.231   0.9405     H
H       0.2071    0.269   0.5595     H
H       0.2071   0.5595    0.269     H
H       0.2071   0.9405    0.231     H
H       0.2293   0.0236   0.9377     H
H       0.2293   0.4764   0.5623     H
H       0.2293   0.5623   0.4764     H
H       0.2293   0.9377   0.0236     H
Co        0.25     0.25     0.75    Co
Co        0.25     0.75     0.25    Co
H       0.2707   0.0623   0.5236     H
H       0.2707   0.4377   0.9764     H
H       0.2707   0.5236   0.0623     H
H       0.2707   0.9764   0.4377     H
H       0.2929   0.0595    0.731     H
H       0.2929   0.4405    0.769     H
H       0.2929    0.731   0.0595     H
H       0.2929    0.769   0.4405     H
C       0.3049   0.0778   0.6818     C
C       0.3049   0.4222   0.8182     C
C       0.3049   0.6818   0.0778     C
C       0.3049   0.8182   0.4222     C
H       0.3164   0.0373   0.6484     H
H       0.3164   0.4627   0.8516     H
H       0.3164   0.6484   0.0373     H
H       0.3164   0.8516   0.4627     H
C       0.3416   0.0142   0.9632     C
C       0.3416   0.4858   0.5368     C
C       0.3416   0.5368   0.4858     C
C       0.3416   0.9632   0.0142     C
C       0.3684   0.1626   0.8779     C
C       0.3684   0.3374   0.6221     C
C       0.3684   0.6221   0.3374     C
C       0.3684   0.8779   0.1626     C
N       0.4162   0.2036   0.8222     N
N       0.4162   0.2964   0.6778     N
N       0.4162   0.6778   0.2964     N
N       0.4162   0.8222   0.2036     N
H       0.4163   0.1082   0.6784     H
H       0.4163   0.3918   0.8216     H
H       0.4163   0.6784   0.1082     H
H       0.4163   0.8216   0.3918     H
C          0.5   0.0536   0.9464     C
C          0.5   0.1099   0.8901     C
C          0.5   0.3901   0.6099     C
C          0.5   0.4464   0.5536     C
C          0.5   0.5536   0.4464     C
C          0.5   0.6099   0.3901     C
C          0.5   0.8901   0.1099     C
C          0.5   0.9464   0.0536     C
H       0.5837   0.1784   0.6082     H
H       0.5837   0.3216   0.8918     H
H       0.5837   0.6082   0.1784     H
H       0.5837   0.8918   0.3216     H
N       0.5838   0.1778   0.7964     N
N       0.5838   0.3222   0.7036     N
N       0.5838   0.7036   0.3222     N
N       0.5838   0.7964   0.1778     N
C       0.6316   0.1221   0.8374     C
C       0.6316   0.3779   0.6626     C
C       0.6316   0.6626   0.3779     C
C       0.6316   0.8374   0.1221     C
C       0.6584   0.0368   0.9858     C
C       0.6584   0.4632   0.5142     C
C       0.6584   0.5142   0.4632     C
C       0.6584   0.9858   0.0368     C
H       0.6836   0.1484   0.5373     H
H       0.6836   0.3516   0.9627     H
H       0.6836   0.5373   0.1484     H
H       0.6836   0.9627   0.3516     H
C       0.6951   0.1818   0.5778     C
C       0.6951   0.3182   0.9222     C
C       0.6951   0.5778   0.1818     C
C       0.6951   0.9222   0.3182     C
H       0.7071    0.231   0.5595     H
H       0.7071    0.269   0.9405     H
H       0.7071   0.5595    0.231     H
H       0.7071   0.9405    0.269     H
H       0.7293   0.0236   0.5623     H
H       0.7293   0.4764   0.9377     H
H       0.7293   0.5623   0.0236     H
H       0.7293   0.9377   0.4764     H
Co        0.75     0.25     0.75    Co
Co        0.75     0.75     0.25    Co
H       0.7707   0.0623   0.9764     H
H       0.7707   0.4377   0.5236     H
H       0.7707   0.5236   0.4377     H
H       0.7707   0.9764   0.0623     H
H       0.7929   0.0595    0.769     H
H       0.7929   0.4405    0.731     H
H       0.7929    0.731   0.4405     H
H       0.7929    0.769   0.0595     H
C       0.8049   0.0778   0.8182     C
C       0.8049   0.4222   0.6818     C
C       0.8049   0.6818   0.4222     C
C       0.8049   0.8182   0.0778     C
H       0.8164   0.0373   0.8516     H
H       0.8164   0.4627   0.6484     H
H       0.8164   0.6484   0.4627     H
H       0.8164   0.8516   0.0373     H
C       0.8416   0.0142   0.5368     C
C       0.8416   0.4858   0.9632     C
C       0.8416   0.5368   0.0142     C
C       0.8416   0.9632   0.4858     C
C       0.8684   0.1626   0.6221     C
C       0.8684   0.3374   0.8779     C
C       0.8684   0.6221   0.1626     C
C       0.8684   0.8779   0.3374     C
N       0.9162   0.2036   0.6778     N
N       0.9162   0.2964   0.8222     N
N       0.9162   0.6778   0.2036     N
N       0.9162   0.8222   0.2964     N
H       0.9163   0.1082   0.8216     H
H       0.9163   0.3918   0.6784     H
H       0.9163   0.6784   0.3918     H
H       0.9163   0.8216   0.1082     H
C          1.0   0.0536   0.5536     C
C          1.0   0.1099   0.6099     C
C          1.0   0.4464   0.9464     C
C          1.0   0.5536   0.0536     C
C          1.0   0.6099   0.1099     C
C          1.0   0.8901   0.3901     C
C          1.0   0.9464   0.4464     C
