data_I
_chemical_name_common  '/home/zhangsd/repos/MofS-CGCNN/ML/data/TSD/clean_cifs/EXOZIB_clean'
_cell_length_a 11.70900
_cell_length_b 12.62600
_cell_length_c 13.19490
_cell_angle_alpha 103.48200
_cell_angle_beta  116.34000
_cell_angle_gamma 90.00000
_space_group_name_H-M_alt      'P 1'


loop_
_space_group_symop_operation_xyz
  'x, y, z' 

loop_
_atom_site_label
_atom_site_fract_x
_atom_site_fract_y
_atom_site_fract_z
_atom_site_type_symbol
Cu         0.0      0.5      0.0    Cu
Cu     0.01353  0.90544  0.02706    Cu
O      0.02711   0.7474  0.05422     O
O      0.04636   0.8338  0.47972     O
O      0.04929   0.0258  0.85978     O
H       0.0542   0.9759   0.6418     H
H       0.0675   0.8431    0.269     H
O      0.07033   0.8666  0.90446     O
O       0.0718   0.6144   0.1436     O
C        0.073   0.7133    0.146     C
C      0.07992   0.9305  0.85004     C
H       0.0883   0.8236   0.7124     H
H       0.1125   0.6985    0.359     H
C       0.1317   0.7967   0.2634     C
C       0.1372   0.8921   0.7674     C
C       0.1409   0.9713    0.699     C
C      0.15931   0.8636  0.52782     C
O      0.16587   0.1334  0.09554     O
H       0.1766   0.0438   0.7516     H
C       0.1819   0.7446   0.3638     C
O      0.18951   0.9742  0.14022     O
H       0.2015   0.8431    0.269     H
N      0.21917   0.9352  0.63834     N
H       0.2241    0.877   0.8122     H
C      0.22988   0.0695  0.14996     C
N       0.2385   0.8288    0.477     N
H       0.2465   0.6985    0.359     H
C       0.3486   0.9709   0.6972     C
C      0.36851   0.8636  0.52782     C
C       0.3698   0.1079   0.2326     C
H       0.3759   0.1764   0.2876     H
O       0.3977   0.0276   0.7954     O
H       0.4119    0.123   0.1878     H
H       0.4124   0.0241   0.3582     H
N      0.41917   0.9352  0.63834     N
H        0.425   0.9562   0.2484     H
O      0.43336   0.8338  0.47972     O
C       0.4419   0.0287    0.301     C
C       0.5581   0.9713    0.699     C
O      0.56664   0.1662  0.52028     O
H        0.575   0.0438   0.7516     H
N      0.58083   0.0648  0.36166     N
H       0.5876   0.9759   0.6418     H
H       0.5881    0.877   0.8122     H
O       0.6023   0.9724   0.2046     O
H       0.6241   0.8236   0.7124     H
C       0.6302   0.8921   0.7674     C
C      0.63149   0.1364  0.47218     C
C       0.6514   0.0291   0.3028     C
H       0.7535   0.3015    0.641     H
N       0.7615   0.1712    0.523     N
C      0.77012   0.9305  0.85004     C
H       0.7759    0.123   0.1878     H
N      0.78083   0.0648  0.36166     N
H       0.7985   0.1569    0.731     H
O      0.81049   0.0258  0.85978     O
C       0.8181   0.2554   0.6362     C
H       0.8234   0.9562   0.2484     H
O      0.83413   0.8666  0.90446     O
C      0.84069   0.1364  0.47218     C
C       0.8591   0.0287    0.301     C
C       0.8628   0.1079   0.2326     C
C       0.8683   0.2033   0.7366     C
H       0.8875   0.3015    0.641     H
H       0.9117   0.1764   0.2876     H
C      0.92008   0.0695  0.14996     C
C        0.927   0.2867    0.854     C
O       0.9282   0.3856   0.8564     O
O      0.92967   0.1334  0.09554     O
H       0.9325   0.1569    0.731     H
H       0.9458   0.0241   0.3582     H
O      0.95071   0.9742  0.14022     O
O      0.95364   0.1662  0.52028     O
O      0.97289   0.2526  0.94578     O
Cu     0.98647  0.09456  0.97294    Cu
