data_I
_chemical_name_common  '/home/zhangsd/repos/MofS-CGCNN/ML/data/TSD/clean_cifs/EYACOX_clean'
_cell_length_a 18.47970
_cell_length_b 18.47970
_cell_length_c 18.63200
_cell_angle_alpha 86.37720
_cell_angle_beta  86.37720
_cell_angle_gamma 70.36350
_space_group_name_H-M_alt      'P 1'


loop_
_space_group_symop_operation_xyz
  'x, y, z' 

loop_
_atom_site_label
_atom_site_fract_x
_atom_site_fract_y
_atom_site_fract_z
_atom_site_type_symbol
C       0.0041   0.6297   0.4414     C
Eu     0.00879  0.35245  0.02016    Eu
C       0.0106   0.1776   0.6464     C
O        0.016   0.5974   0.8623     O
C       0.0175   0.7439   0.3754     C
O       0.0186   0.5138   0.6182     O
C       0.0278   0.2872   0.5818     C
O       0.0333   0.3965   0.5121     O
H       0.0358   0.5616   0.7355     H
C        0.038   0.8564   0.3062     C
O        0.055   0.2372   0.0934     O
H       0.0667   0.7135   0.3605     H
O       0.0668   0.5908   0.4138     O
C       0.0731   0.8889   0.2727     C
C       0.0751   0.6173   0.8478     C
H       0.0826   0.1038   0.1452     H
C       0.0834   0.5674   0.7246     C
C        0.084   0.1332   0.6272     C
C       0.0858   0.5168   0.6017     C
O       0.0882   0.5346   0.0085     O
O       0.0983   0.6501    0.889     O
O       0.0992    0.412   0.0257     O
Eu     0.10122  0.45453  0.43244    Eu
C       0.1025   0.2419     0.56     C
H       0.1038   0.0826   0.6452     H
C       0.1111   0.9269   0.2273     C
C       0.1143   0.2067   0.0574     C
C       0.1158    0.596   0.7748     C
C       0.1205   0.5461    0.656     C
O       0.1224   0.4976   0.5454     O
C       0.1252   0.4628   0.0045     C
C       0.1287   0.1645   0.5804     C
O       0.1316    0.244   0.0085     O
C       0.1332    0.084   0.1272     C
H        0.134   0.2638   0.5322     H
C       0.1436    0.962   0.1938     C
C       0.1645   0.1287   0.0804     C
C       0.1776   0.0106   0.1464     C
C       0.1863   0.6065   0.7604     C
C       0.1912    0.559   0.6435     C
C       0.2061   0.4415   0.9778     C
C       0.2067   0.1143   0.5574     C
H       0.2088   0.5486   0.9495     H
H       0.2088   0.6242   0.7956     H
O       0.2117   0.3465    0.477     O
H       0.2178   0.5458   0.5996     H
C       0.2226   0.5904   0.6932     C
H       0.2321   0.3265   0.9941     H
O       0.2372    0.055   0.5934     O
C       0.2386   0.4968    0.949     C
O       0.2408    0.442    0.422     O
C       0.2419   0.1025     0.06     C
O        0.244   0.1316   0.5085     O
C       0.2525   0.3643   0.9767     C
C       0.2561   0.9825   0.1246     C
C       0.2602   0.3752    0.449     C
H       0.2638    0.134   0.0322     H
H       0.2865   0.9333   0.1395     H
C       0.2872   0.0278   0.0818     C
C       0.2915   0.6067   0.6757     C
C        0.311   0.4772   0.9208     C
H       0.3265   0.2321   0.4941     H
C       0.3272    0.343   0.9503     C
C       0.3389   0.5357   0.8901     C
C        0.343   0.3272   0.4503     C
O       0.3465   0.2117    0.977     O
C       0.3488   0.6236   0.6558     C
O       0.3499   0.9017    0.611     O
Eu     0.35245  0.00879  0.52016    Eu
C       0.3572   0.3982   0.9201     C
C       0.3575   0.5895   0.8672     C
C       0.3643   0.2525   0.4767     C
C       0.3703   0.9959   0.0586     C
C       0.3752   0.2602    0.949     C
H       0.3758   0.7912   0.7044     H
C       0.3764   0.6512   0.8442     C
C       0.3827   0.9249   0.6522     C
H       0.3837   0.4069   0.3996     H
C       0.3933   0.7085   0.8243     C
C       0.3935   0.8137   0.7396     C
O       0.3965   0.0333   0.0121     O
C       0.3982   0.3572   0.4201     C
O       0.4026    0.984   0.6377     O
C        0.404   0.8842   0.7252     C
H       0.4069   0.3837   0.8996     H
O       0.4092   0.9332   0.0862     O
C       0.4096   0.7774   0.8068     C
C       0.4105   0.6425   0.6328     C
O        0.412   0.0992   0.5257     O
C       0.4326   0.9166   0.7754     C
H       0.4384   0.9642   0.7645     H
C        0.441   0.8088   0.8565     C
C       0.4415   0.2061   0.4778     C
O        0.442   0.2408    0.922     O
H       0.4514   0.7912   0.5505     H
C       0.4539   0.8795    0.844     C
H       0.4542   0.7822   0.9004     H
Eu     0.45453  0.10122  0.93244    Eu
C       0.4628   0.1252   0.5045     C
C       0.4643   0.6611   0.6099     C
O       0.4654   0.9118   0.4915     O
C       0.4772    0.311   0.4208     C
C       0.4832   0.9142   0.8983     C
O       0.4862   0.9814   0.8818     O
C       0.4968   0.2386    0.449     C
O       0.4976   0.1224   0.0454     O
O       0.5024   0.8776   0.9546     O
C       0.5032   0.7614    0.551     C
O       0.5138   0.0186   0.1182     O
C       0.5168   0.0858   0.1017     C
C       0.5228    0.689   0.5792     C
O       0.5346   0.0882   0.5085     O
C       0.5357   0.3389   0.3901     C
C       0.5372   0.8748   0.4955     C
Eu     0.54547  0.89878  0.06756    Eu
H       0.5458   0.2178   0.0996     H
C       0.5461   0.1205    0.156     C
H       0.5486   0.2088   0.4495     H
O        0.558   0.7592    0.078     O
C       0.5585   0.7939   0.5222     C
C        0.559   0.1912   0.1435     C
H       0.5616   0.0358   0.2355     H
C       0.5674   0.0834   0.2246     C
O        0.588   0.9008   0.4743     O
C       0.5895   0.3575   0.3672     C
C       0.5904   0.2226   0.1932     C
O       0.5908   0.0668   0.9138     O
H       0.5931   0.6163   0.1004     H
C        0.596   0.1158   0.2748     C
O       0.5974    0.016   0.3623     O
C       0.6018   0.6428   0.5799     C
O       0.6035   0.9667   0.9879     O
C       0.6065   0.1863   0.2604     C
C       0.6067   0.2915   0.1757     C
H       0.6163   0.5931   0.6004     H
C       0.6173   0.0751   0.3478     C
C       0.6236   0.3488   0.1558     C
H       0.6242   0.2088   0.2956     H
C       0.6248   0.7398    0.051     C
C       0.6297   0.0041   0.9414     C
C       0.6357   0.7475   0.5233     C
C       0.6425   0.4105   0.1328     C
C       0.6428   0.6018   0.0799     C
Eu     0.64755  0.99121  0.47984    Eu
O       0.6501   0.0983    0.389     O
C       0.6512   0.3764   0.3442     C
O       0.6535   0.7883    0.023     O
C        0.657   0.6728   0.5497     C
C       0.6611   0.4643   0.1099     C
C       0.6728    0.657   0.0497     C
H       0.6735   0.7679   0.5059     H
C        0.689   0.5228   0.0792     C
C       0.7085   0.3933   0.3243     C
C       0.7128   0.9722   0.9182     C
H       0.7135   0.0667   0.8605     H
H       0.7362    0.866   0.9678     H
C       0.7398   0.6248    0.551     C
C       0.7439   0.0175   0.8754     C
C       0.7475   0.6357   0.0233     C
O        0.756   0.8684   0.4915     O
C       0.7581   0.8975     0.94     C
O       0.7592    0.558    0.578     O
C       0.7614   0.5032    0.051     C
O       0.7628    0.945   0.4066     O
H       0.7679   0.6735   0.0059     H
C       0.7774   0.4096   0.3068     C
H       0.7822   0.4542   0.4004     H
O       0.7883   0.6535    0.523     O
H       0.7912   0.3758   0.2044     H
H       0.7912   0.4514   0.0505     H
C       0.7933   0.8857   0.4426     C
C       0.7939   0.5585   0.0222     C
C       0.8088    0.441   0.3565     C
C       0.8137   0.3935   0.2396     C
C       0.8224   0.9894   0.8536     C
C       0.8355   0.8713   0.9196     C
C       0.8564    0.038   0.8062     C
H        0.866   0.7362   0.4678     H
C       0.8668    0.916   0.8728     C
O       0.8684    0.756   0.9915     O
C       0.8713   0.8355   0.4196     C
C       0.8748   0.5372   0.9955     C
O       0.8776   0.5024   0.4546     O
C       0.8795   0.4539    0.344     C
C       0.8842    0.404   0.2252     C
C       0.8857   0.7933   0.9426     C
C       0.8889   0.0731   0.7727     C
H       0.8962   0.9174   0.3548     H
C       0.8975   0.7581     0.44     C
Eu     0.89878  0.54547  0.56756    Eu
O       0.9008    0.588   0.9743     O
O       0.9017   0.3499    0.111     O
O       0.9118   0.4654   0.9915     O
C       0.9142   0.4832   0.3983     C
C        0.916   0.8668   0.3728     C
C       0.9166   0.4326   0.2754     C
H       0.9174   0.8962   0.8548     H
C       0.9249   0.3827   0.1522     C
C       0.9269   0.1111   0.7273     C
O       0.9332   0.4092   0.5862     O
H       0.9333   0.2865   0.6395     H
O        0.945   0.7628   0.9066     O
C        0.962   0.1436   0.6938     C
H       0.9642   0.4384   0.2645     H
O       0.9667   0.6035   0.4879     O
C       0.9722   0.7128   0.4182     C
O       0.9814   0.4862   0.3818     O
C       0.9825   0.2561   0.6246     C
O        0.984   0.4026   0.1377     O
C       0.9894   0.8224   0.3536     C
Eu     0.99121  0.64755  0.97984    Eu
C       0.9959   0.3703   0.5586     C
