data_I
_chemical_name_common  '/home/zhangsd/repos/MofS-CGCNN/ML/data/TSD/clean_cifs/EYULOA_clean'
_cell_length_a 15.09200
_cell_length_b 16.74400
_cell_length_c 22.51800
_cell_angle_alpha 90.00000
_cell_angle_beta  90.00000
_cell_angle_gamma 90.00000
_space_group_name_H-M_alt      'P 1'


loop_
_space_group_symop_operation_xyz
  'x, y, z' 

loop_
_atom_site_label
_atom_site_fract_x
_atom_site_fract_y
_atom_site_fract_z
_atom_site_type_symbol
C       0.0015   0.0649   0.4058     C
C       0.0015   0.4351   0.9058     C
C       0.0015   0.5649   0.5942     C
C       0.0015   0.9351   0.0942     C
C       0.0114   0.1279   0.9345     C
C       0.0114   0.3721   0.4345     C
C       0.0114   0.6279   0.0655     C
C       0.0114   0.8721   0.5655     C
H       0.0309   0.1442    0.462     H
H       0.0309   0.3558    0.962     H
H       0.0309   0.6442    0.538     H
H       0.0309   0.8558    0.038     H
H        0.041   0.0214   0.8274     H
H        0.041   0.4786   0.3274     H
H        0.041   0.5214   0.1726     H
H        0.041   0.9786   0.6726     H
H       0.0528   0.0722   0.1433     H
H       0.0528   0.4278   0.6433     H
H       0.0528   0.5722   0.8567     H
H       0.0528   0.9278   0.3567     H
C       0.0536   0.0588   0.8567     C
C       0.0536   0.4412   0.3567     C
C       0.0536   0.5588   0.1433     C
C       0.0536   0.9412   0.6433     C
H       0.0662   0.0235   0.0507     H
H       0.0662   0.4765   0.5507     H
H       0.0662   0.5235   0.9493     H
H       0.0662   0.9765   0.4493     H
H       0.0674   0.1492   0.2222     H
H       0.0674   0.3508   0.7222     H
H       0.0674   0.6492   0.7778     H
H       0.0674   0.8508   0.2778     H
C       0.0793   0.0106   0.4156     C
C       0.0793   0.4894   0.9156     C
C       0.0793   0.5106   0.5844     C
C       0.0793   0.9894   0.0844     C
C       0.0851    0.173   0.9267     C
C       0.0851    0.327   0.4267     C
C       0.0851    0.673   0.0733     C
C       0.0851    0.827   0.5733     C
H       0.0923   0.2161   0.9523     H
H       0.0923   0.2839   0.4523     H
H       0.0923   0.7161   0.0477     H
H       0.0923   0.7839   0.5477     H
H       0.0998   0.2112   0.3091     H
H       0.0998   0.2888   0.8091     H
H       0.0998   0.7112   0.6909     H
H       0.0998   0.7888   0.1909     H
C        0.105   0.0406   0.1345     C
C        0.105   0.4594   0.6345     C
C        0.105   0.5406   0.8655     C
C        0.105   0.9594   0.3655     C
H       0.1124   0.0045   0.1678     H
H       0.1124   0.4955   0.6678     H
H       0.1124   0.5045   0.8322     H
H       0.1124   0.9955   0.3322     H
C       0.1262   0.1563   0.2334     C
C       0.1262   0.3437   0.7334     C
C       0.1262   0.6563   0.7666     C
C       0.1262   0.8437   0.2666     C
C        0.127   0.1076   0.8509     C
C        0.127   0.3924   0.3509     C
C        0.127   0.6076   0.1491     C
C        0.127   0.8924   0.6491     C
H       0.1299   0.0432   0.4263     H
H       0.1299   0.4568   0.9263     H
H       0.1299   0.5432   0.5737     H
H       0.1299   0.9568   0.0737     H
N       0.1456   0.1624    0.888     N
N       0.1456   0.3376    0.388     N
N       0.1456   0.6624    0.112     N
N       0.1456   0.8376    0.612     N
C       0.1463    0.193   0.2856     C
C       0.1463    0.307   0.7856     C
C       0.1463    0.693   0.7144     C
C       0.1463    0.807   0.2144     C
H       0.1644      0.1   0.8185     H
H       0.1644      0.4   0.3185     H
H       0.1644      0.6   0.1815     H
H       0.1644      0.9   0.6815     H
H       0.1655    0.137   0.1103     H
H       0.1655    0.363   0.6103     H
H       0.1655    0.637   0.8897     H
H       0.1655    0.863   0.3897     H
C       0.1761   0.0939   0.1382     C
C       0.1761   0.4061   0.6382     C
C       0.1761   0.5939   0.8618     C
C       0.1761   0.9061   0.3618     C
C       0.1942   0.1295   0.1967     C
C       0.1942   0.3705   0.6967     C
C       0.1942   0.6295   0.8033     C
C       0.1942   0.8705   0.3033     C
N       0.2283   0.2045    0.305     N
N       0.2283   0.2955    0.805     N
N       0.2283   0.7045    0.695     N
N       0.2283   0.7955    0.195     N
H       0.2291   0.0662   0.1253     H
H       0.2291   0.4338   0.6253     H
H       0.2291   0.5662   0.8747     H
H       0.2291   0.9338   0.3747     H
O       0.2432   0.1643   0.4364     O
O       0.2432   0.3357   0.9364     O
O       0.2432   0.6643   0.5636     O
O       0.2432   0.8357   0.0636     O
Co     0.26612  0.22604  0.88195    Co
Co     0.26612  0.27396  0.38195    Co
Co     0.26612  0.72604  0.11805    Co
Co     0.26612  0.77396  0.61805    Co
C       0.2768    0.135   0.2182     C
C       0.2768    0.365   0.7182     C
C       0.2768    0.635   0.7818     C
C       0.2768    0.865   0.2818     C
C       0.2905   0.1736   0.2707     C
C       0.2905   0.3264   0.7707     C
C       0.2905   0.6736   0.7293     C
C       0.2905   0.8264   0.2293     C
S      0.30148  0.00399  0.49221     S
S      0.30148  0.49601  0.99221     S
S      0.30148  0.50399  0.50779     S
S      0.30148  0.99601  0.00779     S
O       0.3052    0.156   0.9522     O
O       0.3052    0.344   0.4522     O
O       0.3052    0.656   0.0478     O
O       0.3052    0.844   0.5478     O
O       0.3186   0.1458   0.8231     O
O       0.3186   0.3542   0.3231     O
O       0.3186   0.6458   0.1769     O
O       0.3186   0.8542   0.6769     O
C       0.3217   0.1442   0.4251     C
C       0.3217   0.3558   0.9251     C
C       0.3217   0.6442   0.5749     C
C       0.3217   0.8558   0.0749     C
H       0.3241   0.1128   0.1976     H
H       0.3241   0.3872   0.6976     H
H       0.3241   0.6128   0.8024     H
H       0.3241   0.8872   0.3024     H
S      0.34463      0.0     0.75     S
S      0.34463      0.5     0.25     S
H       0.3488   0.1786   0.2835     H
H       0.3488   0.3214   0.7835     H
H       0.3488   0.6786   0.7165     H
H       0.3488   0.8214   0.2165     H
C       0.3558   0.0647    0.442     C
C       0.3558   0.4353    0.942     C
C       0.3558   0.5647    0.558     C
C       0.3558   0.9353    0.058     C
O       0.3733   0.1906    0.396     O
O       0.3733   0.3094    0.896     O
O       0.3733   0.6906    0.604     O
O       0.3733   0.8094    0.104     O
C       0.3788   0.1402   0.9746     C
C       0.3788   0.3598   0.4746     C
C       0.3788   0.6402   0.0254     C
C       0.3788   0.8598   0.5254     C
C        0.382   0.0687   0.0138     C
C        0.382   0.4313   0.5138     C
C        0.382   0.5687   0.9862     C
C        0.382   0.9313   0.4862     C
C          0.4   0.1322   0.8158     C
C          0.4   0.3678   0.3158     C
C          0.4   0.6322   0.1842     C
C          0.4   0.8678   0.6842     C
C       0.4242   0.0611   0.7811     C
C       0.4242   0.4389   0.2811     C
C       0.4242   0.5611   0.2189     C
C       0.4242   0.9389   0.7189     C
C       0.4319   0.0295   0.4219     C
C       0.4319   0.4705   0.9219     C
C       0.4319   0.5295   0.5781     C
C       0.4319   0.9705   0.0781     C
H       0.4418   0.0626   0.2786     H
H       0.4418   0.4374   0.7786     H
H       0.4418   0.5626   0.7214     H
H       0.4418   0.9374   0.2214     H
C        0.446   0.0467   0.0525     C
C        0.446   0.4533   0.5525     C
C        0.446   0.5467   0.9475     C
C        0.446   0.9533   0.4475     C
O       0.4508   0.1774   0.9684     O
O       0.4508   0.3226   0.4684     O
O       0.4508   0.6774   0.0316     O
O       0.4508   0.8226   0.5316     O
O       0.4623   0.1715   0.8364     O
O       0.4623   0.3285   0.3364     O
O       0.4623   0.6715   0.1636     O
O       0.4623   0.8285   0.6636     O
H         0.47    0.053   0.3945     H
H         0.47    0.447   0.8945     H
H         0.47    0.553   0.6055     H
H         0.47    0.947   0.1055     H
C       0.4931   0.0359   0.2671     C
C       0.4931   0.4641   0.7671     C
C       0.4931   0.5359   0.7329     C
C       0.4931   0.9641   0.2329     C
H       0.4947   0.0786   0.0614     H
H       0.4947   0.4214   0.5614     H
H       0.4947   0.5786   0.9386     H
H       0.4947   0.9214   0.4386     H
Co         0.5     0.25  0.40268    Co
Co         0.5     0.25  0.90268    Co
Co         0.5     0.75  0.09732    Co
Co         0.5     0.75  0.59732    Co
H       0.5053   0.0786   0.5614     H
H       0.5053   0.4214   0.0614     H
H       0.5053   0.5786   0.4386     H
H       0.5053   0.9214   0.9386     H
C       0.5069   0.0359   0.7671     C
C       0.5069   0.4641   0.2671     C
C       0.5069   0.5359   0.2329     C
C       0.5069   0.9641   0.7329     C
H         0.53    0.053   0.8945     H
H         0.53    0.447   0.3945     H
H         0.53    0.553   0.1055     H
H         0.53    0.947   0.6055     H
O       0.5377   0.1715   0.3364     O
O       0.5377   0.3285   0.8364     O
O       0.5377   0.6715   0.6636     O
O       0.5377   0.8285   0.1636     O
O       0.5492   0.1774   0.4684     O
O       0.5492   0.3226   0.9684     O
O       0.5492   0.6774   0.5316     O
O       0.5492   0.8226   0.0316     O
C        0.554   0.0467   0.5525     C
C        0.554   0.4533   0.0525     C
C        0.554   0.5467   0.4475     C
C        0.554   0.9533   0.9475     C
H       0.5582   0.0626   0.7786     H
H       0.5582   0.4374   0.2786     H
H       0.5582   0.5626   0.2214     H
H       0.5582   0.9374   0.7214     H
C       0.5681   0.0295   0.9219     C
C       0.5681   0.4705   0.4219     C
C       0.5681   0.5295   0.0781     C
C       0.5681   0.9705   0.5781     C
C       0.5758   0.0611   0.2811     C
C       0.5758   0.4389   0.7811     C
C       0.5758   0.5611   0.7189     C
C       0.5758   0.9389   0.2189     C
C          0.6   0.1322   0.3158     C
C          0.6   0.3678   0.8158     C
C          0.6   0.6322   0.6842     C
C          0.6   0.8678   0.1842     C
C        0.618   0.0687   0.5138     C
C        0.618   0.4313   0.0138     C
C        0.618   0.5687   0.4862     C
C        0.618   0.9313   0.9862     C
C       0.6212   0.1402   0.4746     C
C       0.6212   0.3598   0.9746     C
C       0.6212   0.6402   0.5254     C
C       0.6212   0.8598   0.0254     C
O       0.6267   0.1906    0.896     O
O       0.6267   0.3094    0.396     O
O       0.6267   0.6906    0.104     O
O       0.6267   0.8094    0.604     O
C       0.6442   0.0647    0.942     C
C       0.6442   0.4353    0.442     C
C       0.6442   0.5647    0.058     C
C       0.6442   0.9353    0.558     C
H       0.6512   0.1786   0.7835     H
H       0.6512   0.3214   0.2835     H
H       0.6512   0.6786   0.2165     H
H       0.6512   0.8214   0.7165     H
S      0.65537      0.0     0.25     S
S      0.65537      0.5     0.75     S
H       0.6759   0.1128   0.6976     H
H       0.6759   0.3872   0.1976     H
H       0.6759   0.6128   0.3024     H
H       0.6759   0.8872   0.8024     H
C       0.6783   0.1442   0.9251     C
C       0.6783   0.3558   0.4251     C
C       0.6783   0.6442   0.0749     C
C       0.6783   0.8558   0.5749     C
O       0.6814   0.1458   0.3231     O
O       0.6814   0.3542   0.8231     O
O       0.6814   0.6458   0.6769     O
O       0.6814   0.8542   0.1769     O
O       0.6948    0.156   0.4522     O
O       0.6948    0.344   0.9522     O
O       0.6948    0.656   0.5478     O
O       0.6948    0.844   0.0478     O
S      0.69852  0.00399  0.99221     S
S      0.69852  0.49601  0.49221     S
S      0.69852  0.50399  0.00779     S
S      0.69852  0.99601  0.50779     S
C       0.7095   0.1736   0.7707     C
C       0.7095   0.3264   0.2707     C
C       0.7095   0.6736   0.2293     C
C       0.7095   0.8264   0.7293     C
C       0.7232    0.135   0.7182     C
C       0.7232    0.365   0.2182     C
C       0.7232    0.635   0.2818     C
C       0.7232    0.865   0.7818     C
Co     0.73388  0.22604  0.38195    Co
Co     0.73388  0.27396  0.88195    Co
Co     0.73388  0.72604  0.61805    Co
Co     0.73388  0.77396  0.11805    Co
O       0.7568   0.1643   0.9364     O
O       0.7568   0.3357   0.4364     O
O       0.7568   0.6643   0.0636     O
O       0.7568   0.8357   0.5636     O
H       0.7709   0.0662   0.6253     H
H       0.7709   0.4338   0.1253     H
H       0.7709   0.5662   0.3747     H
H       0.7709   0.9338   0.8747     H
N       0.7717   0.2045    0.805     N
N       0.7717   0.2955    0.305     N
N       0.7717   0.7045    0.195     N
N       0.7717   0.7955    0.695     N
C       0.8058   0.1295   0.6967     C
C       0.8058   0.3705   0.1967     C
C       0.8058   0.6295   0.3033     C
C       0.8058   0.8705   0.8033     C
C       0.8239   0.0939   0.6382     C
C       0.8239   0.4061   0.1382     C
C       0.8239   0.5939   0.3618     C
C       0.8239   0.9061   0.8618     C
H       0.8345    0.137   0.6103     H
H       0.8345    0.363   0.1103     H
H       0.8345    0.637   0.3897     H
H       0.8345    0.863   0.8897     H
H       0.8356      0.1   0.3185     H
H       0.8356      0.4   0.8185     H
H       0.8356      0.6   0.6815     H
H       0.8356      0.9   0.1815     H
C       0.8537    0.193   0.7856     C
C       0.8537    0.307   0.2856     C
C       0.8537    0.693   0.2144     C
C       0.8537    0.807   0.7144     C
N       0.8544   0.1624    0.388     N
N       0.8544   0.3376    0.888     N
N       0.8544   0.6624    0.612     N
N       0.8544   0.8376    0.112     N
H       0.8701   0.0432   0.9263     H
H       0.8701   0.4568   0.4263     H
H       0.8701   0.5432   0.0737     H
H       0.8701   0.9568   0.5737     H
C        0.873   0.1076   0.3509     C
C        0.873   0.3924   0.8509     C
C        0.873   0.6076   0.6491     C
C        0.873   0.8924   0.1491     C
C       0.8738   0.1563   0.7334     C
C       0.8738   0.3437   0.2334     C
C       0.8738   0.6563   0.2666     C
C       0.8738   0.8437   0.7666     C
H       0.8876   0.0045   0.6678     H
H       0.8876   0.4955   0.1678     H
H       0.8876   0.5045   0.3322     H
H       0.8876   0.9955   0.8322     H
C        0.895   0.0406   0.6345     C
C        0.895   0.4594   0.1345     C
C        0.895   0.5406   0.3655     C
C        0.895   0.9594   0.8655     C
H       0.9002   0.2112   0.8091     H
H       0.9002   0.2888   0.3091     H
H       0.9002   0.7112   0.1909     H
H       0.9002   0.7888   0.6909     H
H       0.9077   0.2161   0.4523     H
H       0.9077   0.2839   0.9523     H
H       0.9077   0.7161   0.5477     H
H       0.9077   0.7839   0.0477     H
C       0.9149    0.173   0.4267     C
C       0.9149    0.327   0.9267     C
C       0.9149    0.673   0.5733     C
C       0.9149    0.827   0.0733     C
C       0.9207   0.0106   0.9156     C
C       0.9207   0.4894   0.4156     C
C       0.9207   0.5106   0.0844     C
C       0.9207   0.9894   0.5844     C
H       0.9326   0.1492   0.7222     H
H       0.9326   0.3508   0.2222     H
H       0.9326   0.6492   0.2778     H
H       0.9326   0.8508   0.7778     H
H       0.9338   0.0235   0.5507     H
H       0.9338   0.4765   0.0507     H
H       0.9338   0.5235   0.4493     H
H       0.9338   0.9765   0.9493     H
C       0.9464   0.0588   0.3567     C
C       0.9464   0.4412   0.8567     C
C       0.9464   0.5588   0.6433     C
C       0.9464   0.9412   0.1433     C
H       0.9472   0.0722   0.6433     H
H       0.9472   0.4278   0.1433     H
H       0.9472   0.5722   0.3567     H
H       0.9472   0.9278   0.8567     H
H        0.959   0.0214   0.3274     H
H        0.959   0.4786   0.8274     H
H        0.959   0.5214   0.6726     H
H        0.959   0.9786   0.1726     H
H       0.9691   0.1442    0.962     H
H       0.9691   0.3558    0.462     H
H       0.9691   0.6442    0.038     H
H       0.9691   0.8558    0.538     H
C       0.9886   0.1279   0.4345     C
C       0.9886   0.3721   0.9345     C
C       0.9886   0.6279   0.5655     C
C       0.9886   0.8721   0.0655     C
C       0.9985   0.0649   0.9058     C
C       0.9985   0.4351   0.4058     C
C       0.9985   0.5649   0.0942     C
C       0.9985   0.9351   0.5942     C
