data_I
_chemical_name_common  '/home/zhangsd/repos/MofS-CGCNN/ML/data/TSD/clean_cifs/EZABEN_clean'
_cell_length_a  8.44130
_cell_length_b  8.44130
_cell_length_c 16.68800
_cell_angle_alpha 90.00000
_cell_angle_beta  90.00000
_cell_angle_gamma 90.78230
_space_group_name_H-M_alt      'P 1'


loop_
_space_group_symop_operation_xyz
  'x, y, z' 

loop_
_atom_site_label
_atom_site_fract_x
_atom_site_fract_y
_atom_site_fract_z
_atom_site_type_symbol
N       0.0114   0.6882   0.7692     N
C        0.046   0.4546   0.7181     C
Cd     0.06145  0.93855  0.82061    Cd
Cl      0.0761   0.9239   0.2006    Cl
H       0.0938   0.3628   0.6999     H
H       0.1051   0.8949   0.0291     H
N       0.1116   0.5236   0.2177     N
N        0.126   0.5786   0.7473     N
C       0.1269   0.3785     0.25     C
C       0.1744   0.8256   0.0044     C
N       0.1872   0.8128   0.9284     N
H        0.224   0.3302   0.2581     H
N        0.272    0.728   0.0455     N
N       0.2982   0.7018   0.9133     N
Cd     0.30719  0.69281   0.1798    Cd
N       0.3118   0.9886   0.7692     N
H       0.3302    0.224   0.7581     H
C       0.3474   0.6526   0.9825     C
H       0.3628   0.0938   0.1999     H
C       0.3785   0.1269     0.75     C
Cd     0.37937  0.62063  0.78458    Cd
N       0.4214    0.874   0.7473     N
H       0.4242   0.5758   0.9891     H
Cl      0.4312   0.5688   0.3437    Cl
C       0.4546    0.046   0.2181     C
N       0.4764   0.8884   0.2177     N
Cl        0.48     0.52   0.6428    Cl
Cl        0.52     0.48   0.1428    Cl
N       0.5236   0.1116   0.7177     N
C       0.5454    0.954   0.7181     C
Cl      0.5688   0.4312   0.8437    Cl
H       0.5758   0.4242   0.4891     H
N       0.5786    0.126   0.2473     N
Cd     0.62063  0.37937  0.28458    Cd
C       0.6215   0.8731     0.25     C
H       0.6372   0.9062   0.6999     H
C       0.6526   0.3474   0.4825     C
H       0.6698    0.776   0.2581     H
N       0.6882   0.0114   0.2692     N
Cd     0.69281  0.30719   0.6798    Cd
N       0.7018   0.2982   0.4133     N
N        0.728    0.272   0.5455     N
H        0.776   0.6698   0.7581     H
N       0.8128   0.1872   0.4284     N
C       0.8256   0.1744   0.5044     C
C       0.8731   0.6215     0.75     C
N        0.874   0.4214   0.2473     N
N       0.8884   0.4764   0.7177     N
H       0.8949   0.1051   0.5291     H
H       0.9062   0.6372   0.1999     H
Cl      0.9239   0.0761   0.7006    Cl
Cd     0.93855  0.06145  0.32061    Cd
C        0.954   0.5454   0.2181     C
N       0.9886   0.3118   0.2692     N
