data_I
_chemical_name_common  '/home/zhangsd/repos/MofS-CGCNN/ML/data/TSD/clean_cifs/EZEQOR_clean'
_cell_length_a 18.30660
_cell_length_b 16.97900
_cell_length_c 13.80350
_cell_angle_alpha 90.00000
_cell_angle_beta  130.13400
_cell_angle_gamma 90.00000
_space_group_name_H-M_alt      'P 1'


loop_
_space_group_symop_operation_xyz
  'x, y, z' 

loop_
_atom_site_label
_atom_site_fract_x
_atom_site_fract_y
_atom_site_fract_z
_atom_site_type_symbol
Mg         0.0  0.19181     0.75    Mg
Mg         0.0  0.80819     0.25    Mg
C        0.004  0.38929   0.0045     C
C        0.004  0.61071   0.5045     C
C      0.01488  0.46603   0.9826     C
C      0.01488  0.53397   0.4826     C
H        0.019    0.272    0.979     H
H        0.019    0.728    0.479     H
H        0.023    0.377    0.453     H
H        0.023    0.623    0.953     H
H        0.026    0.123    0.508     H
H        0.026    0.877    0.008     H
H        0.028    0.012    0.398     H
H        0.028    0.988    0.898     H
C       0.0336   0.3268   0.9744     C
C       0.0336   0.6732   0.4744     C
C       0.0581  0.47663   0.9297     C
C       0.0581  0.52337   0.4297     C
H        0.072    0.472    0.419     H
H        0.072    0.528    0.919     H
N      0.07295  0.33959   0.9207     N
N      0.07295  0.66041   0.4207     N
O      0.07581  0.19891  0.69096     O
O      0.07581  0.80109  0.19096     O
C       0.0862  0.08865   0.5525     C
C       0.0862  0.91135   0.0525     C
C        0.087  0.41297   0.9007     C
C        0.087  0.58703   0.4007     C
C       0.0877  0.02488   0.4917     C
C       0.0877  0.97512   0.9917     C
O      0.08858  0.10834  0.87882     O
O      0.08858  0.89166  0.37882     O
O      0.09933  0.27866  0.88833     O
O      0.09933  0.72134  0.38833     O
H        0.117    0.417    0.868     H
H        0.117    0.583    0.368     H
C      0.15746  0.16911   0.7475     C
C      0.15746  0.83089   0.2475     C
C      0.16165  0.09893   0.9917     C
C      0.16165  0.90107   0.4917     C
C      0.16313   0.1047   0.6782     C
C      0.16313   0.8953   0.1782     C
C      0.16627  0.02518   0.0564     C
C      0.16627  0.97482   0.5564     C
H          0.2    0.434     0.17     H
H          0.2    0.566     0.67     H
H        0.208    0.459    0.776     H
H        0.208    0.541    0.276     H
O      0.23134   0.1461  0.05769     O
O      0.23134   0.8539  0.55769     O
O      0.23165  0.18773  0.85637     O
O      0.23165  0.81227  0.35637     O
C       0.2426   0.0565   0.7403     C
C       0.2426   0.9435   0.2403     C
C       0.2431   0.0083   0.1801     C
C       0.2431   0.9917   0.6801     C
Mg        0.25     0.25      0.0    Mg
Mg        0.25     0.75      0.5    Mg
C       0.2569   0.4917   0.8199     C
C       0.2569   0.5083   0.3199     C
C       0.2574   0.4435   0.2597     C
C       0.2574   0.5565   0.7597     C
O      0.26835  0.31227  0.14363     O
O      0.26835  0.68773  0.64363     O
O      0.26866   0.3539  0.94231     O
O      0.26866   0.6461  0.44231     O
H        0.292    0.041    0.224     H
H        0.292    0.959    0.724     H
H          0.3    0.066     0.83     H
H          0.3    0.934     0.33     H
C      0.33373  0.47482   0.9436     C
C      0.33373  0.52518   0.4436     C
C      0.33687   0.3953   0.3218     C
C      0.33687   0.6047   0.8218     C
C      0.33835  0.40107   0.0083     C
C      0.33835  0.59893   0.5083     C
C      0.34254  0.33089   0.2525     C
C      0.34254  0.66911   0.7525     C
H        0.383    0.083    0.132     H
H        0.383    0.917    0.632     H
O      0.40067  0.22134  0.11167     O
O      0.40067  0.77866  0.61167     O
O      0.41142  0.39166  0.12118     O
O      0.41142  0.60834  0.62118     O
C       0.4123  0.47512   0.5083     C
C       0.4123  0.52488   0.0083     C
C        0.413  0.08703   0.0993     C
C        0.413  0.91297   0.5993     C
C       0.4138  0.41135   0.4475     C
C       0.4138  0.58865   0.9475     C
O      0.42419  0.30109  0.30904     O
O      0.42419  0.69891  0.80904     O
N      0.42705  0.16041   0.0793     N
N      0.42705  0.83959   0.5793     N
H        0.428    0.028    0.581     H
H        0.428    0.972    0.081     H
C       0.4419  0.02337   0.0703     C
C       0.4419  0.97663   0.5703     C
C       0.4664   0.1732   0.0256     C
C       0.4664   0.8268   0.5256     C
H        0.472    0.488    0.602     H
H        0.472    0.512    0.102     H
H        0.474    0.377    0.492     H
H        0.474    0.623    0.992     H
H        0.477    0.123    0.547     H
H        0.477    0.877    0.047     H
H        0.481    0.228    0.021     H
H        0.481    0.772    0.521     H
C      0.48512  0.03397   0.0174     C
C      0.48512  0.96603   0.5174     C
C        0.496  0.11071   0.9955     C
C        0.496  0.88929   0.4955     C
Mg         0.5  0.30819     0.25    Mg
Mg         0.5  0.69181     0.75    Mg
C        0.504  0.11071   0.5045     C
C        0.504  0.88929   0.0045     C
C      0.51488  0.03397   0.4826     C
C      0.51488  0.96603   0.9826     C
H        0.519    0.228    0.479     H
H        0.519    0.772    0.979     H
H        0.523    0.123    0.953     H
H        0.523    0.877    0.453     H
H        0.526    0.377    0.008     H
H        0.526    0.623    0.508     H
H        0.528    0.488    0.898     H
H        0.528    0.512    0.398     H
C       0.5336   0.1732   0.4744     C
C       0.5336   0.8268   0.9744     C
C       0.5581  0.02337   0.4297     C
C       0.5581  0.97663   0.9297     C
H        0.572    0.028    0.919     H
H        0.572    0.972    0.419     H
N      0.57295  0.16041   0.4207     N
N      0.57295  0.83959   0.9207     N
O      0.57581  0.30109  0.19096     O
O      0.57581  0.69891  0.69096     O
C       0.5862  0.41135   0.0525     C
C       0.5862  0.58865   0.5525     C
C        0.587  0.08703   0.4007     C
C        0.587  0.91297   0.9007     C
C       0.5877  0.47512   0.9917     C
C       0.5877  0.52488   0.4917     C
O      0.58858  0.39166  0.37882     O
O      0.58858  0.60834  0.87882     O
O      0.59933  0.22134  0.38833     O
O      0.59933  0.77866  0.88833     O
H        0.617    0.083    0.368     H
H        0.617    0.917    0.868     H
C      0.65746  0.33089   0.2475     C
C      0.65746  0.66911   0.7475     C
C      0.66165  0.40107   0.4917     C
C      0.66165  0.59893   0.9917     C
C      0.66313   0.3953   0.1782     C
C      0.66313   0.6047   0.6782     C
C      0.66627  0.47482   0.5564     C
C      0.66627  0.52518   0.0564     C
H          0.7    0.066     0.67     H
H          0.7    0.934     0.17     H
H        0.708    0.041    0.276     H
H        0.708    0.959    0.776     H
O      0.73134   0.3539  0.55769     O
O      0.73134   0.6461  0.05769     O
O      0.73165  0.31227  0.35637     O
O      0.73165  0.68773  0.85637     O
C       0.7426   0.4435   0.2403     C
C       0.7426   0.5565   0.7403     C
C       0.7431   0.4917   0.6801     C
C       0.7431   0.5083   0.1801     C
Mg        0.75     0.25      0.5    Mg
Mg        0.75     0.75      0.0    Mg
C       0.7569   0.0083   0.3199     C
C       0.7569   0.9917   0.8199     C
C       0.7574   0.0565   0.7597     C
C       0.7574   0.9435   0.2597     C
O      0.76835  0.18773  0.64363     O
O      0.76835  0.81227  0.14363     O
O      0.76866   0.1461  0.44231     O
O      0.76866   0.8539  0.94231     O
H        0.792    0.459    0.724     H
H        0.792    0.541    0.224     H
H          0.8    0.434     0.33     H
H          0.8    0.566     0.83     H
C      0.83373  0.02518   0.4436     C
C      0.83373  0.97482   0.9436     C
C      0.83687   0.1047   0.8218     C
C      0.83687   0.8953   0.3218     C
C      0.83835  0.09893   0.5083     C
C      0.83835  0.90107   0.0083     C
C      0.84254  0.16911   0.7525     C
C      0.84254  0.83089   0.2525     C
H        0.883    0.417    0.632     H
H        0.883    0.583    0.132     H
O      0.90067  0.27866  0.61167     O
O      0.90067  0.72134  0.11167     O
O      0.91142  0.10834  0.62118     O
O      0.91142  0.89166  0.12118     O
C       0.9123  0.02488   0.0083     C
C       0.9123  0.97512   0.5083     C
C        0.913  0.41297   0.5993     C
C        0.913  0.58703   0.0993     C
C       0.9138  0.08865   0.9475     C
C       0.9138  0.91135   0.4475     C
O      0.92419  0.19891  0.80904     O
O      0.92419  0.80109  0.30904     O
N      0.92705  0.33959   0.5793     N
N      0.92705  0.66041   0.0793     N
H        0.928    0.472    0.081     H
H        0.928    0.528    0.581     H
C       0.9419  0.47663   0.5703     C
C       0.9419  0.52337   0.0703     C
C       0.9664   0.3268   0.5256     C
C       0.9664   0.6732   0.0256     C
H        0.972    0.012    0.102     H
H        0.972    0.988    0.602     H
H        0.974    0.123    0.992     H
H        0.974    0.877    0.492     H
H        0.977    0.377    0.047     H
H        0.977    0.623    0.547     H
H        0.981    0.272    0.521     H
H        0.981    0.728    0.021     H
C      0.98512  0.46603   0.5174     C
C      0.98512  0.53397   0.0174     C
C        0.996  0.38929   0.4955     C
C        0.996  0.61071   0.9955     C
