data_I
_chemical_name_common  '/home/zhangsd/repos/MofS-CGCNN/ML/data/TSD/clean_cifs/EZEQIL_clean'
_cell_length_a 17.65500
_cell_length_b 17.63800
_cell_length_c 12.95600
_cell_angle_alpha 90.00000
_cell_angle_beta  127.42100
_cell_angle_gamma 90.00000
_space_group_name_H-M_alt      'P 1'


loop_
_space_group_symop_operation_xyz
  'x, y, z' 

loop_
_atom_site_label
_atom_site_fract_x
_atom_site_fract_y
_atom_site_fract_z
_atom_site_type_symbol
Mg         0.0  0.30427     0.25    Mg
Mg         0.0  0.69573     0.75    Mg
C       0.0009   0.1069   0.5085     C
C       0.0009   0.8931   0.0085     C
H        0.013    0.219    0.489     H
H        0.013    0.781    0.989     H
C       0.0147   0.0335   0.4823     C
C       0.0147   0.9665   0.9823     C
H        0.024    0.498    0.889     H
H        0.024    0.502    0.389     H
H        0.028    0.373    0.999     H
H        0.028    0.627    0.499     H
C        0.029   0.1686   0.4768     C
C        0.029   0.8314   0.9768     C
H        0.033    0.116    0.956     H
H        0.033    0.884    0.456     H
H        0.056    0.012    0.894     H
H        0.056    0.988    0.394     H
C       0.0606   0.0278   0.4267     C
C       0.0606   0.9722   0.9267     C
N       0.0725  0.16054   0.4216     N
N       0.0725  0.83946   0.9216     N
O       0.0774  0.29891   0.1821     O
O       0.0774  0.70109   0.6821     O
O       0.0871   0.3848   0.3792     O
O       0.0871   0.6152   0.8792     O
C       0.0885   0.4133   0.0445     C
C       0.0885   0.5867   0.5445     C
C       0.0895    0.091   0.3972     C
C       0.0895    0.909   0.8972     C
C       0.0897   0.4796   0.9866     C
C       0.0897   0.5204   0.4866     C
O       0.0987  0.22105    0.389     O
O       0.0987  0.77895    0.889     O
H        0.114    0.085    0.361     H
H        0.114    0.915    0.861     H
C       0.1577   0.3308   0.2404     C
C       0.1577   0.6692   0.7404     C
C       0.1602   0.3952   0.4941     C
C       0.1602   0.6048   0.9941     C
C        0.164    0.397   0.1737     C
C        0.164    0.603   0.6737     C
C       0.1647   0.4695   0.5566     C
C       0.1647   0.5305   0.0566     C
H        0.205    0.049    0.262     H
H        0.205    0.951    0.762     H
H         0.21    0.057    0.674     H
H         0.21    0.943    0.174     H
O       0.2278  0.34915   0.5634     O
O       0.2278  0.65085   0.0634     O
O        0.232  0.31213   0.3507     O
O        0.232  0.68787   0.8507     O
C       0.2395   0.4473    0.241     C
C       0.2395   0.5527    0.741     C
C       0.2399   0.4866   0.6837     C
C       0.2399   0.5134   0.1837     C
Mg        0.25     0.25      0.5    Mg
Mg        0.25     0.75      0.0    Mg
C       0.2601   0.0134   0.3163     C
C       0.2601   0.9866   0.8163     C
C       0.2605   0.0527    0.759     C
C       0.2605   0.9473    0.259     C
O        0.268  0.18787   0.6493     O
O        0.268  0.81213   0.1493     O
O       0.2722  0.15085   0.4366     O
O       0.2722  0.84915   0.9366     O
H         0.29    0.443    0.326     H
H         0.29    0.557    0.826     H
H        0.295    0.451    0.738     H
H        0.295    0.549    0.238     H
C       0.3353   0.0305   0.4434     C
C       0.3353   0.9695   0.9434     C
C        0.336    0.103   0.8263     C
C        0.336    0.897   0.3263     C
C       0.3398   0.1048   0.5059     C
C       0.3398   0.8952   0.0059     C
C       0.3423   0.1692   0.7596     C
C       0.3423   0.8308   0.2596     C
H        0.386    0.415    0.639     H
H        0.386    0.585    0.139     H
O       0.4013  0.27895    0.611     O
O       0.4013  0.72105    0.111     O
C       0.4103   0.0204   0.0134     C
C       0.4103   0.9796   0.5134     C
C       0.4105    0.409   0.6028     C
C       0.4105    0.591   0.1028     C
C       0.4115   0.0867   0.9555     C
C       0.4115   0.9133   0.4555     C
O       0.4129   0.1152   0.6208     O
O       0.4129   0.8848   0.1208     O
O       0.4226  0.20109   0.8179     O
O       0.4226  0.79891   0.3179     O
N       0.4275  0.33946   0.5784     N
N       0.4275  0.66054   0.0784     N
C       0.4394   0.4722   0.5733     C
C       0.4394   0.5278   0.0733     C
H        0.444    0.488    0.106     H
H        0.444    0.512    0.606     H
H        0.467    0.384    0.044     H
H        0.467    0.616    0.544     H
C        0.471   0.3314   0.5232     C
C        0.471   0.6686   0.0232     C
H        0.472    0.127    0.001     H
H        0.472    0.873    0.501     H
H        0.476    0.002    0.111     H
H        0.476    0.998    0.611     H
C       0.4853   0.4665   0.5177     C
C       0.4853   0.5335   0.0177     C
H        0.487    0.281    0.511     H
H        0.487    0.719    0.011     H
C       0.4991   0.3931   0.4915     C
C       0.4991   0.6069   0.9915     C
Mg         0.5  0.19573     0.75    Mg
Mg         0.5  0.80427     0.25    Mg
C       0.5009   0.3931   0.0085     C
C       0.5009   0.6069   0.5085     C
H        0.513    0.281    0.989     H
H        0.513    0.719    0.489     H
C       0.5147   0.4665   0.9823     C
C       0.5147   0.5335   0.4823     C
H        0.524    0.002    0.389     H
H        0.524    0.998    0.889     H
H        0.528    0.127    0.499     H
H        0.528    0.873    0.999     H
C        0.529   0.3314   0.9768     C
C        0.529   0.6686   0.4768     C
H        0.533    0.384    0.456     H
H        0.533    0.616    0.956     H
H        0.556    0.488    0.394     H
H        0.556    0.512    0.894     H
C       0.5606   0.4722   0.9267     C
C       0.5606   0.5278   0.4267     C
N       0.5725  0.33946   0.9216     N
N       0.5725  0.66054   0.4216     N
O       0.5774  0.20109   0.6821     O
O       0.5774  0.79891   0.1821     O
O       0.5871   0.1152   0.8792     O
O       0.5871   0.8848   0.3792     O
C       0.5885   0.0867   0.5445     C
C       0.5885   0.9133   0.0445     C
C       0.5895    0.409   0.8972     C
C       0.5895    0.591   0.3972     C
C       0.5897   0.0204   0.4866     C
C       0.5897   0.9796   0.9866     C
O       0.5987  0.27895    0.889     O
O       0.5987  0.72105    0.389     O
H        0.614    0.415    0.861     H
H        0.614    0.585    0.361     H
C       0.6577   0.1692   0.7404     C
C       0.6577   0.8308   0.2404     C
C       0.6602   0.1048   0.9941     C
C       0.6602   0.8952   0.4941     C
C        0.664    0.103   0.6737     C
C        0.664    0.897   0.1737     C
C       0.6647   0.0305   0.0566     C
C       0.6647   0.9695   0.5566     C
H        0.705    0.451    0.762     H
H        0.705    0.549    0.262     H
H         0.71    0.443    0.174     H
H         0.71    0.557    0.674     H
O       0.7278  0.15085   0.0634     O
O       0.7278  0.84915   0.5634     O
O        0.732  0.18787   0.8507     O
O        0.732  0.81213   0.3507     O
C       0.7395   0.0527    0.741     C
C       0.7395   0.9473    0.241     C
C       0.7399   0.0134   0.1837     C
C       0.7399   0.9866   0.6837     C
Mg        0.75     0.25      0.0    Mg
Mg        0.75     0.75      0.5    Mg
C       0.7601   0.4866   0.8163     C
C       0.7601   0.5134   0.3163     C
C       0.7605   0.4473    0.259     C
C       0.7605   0.5527    0.759     C
O        0.768  0.31213   0.1493     O
O        0.768  0.68787   0.6493     O
O       0.7722  0.34915   0.9366     O
O       0.7722  0.65085   0.4366     O
H         0.79    0.057    0.826     H
H         0.79    0.943    0.326     H
H        0.795    0.049    0.238     H
H        0.795    0.951    0.738     H
C       0.8353   0.4695   0.9434     C
C       0.8353   0.5305   0.4434     C
C        0.836    0.397   0.3263     C
C        0.836    0.603   0.8263     C
C       0.8398   0.3952   0.0059     C
C       0.8398   0.6048   0.5059     C
C       0.8423   0.3308   0.2596     C
C       0.8423   0.6692   0.7596     C
H        0.886    0.085    0.139     H
H        0.886    0.915    0.639     H
O       0.9013  0.22105    0.111     O
O       0.9013  0.77895    0.611     O
C       0.9103   0.4796   0.5134     C
C       0.9103   0.5204   0.0134     C
C       0.9105    0.091   0.1028     C
C       0.9105    0.909   0.6028     C
C       0.9115   0.4133   0.4555     C
C       0.9115   0.5867   0.9555     C
O       0.9129   0.3848   0.1208     O
O       0.9129   0.6152   0.6208     O
O       0.9226  0.29891   0.3179     O
O       0.9226  0.70109   0.8179     O
N       0.9275  0.16054   0.0784     N
N       0.9275  0.83946   0.5784     N
C       0.9394   0.0278   0.0733     C
C       0.9394   0.9722   0.5733     C
H        0.944    0.012    0.606     H
H        0.944    0.988    0.106     H
H        0.967    0.116    0.544     H
H        0.967    0.884    0.044     H
C        0.971   0.1686   0.0232     C
C        0.971   0.8314   0.5232     C
H        0.972    0.373    0.501     H
H        0.972    0.627    0.001     H
H        0.976    0.498    0.611     H
H        0.976    0.502    0.111     H
C       0.9853   0.0335   0.0177     C
C       0.9853   0.9665   0.5177     C
H        0.987    0.219    0.011     H
H        0.987    0.781    0.511     H
C       0.9991   0.1069   0.9915     C
C       0.9991   0.8931   0.4915     C
