data_I
_chemical_name_common  '/home/zhangsd/repos/MofS-CGCNN/ML/data/TSD/clean_cifs/EZEQUX_clean'
_cell_length_a 18.16520
_cell_length_b 17.24660
_cell_length_c 13.49210
_cell_angle_alpha 90.00000
_cell_angle_beta  129.40000
_cell_angle_gamma 90.00000
_space_group_name_H-M_alt      'P 1'


loop_
_space_group_symop_operation_xyz
  'x, y, z' 

loop_
_atom_site_label
_atom_site_fract_x
_atom_site_fract_y
_atom_site_fract_z
_atom_site_type_symbol
Mg         0.0  0.19347     0.75    Mg
Mg         0.0  0.80653     0.25    Mg
C       0.0021  0.39055   0.0055     C
C       0.0021  0.60945   0.5055     C
C      0.01517  0.46611   0.9831     C
C      0.01517  0.53389   0.4831     C
H        0.022    0.276    0.986     H
H        0.022    0.724    0.486     H
H        0.026    0.381    0.454     H
H        0.026    0.619    0.954     H
H        0.029    0.123    0.508     H
H        0.029    0.877    0.008     H
C       0.0315  0.32834   0.9751     C
C       0.0315  0.67166   0.4751     C
H        0.034    0.008    0.403     H
H        0.034    0.992    0.903     H
C       0.0593  0.47491   0.9289     C
C       0.0593  0.52509   0.4289     C
N      0.07298  0.33949   0.9217     N
N      0.07298  0.66051   0.4217     N
H        0.075    0.477    0.417     H
H        0.075    0.523    0.917     H
O      0.07547  0.19911  0.68685     O
O      0.07547  0.80089  0.18685     O
C       0.0856  0.08705   0.5479     C
C       0.0856  0.91295   0.0479     C
C       0.0877  0.02258   0.4891     C
C       0.0877  0.97742   0.9891     C
C       0.0883  0.41116   0.9002     C
C       0.0883  0.58884   0.4002     C
O      0.08878  0.11102    0.879     O
O      0.08878  0.88898    0.379     O
O      0.09932  0.27847  0.88938     O
O      0.09932  0.72153  0.38938     O
H        0.119   0.4168    0.869     H
H        0.119   0.5832    0.369     H
C      0.15659   0.1698   0.7435     C
C      0.15659   0.8302   0.2435     C
C       0.1622  0.10074   0.9926     C
C       0.1622  0.89926   0.4926     C
C      0.16271  0.10466   0.6741     C
C      0.16271  0.89534   0.1741     C
C      0.16612  0.02641    0.055     C
C      0.16612  0.97359    0.555     C
H        0.199    0.429    0.172     H
H        0.199    0.571    0.672     H
H        0.202    0.459    0.776     H
H        0.202    0.541    0.276     H
O      0.23074  0.18909  0.85221     O
O      0.23074  0.81091  0.35221     O
O      0.23126  0.14687  0.05926     O
O      0.23126  0.85313  0.55926     O
C       0.2425  0.05781   0.7376     C
C       0.2425  0.94219   0.2376     C
C       0.2437  0.00742   0.1789     C
C       0.2437  0.99258   0.6789     C
Mg        0.25     0.25      0.0    Mg
Mg        0.25     0.75      0.5    Mg
C       0.2563  0.49258   0.8211     C
C       0.2563  0.50742   0.3211     C
C       0.2575  0.44219   0.2624     C
C       0.2575  0.55781   0.7624     C
O      0.26874  0.35313  0.94074     O
O      0.26874  0.64687  0.44074     O
O      0.26926  0.31091  0.14779     O
O      0.26926  0.68909  0.64779     O
H        0.298    0.041    0.224     H
H        0.298    0.959    0.724     H
H        0.301    0.071    0.828     H
H        0.301    0.929    0.328     H
C      0.33388  0.47359    0.945     C
C      0.33388  0.52641    0.445     C
C      0.33729  0.39534   0.3259     C
C      0.33729  0.60466   0.8259     C
C       0.3378  0.39926   0.0074     C
C       0.3378  0.60074   0.5074     C
C      0.34341   0.3302   0.2565     C
C      0.34341   0.6698   0.7565     C
H        0.381   0.0832    0.131     H
H        0.381   0.9168    0.631     H
O      0.40068  0.22153  0.11062     O
O      0.40068  0.77847  0.61062     O
O      0.41122  0.38898    0.121     O
O      0.41122  0.61102    0.621     O
C       0.4117  0.08884   0.0998     C
C       0.4117  0.91116   0.5998     C
C       0.4123  0.47742   0.5109     C
C       0.4123  0.52258   0.0109     C
C       0.4144  0.41295   0.4521     C
C       0.4144  0.58705   0.9521     C
O      0.42453  0.30089  0.31315     O
O      0.42453  0.69911  0.81315     O
H        0.425    0.023    0.583     H
H        0.425    0.977    0.083     H
N      0.42702  0.16051   0.0783     N
N      0.42702  0.83949   0.5783     N
C       0.4407  0.02509   0.0711     C
C       0.4407  0.97491   0.5711     C
H        0.466    0.492    0.597     H
H        0.466    0.508    0.097     H
C       0.4685  0.17166   0.0249     C
C       0.4685  0.82834   0.5249     C
H        0.471    0.377    0.492     H
H        0.471    0.623    0.992     H
H        0.474    0.119    0.546     H
H        0.474    0.881    0.046     H
H        0.478    0.224    0.014     H
H        0.478    0.776    0.514     H
C      0.48483  0.03389   0.0169     C
C      0.48483  0.96611   0.5169     C
C       0.4979  0.10945   0.9945     C
C       0.4979  0.89055   0.4945     C
Mg         0.5  0.30653     0.25    Mg
Mg         0.5  0.69347     0.75    Mg
C       0.5021  0.10945   0.5055     C
C       0.5021  0.89055   0.0055     C
C      0.51517  0.03389   0.4831     C
C      0.51517  0.96611   0.9831     C
H        0.522    0.224    0.486     H
H        0.522    0.776    0.986     H
H        0.526    0.119    0.954     H
H        0.526    0.881    0.454     H
H        0.529    0.377    0.008     H
H        0.529    0.623    0.508     H
C       0.5315  0.17166   0.4751     C
C       0.5315  0.82834   0.9751     C
H        0.534    0.492    0.903     H
H        0.534    0.508    0.403     H
C       0.5593  0.02509   0.4289     C
C       0.5593  0.97491   0.9289     C
N      0.57298  0.16051   0.4217     N
N      0.57298  0.83949   0.9217     N
H        0.575    0.023    0.917     H
H        0.575    0.977    0.417     H
O      0.57547  0.30089  0.18685     O
O      0.57547  0.69911  0.68685     O
C       0.5856  0.41295   0.0479     C
C       0.5856  0.58705   0.5479     C
C       0.5877  0.47742   0.9891     C
C       0.5877  0.52258   0.4891     C
C       0.5883  0.08884   0.4002     C
C       0.5883  0.91116   0.9002     C
O      0.58878  0.38898    0.379     O
O      0.58878  0.61102    0.879     O
O      0.59932  0.22153  0.38938     O
O      0.59932  0.77847  0.88938     O
H        0.619   0.0832    0.369     H
H        0.619   0.9168    0.869     H
C      0.65659   0.3302   0.2435     C
C      0.65659   0.6698   0.7435     C
C       0.6622  0.39926   0.4926     C
C       0.6622  0.60074   0.9926     C
C      0.66271  0.39534   0.1741     C
C      0.66271  0.60466   0.6741     C
C      0.66612  0.47359    0.555     C
C      0.66612  0.52641    0.055     C
H        0.699    0.071    0.672     H
H        0.699    0.929    0.172     H
H        0.702    0.041    0.276     H
H        0.702    0.959    0.776     H
O      0.73074  0.31091  0.35221     O
O      0.73074  0.68909  0.85221     O
O      0.73126  0.35313  0.55926     O
O      0.73126  0.64687  0.05926     O
C       0.7425  0.44219   0.2376     C
C       0.7425  0.55781   0.7376     C
C       0.7437  0.49258   0.6789     C
C       0.7437  0.50742   0.1789     C
Mg        0.75     0.25      0.5    Mg
Mg        0.75     0.75      0.0    Mg
C       0.7563  0.00742   0.3211     C
C       0.7563  0.99258   0.8211     C
C       0.7575  0.05781   0.7624     C
C       0.7575  0.94219   0.2624     C
O      0.76874  0.14687  0.44074     O
O      0.76874  0.85313  0.94074     O
O      0.76926  0.18909  0.64779     O
O      0.76926  0.81091  0.14779     O
H        0.798    0.459    0.724     H
H        0.798    0.541    0.224     H
H        0.801    0.429    0.328     H
H        0.801    0.571    0.828     H
C      0.83388  0.02641    0.445     C
C      0.83388  0.97359    0.945     C
C      0.83729  0.10466   0.8259     C
C      0.83729  0.89534   0.3259     C
C       0.8378  0.10074   0.5074     C
C       0.8378  0.89926   0.0074     C
C      0.84341   0.1698   0.7565     C
C      0.84341   0.8302   0.2565     C
H        0.881   0.4168    0.631     H
H        0.881   0.5832    0.131     H
O      0.90068  0.27847  0.61062     O
O      0.90068  0.72153  0.11062     O
O      0.91122  0.11102    0.621     O
O      0.91122  0.88898    0.121     O
C       0.9117  0.41116   0.5998     C
C       0.9117  0.58884   0.0998     C
C       0.9123  0.02258   0.0109     C
C       0.9123  0.97742   0.5109     C
C       0.9144  0.08705   0.9521     C
C       0.9144  0.91295   0.4521     C
O      0.92453  0.19911  0.81315     O
O      0.92453  0.80089  0.31315     O
H        0.925    0.477    0.083     H
H        0.925    0.523    0.583     H
N      0.92702  0.33949   0.5783     N
N      0.92702  0.66051   0.0783     N
C       0.9407  0.47491   0.5711     C
C       0.9407  0.52509   0.0711     C
H        0.966    0.008    0.097     H
H        0.966    0.992    0.597     H
C       0.9685  0.32834   0.5249     C
C       0.9685  0.67166   0.0249     C
H        0.971    0.123    0.992     H
H        0.971    0.877    0.492     H
H        0.974    0.381    0.046     H
H        0.974    0.619    0.546     H
H        0.978    0.276    0.514     H
H        0.978    0.724    0.014     H
C      0.98483  0.46611   0.5169     C
C      0.98483  0.53389   0.0169     C
C       0.9979  0.39055   0.4945     C
C       0.9979  0.60945   0.9945     C
