data_I
_chemical_name_common  '/home/zhangsd/repos/MofS-CGCNN/ML/data/TSD/clean_cifs/EZOFOP_clean'
_cell_length_a 26.81600
_cell_length_b 26.81600
_cell_length_c 26.81600
_cell_angle_alpha 90.00000
_cell_angle_beta  90.00000
_cell_angle_gamma 90.00000
_space_group_name_H-M_alt      'P 1'


loop_
_space_group_symop_operation_xyz
  'x, y, z' 

loop_
_atom_site_label
_atom_site_fract_x
_atom_site_fract_y
_atom_site_fract_z
_atom_site_type_symbol
Ni         0.0  0.11549      0.5    Ni
Ni         0.0  0.22163      0.5    Ni
N          0.0   0.2962      0.5     N
C          0.0   0.3224   0.4169     C
C          0.0   0.3224   0.5831     C
C          0.0   0.3269   0.4648     C
C          0.0   0.3269   0.5352     C
H          0.0   0.3549   0.4019     H
H          0.0   0.3549   0.5981     H
N          0.0   0.3725   0.4763     N
N          0.0   0.3725   0.5237     N
H          0.0   0.3978   0.4566     H
H          0.0   0.3978   0.5434     H
N          0.0      0.5   0.2038     N
Ni         0.0      0.5  0.27837    Ni
Ni         0.0      0.5  0.38451    Ni
Ni         0.0      0.5  0.61549    Ni
Ni         0.0      0.5  0.72163    Ni
N          0.0      0.5   0.7962     N
H          0.0   0.6022   0.4566     H
H          0.0   0.6022   0.5434     H
N          0.0   0.6275   0.4763     N
N          0.0   0.6275   0.5237     N
H          0.0   0.6451   0.4019     H
H          0.0   0.6451   0.5981     H
C          0.0   0.6731   0.4648     C
C          0.0   0.6731   0.5352     C
C          0.0   0.6776   0.4169     C
C          0.0   0.6776   0.5831     C
N          0.0   0.7038      0.5     N
Ni         0.0  0.77837      0.5    Ni
Ni         0.0  0.88451      0.5    Ni
N       0.0237      0.5   0.1275     N
N       0.0237      0.5   0.8725     N
H       0.0292   0.3045   0.4066     H
H       0.0292   0.3045   0.5934     H
H       0.0292   0.6955   0.4066     H
H       0.0292   0.6955   0.5934     H
C       0.0352      0.5   0.1731     C
C       0.0352      0.5   0.8269     C
H       0.0434      0.5   0.1022     H
H       0.0434      0.5   0.8978     H
O       0.0508   0.2104    0.449     O
O       0.0508   0.2104    0.551     O
O       0.0508   0.7896    0.449     O
O       0.0508   0.7896    0.551     O
O        0.051   0.4492   0.2896     O
O        0.051   0.4492   0.7104     O
O        0.051   0.5508   0.2896     O
O        0.051   0.5508   0.7104     O
O      0.05256  0.12751  0.44582     O
O      0.05256  0.12751  0.55418     O
O      0.05256  0.87249  0.44582     O
O      0.05256  0.87249  0.55418     O
O      0.05418  0.44744  0.37249     O
O      0.05418  0.44744  0.62751     O
O      0.05418  0.55256  0.37249     O
O      0.05418  0.55256  0.62751     O
C        0.064   0.1702     0.43     C
C        0.064   0.1702     0.57     C
C        0.064   0.8298     0.43     C
C        0.064   0.8298     0.57     C
C         0.07    0.436   0.3298     C
C         0.07    0.436   0.6702     C
C         0.07    0.564   0.3298     C
C         0.07    0.564   0.6702     C
C       0.0831      0.5   0.1776     C
C       0.0831      0.5   0.8224     C
H       0.0934   0.4708   0.1955     H
H       0.0934   0.4708   0.8045     H
H       0.0934   0.5292   0.1955     H
H       0.0934   0.5292   0.8045     H
H       0.0948   0.2502   0.3853     H
H       0.0948   0.2502   0.6147     H
H       0.0948   0.7498   0.3853     H
H       0.0948   0.7498   0.6147     H
C       0.0949   0.1749   0.3845     C
C       0.0949   0.1749   0.6155     C
C       0.0949   0.8251   0.3845     C
C       0.0949   0.8251   0.6155     C
H       0.0981      0.5   0.1451     H
H       0.0981      0.5   0.8549     H
H       0.1017   0.3693   0.1063     H
H       0.1017   0.3693   0.8937     H
H       0.1017   0.6307   0.1063     H
H       0.1017   0.6307   0.8937     H
H       0.1022   0.0434      0.5     H
H       0.1022   0.9566      0.5     H
C       0.1054   0.2225   0.3673     C
C       0.1054   0.2225   0.6327     C
C       0.1054   0.7775   0.3673     C
C       0.1054   0.7775   0.6327     C
H       0.1063   0.1017   0.3693     H
H       0.1063   0.1017   0.6307     H
H       0.1063   0.8983   0.3693     H
H       0.1063   0.8983   0.6307     H
C       0.1128   0.1338   0.3579     C
C       0.1128   0.1338   0.6421     C
C       0.1128   0.8662   0.3579     C
C       0.1128   0.8662   0.6421     C
H       0.1133   0.2982    0.153     H
H       0.1133   0.2982    0.847     H
H       0.1133   0.7018    0.153     H
H       0.1133   0.7018    0.847     H
H       0.1147   0.4052   0.2498     H
H       0.1147   0.4052   0.7502     H
H       0.1147   0.5948   0.2498     H
H       0.1147   0.5948   0.7502     H
Ni     0.11549      0.5      0.0    Ni
C       0.1155   0.4051   0.3251     C
C       0.1155   0.4051   0.6749     C
C       0.1155   0.5949   0.3251     C
C       0.1155   0.5949   0.6749     C
N       0.1275   0.0237      0.5     N
N       0.1275   0.9763      0.5     N
O      0.12751  0.44582  0.05256     O
O      0.12751  0.44582  0.94744     O
O      0.12751  0.55418  0.05256     O
O      0.12751  0.55418  0.94744     O
H       0.1307   0.3937   0.3983     H
H       0.1307   0.3937   0.6017     H
H       0.1307   0.6063   0.3983     H
H       0.1307   0.6063   0.6017     H
C       0.1316   0.2288    0.323     C
C       0.1316   0.2288    0.677     C
C       0.1316   0.7712    0.323     C
C       0.1316   0.7712    0.677     C
C       0.1327   0.3946   0.2775     C
C       0.1327   0.3946   0.7225     C
C       0.1327   0.6054   0.2775     C
C       0.1327   0.6054   0.7225     C
C       0.1338   0.3579   0.1128     C
C       0.1338   0.3579   0.8872     C
C       0.1338   0.6421   0.1128     C
C       0.1338   0.6421   0.8872     C
H        0.138   0.2609   0.3115     H
H        0.138   0.2609   0.6885     H
H        0.138   0.7391   0.3115     H
H        0.138   0.7391   0.6885     H
H       0.1395   0.2574   0.2258     H
H       0.1395   0.2574   0.7742     H
H       0.1395   0.7426   0.2258     H
H       0.1395   0.7426   0.7742     H
C         0.14   0.1409   0.3148     C
C         0.14   0.1409   0.6852     C
C         0.14   0.8591   0.3148     C
C         0.14   0.8591   0.6852     C
C       0.1409   0.3148     0.14     C
C       0.1409   0.3148     0.86     C
C       0.1409   0.6852     0.14     C
C       0.1409   0.6852     0.86     C
C       0.1421   0.3872   0.3662     C
C       0.1421   0.3872   0.6338     C
C       0.1421   0.6128   0.3662     C
C       0.1421   0.6128   0.6338     C
H       0.1451   0.0981      0.5     H
H       0.1451   0.9019      0.5     H
C       0.1486   0.1884   0.2956     C
C       0.1486   0.1884   0.7044     C
C       0.1486   0.8116   0.2956     C
C       0.1486   0.8116   0.7044     C
H        0.153   0.1133   0.2982     H
H        0.153   0.1133   0.7018     H
H        0.153   0.8867   0.2982     H
H        0.153   0.8867   0.7018     H
C       0.1672   0.2376   0.2189     C
C       0.1672   0.2376   0.7811     C
C       0.1672   0.7624   0.2189     C
C       0.1672   0.7624   0.7811     C
C       0.1702     0.43    0.064     C
C       0.1702     0.43    0.936     C
C       0.1702     0.57    0.064     C
C       0.1702     0.57    0.936     C
C       0.1731   0.0352      0.5     C
C       0.1731   0.9648      0.5     C
C       0.1749   0.3845   0.0949     C
C       0.1749   0.3845   0.9051     C
C       0.1749   0.6155   0.0949     C
C       0.1749   0.6155   0.9051     C
C        0.177   0.3684   0.2712     C
C        0.177   0.3684   0.7288     C
C        0.177   0.6316   0.2712     C
C        0.177   0.6316   0.7288     C
C       0.1776   0.0831      0.5     C
C       0.1776   0.9169      0.5     C
C       0.1777   0.1975   0.2492     C
C       0.1777   0.1975   0.7508     C
C       0.1777   0.8025   0.2492     C
C       0.1777   0.8025   0.7508     C
C       0.1852     0.36   0.3591     C
C       0.1852     0.36   0.6409     C
C       0.1852     0.64   0.3591     C
C       0.1852     0.64   0.6409     C
C       0.1884   0.2956   0.1486     C
C       0.1884   0.2956   0.8514     C
C       0.1884   0.7044   0.1486     C
C       0.1884   0.7044   0.8514     C
H       0.1885    0.362   0.2391     H
H       0.1885    0.362   0.7609     H
H       0.1885    0.638   0.2391     H
H       0.1885    0.638   0.7609     H
H       0.1955   0.0934   0.4708     H
H       0.1955   0.0934   0.5292     H
H       0.1955   0.9066   0.4708     H
H       0.1955   0.9066   0.5292     H
C       0.1975   0.2492   0.1777     C
C       0.1975   0.2492   0.8223     C
C       0.1975   0.7508   0.1777     C
C       0.1975   0.7508   0.8223     C
H       0.2018    0.347   0.3867     H
H       0.2018    0.347   0.6133     H
H       0.2018    0.653   0.3867     H
H       0.2018    0.653   0.6133     H
N       0.2038      0.0      0.5     N
C       0.2044   0.3514   0.3116     C
C       0.2044   0.3514   0.6884     C
C       0.2044   0.6486   0.3116     C
C       0.2044   0.6486   0.6884     C
O       0.2104    0.449   0.0508     O
O       0.2104    0.449   0.9492     O
O       0.2104    0.551   0.0508     O
O       0.2104    0.551   0.9492     O
C       0.2189   0.1672   0.2376     C
C       0.2189   0.1672   0.7624     C
C       0.2189   0.8328   0.2376     C
C       0.2189   0.8328   0.7624     C
Ni     0.22163      0.5      0.0    Ni
C       0.2225   0.3673   0.1054     C
C       0.2225   0.3673   0.8946     C
C       0.2225   0.6327   0.1054     C
C       0.2225   0.6327   0.8946     C
H       0.2258   0.1395   0.2574     H
H       0.2258   0.1395   0.7426     H
H       0.2258   0.8605   0.2574     H
H       0.2258   0.8605   0.7426     H
C       0.2288    0.323   0.1316     C
C       0.2288    0.323   0.8684     C
C       0.2288    0.677   0.1316     C
C       0.2288    0.677   0.8684     C
C       0.2376   0.2189   0.1672     C
C       0.2376   0.2189   0.8328     C
C       0.2376   0.7811   0.1672     C
C       0.2376   0.7811   0.8328     C
H       0.2391   0.1885    0.362     H
H       0.2391   0.1885    0.638     H
H       0.2391   0.8115    0.362     H
H       0.2391   0.8115    0.638     H
H       0.2426   0.2742   0.3605     H
H       0.2426   0.2742   0.6395     H
H       0.2426   0.7258   0.3605     H
H       0.2426   0.7258   0.6395     H
C       0.2492   0.1777   0.1975     C
C       0.2492   0.1777   0.8025     C
C       0.2492   0.8223   0.1975     C
C       0.2492   0.8223   0.8025     C
H       0.2498   0.1147   0.4052     H
H       0.2498   0.1147   0.5948     H
H       0.2498   0.8853   0.4052     H
H       0.2498   0.8853   0.5948     H
H       0.2502   0.3853   0.0948     H
H       0.2502   0.3853   0.9052     H
H       0.2502   0.6147   0.0948     H
H       0.2502   0.6147   0.9052     H
C       0.2508   0.3223   0.3025     C
C       0.2508   0.3223   0.6975     C
C       0.2508   0.6777   0.3025     C
C       0.2508   0.6777   0.6975     C
H       0.2574   0.2258   0.1395     H
H       0.2574   0.2258   0.8605     H
H       0.2574   0.7742   0.1395     H
H       0.2574   0.7742   0.8605     H
H       0.2609   0.3115    0.138     H
H       0.2609   0.3115    0.862     H
H       0.2609   0.6885    0.138     H
H       0.2609   0.6885    0.862     H
C       0.2624   0.2811   0.3328     C
C       0.2624   0.2811   0.6672     C
C       0.2624   0.7189   0.3328     C
C       0.2624   0.7189   0.6672     C
C       0.2712    0.177   0.3684     C
C       0.2712    0.177   0.6316     C
C       0.2712    0.823   0.3684     C
C       0.2712    0.823   0.6316     C
H       0.2742   0.3605   0.2426     H
H       0.2742   0.3605   0.7574     H
H       0.2742   0.6395   0.2426     H
H       0.2742   0.6395   0.7574     H
C       0.2775   0.1327   0.3946     C
C       0.2775   0.1327   0.6054     C
C       0.2775   0.8673   0.3946     C
C       0.2775   0.8673   0.6054     C
Ni     0.27837      0.0      0.5    Ni
C       0.2811   0.3328   0.2624     C
C       0.2811   0.3328   0.7376     C
C       0.2811   0.6672   0.2624     C
C       0.2811   0.6672   0.7376     C
O       0.2896    0.051   0.4492     O
O       0.2896    0.051   0.5508     O
O       0.2896    0.949   0.4492     O
O       0.2896    0.949   0.5508     O
C       0.2956   0.1486   0.1884     C
C       0.2956   0.1486   0.8116     C
C       0.2956   0.8514   0.1884     C
C       0.2956   0.8514   0.8116     C
N       0.2962      0.5      0.0     N
H       0.2982    0.153   0.1133     H
H       0.2982    0.153   0.8867     H
H       0.2982    0.847   0.1133     H
H       0.2982    0.847   0.8867     H
C       0.3025   0.2508   0.3223     C
C       0.3025   0.2508   0.6777     C
C       0.3025   0.7492   0.3223     C
C       0.3025   0.7492   0.6777     C
H       0.3045   0.4066   0.0292     H
H       0.3045   0.4066   0.9708     H
H       0.3045   0.5934   0.0292     H
H       0.3045   0.5934   0.9708     H
H       0.3115    0.138   0.2609     H
H       0.3115    0.138   0.7391     H
H       0.3115    0.862   0.2609     H
H       0.3115    0.862   0.7391     H
C       0.3116   0.2044   0.3514     C
C       0.3116   0.2044   0.6486     C
C       0.3116   0.7956   0.3514     C
C       0.3116   0.7956   0.6486     C
C       0.3148     0.14   0.1409     C
C       0.3148     0.14   0.8591     C
C       0.3148     0.86   0.1409     C
C       0.3148     0.86   0.8591     C
C       0.3223   0.3025   0.2508     C
C       0.3223   0.3025   0.7492     C
C       0.3223   0.6975   0.2508     C
C       0.3223   0.6975   0.7492     C
C       0.3224   0.4169      0.0     C
C       0.3224   0.5831      0.0     C
C        0.323   0.1316   0.2288     C
C        0.323   0.1316   0.7712     C
C        0.323   0.8684   0.2288     C
C        0.323   0.8684   0.7712     C
C       0.3251   0.1155   0.4051     C
C       0.3251   0.1155   0.5949     C
C       0.3251   0.8845   0.4051     C
C       0.3251   0.8845   0.5949     C
C       0.3269   0.4648      0.0     C
C       0.3269   0.5352      0.0     C
C       0.3298     0.07    0.436     C
C       0.3298     0.07    0.564     C
C       0.3298     0.93    0.436     C
C       0.3298     0.93    0.564     C
C       0.3328   0.2624   0.2811     C
C       0.3328   0.2624   0.7189     C
C       0.3328   0.7376   0.2811     C
C       0.3328   0.7376   0.7189     C
H        0.347   0.3867   0.2018     H
H        0.347   0.3867   0.7982     H
H        0.347   0.6133   0.2018     H
H        0.347   0.6133   0.7982     H
C       0.3514   0.3116   0.2044     C
C       0.3514   0.3116   0.7956     C
C       0.3514   0.6884   0.2044     C
C       0.3514   0.6884   0.7956     C
H       0.3549   0.4019      0.0     H
H       0.3549   0.5981      0.0     H
C       0.3579   0.1128   0.1338     C
C       0.3579   0.1128   0.8662     C
C       0.3579   0.8872   0.1338     C
C       0.3579   0.8872   0.8662     C
C       0.3591   0.1852     0.36     C
C       0.3591   0.1852     0.64     C
C       0.3591   0.8148     0.36     C
C       0.3591   0.8148     0.64     C
C         0.36   0.3591   0.1852     C
C         0.36   0.3591   0.8148     C
C         0.36   0.6409   0.1852     C
C         0.36   0.6409   0.8148     C
H       0.3605   0.2426   0.2742     H
H       0.3605   0.2426   0.7258     H
H       0.3605   0.7574   0.2742     H
H       0.3605   0.7574   0.7258     H
H        0.362   0.2391   0.1885     H
H        0.362   0.2391   0.8115     H
H        0.362   0.7609   0.1885     H
H        0.362   0.7609   0.8115     H
C       0.3662   0.1421   0.3872     C
C       0.3662   0.1421   0.6128     C
C       0.3662   0.8579   0.3872     C
C       0.3662   0.8579   0.6128     C
C       0.3673   0.1054   0.2225     C
C       0.3673   0.1054   0.7775     C
C       0.3673   0.8946   0.2225     C
C       0.3673   0.8946   0.7775     C
C       0.3684   0.2712    0.177     C
C       0.3684   0.2712    0.823     C
C       0.3684   0.7288    0.177     C
C       0.3684   0.7288    0.823     C
H       0.3693   0.1063   0.1017     H
H       0.3693   0.1063   0.8983     H
H       0.3693   0.8937   0.1017     H
H       0.3693   0.8937   0.8983     H
O      0.37249  0.05418  0.44744     O
O      0.37249  0.05418  0.55256     O
O      0.37249  0.94582  0.44744     O
O      0.37249  0.94582  0.55256     O
N       0.3725   0.4763      0.0     N
N       0.3725   0.5237      0.0     N
C       0.3845   0.0949   0.1749     C
C       0.3845   0.0949   0.8251     C
C       0.3845   0.9051   0.1749     C
C       0.3845   0.9051   0.8251     C
Ni     0.38451      0.0      0.5    Ni
H       0.3853   0.0948   0.2502     H
H       0.3853   0.0948   0.7498     H
H       0.3853   0.9052   0.2502     H
H       0.3853   0.9052   0.7498     H
H       0.3867   0.2018    0.347     H
H       0.3867   0.2018    0.653     H
H       0.3867   0.7982    0.347     H
H       0.3867   0.7982    0.653     H
C       0.3872   0.3662   0.1421     C
C       0.3872   0.3662   0.8579     C
C       0.3872   0.6338   0.1421     C
C       0.3872   0.6338   0.8579     C
H       0.3937   0.3983   0.1307     H
H       0.3937   0.3983   0.8693     H
H       0.3937   0.6017   0.1307     H
H       0.3937   0.6017   0.8693     H
C       0.3946   0.2775   0.1327     C
C       0.3946   0.2775   0.8673     C
C       0.3946   0.7225   0.1327     C
C       0.3946   0.7225   0.8673     C
H       0.3978   0.4566      0.0     H
H       0.3978   0.5434      0.0     H
H       0.3983   0.1307   0.3937     H
H       0.3983   0.1307   0.6063     H
H       0.3983   0.8693   0.3937     H
H       0.3983   0.8693   0.6063     H
H       0.4019      0.0   0.3549     H
H       0.4019      0.0   0.6451     H
C       0.4051   0.3251   0.1155     C
C       0.4051   0.3251   0.8845     C
C       0.4051   0.6749   0.1155     C
C       0.4051   0.6749   0.8845     C
H       0.4052   0.2498   0.1147     H
H       0.4052   0.2498   0.8853     H
H       0.4052   0.7502   0.1147     H
H       0.4052   0.7502   0.8853     H
H       0.4066   0.0292   0.3045     H
H       0.4066   0.0292   0.6955     H
H       0.4066   0.9708   0.3045     H
H       0.4066   0.9708   0.6955     H
C       0.4169      0.0   0.3224     C
C       0.4169      0.0   0.6776     C
C         0.43    0.064   0.1702     C
C         0.43    0.064   0.8298     C
C         0.43    0.936   0.1702     C
C         0.43    0.936   0.8298     C
C        0.436   0.3298     0.07     C
C        0.436   0.3298     0.93     C
C        0.436   0.6702     0.07     C
C        0.436   0.6702     0.93     C
O      0.44582  0.05256  0.12751     O
O      0.44582  0.05256  0.87249     O
O      0.44582  0.94744  0.12751     O
O      0.44582  0.94744  0.87249     O
O      0.44744  0.37249  0.05418     O
O      0.44744  0.37249  0.94582     O
O      0.44744  0.62751  0.05418     O
O      0.44744  0.62751  0.94582     O
O        0.449   0.0508   0.2104     O
O        0.449   0.0508   0.7896     O
O        0.449   0.9492   0.2104     O
O        0.449   0.9492   0.7896     O
O       0.4492   0.2896    0.051     O
O       0.4492   0.2896    0.949     O
O       0.4492   0.7104    0.051     O
O       0.4492   0.7104    0.949     O
H       0.4566      0.0   0.3978     H
H       0.4566      0.0   0.6022     H
C       0.4648      0.0   0.3269     C
C       0.4648      0.0   0.6731     C
H       0.4708   0.1955   0.0934     H
H       0.4708   0.1955   0.9066     H
H       0.4708   0.8045   0.0934     H
H       0.4708   0.8045   0.9066     H
N       0.4763      0.0   0.3725     N
N       0.4763      0.0   0.6275     N
Ni         0.5      0.0  0.11549    Ni
Ni         0.5      0.0  0.22163    Ni
N          0.5      0.0   0.2962     N
N          0.5      0.0   0.7038     N
Ni         0.5      0.0  0.77837    Ni
Ni         0.5      0.0  0.88451    Ni
H          0.5   0.1022   0.0434     H
H          0.5   0.1022   0.9566     H
N          0.5   0.1275   0.0237     N
N          0.5   0.1275   0.9763     N
H          0.5   0.1451   0.0981     H
H          0.5   0.1451   0.9019     H
C          0.5   0.1731   0.0352     C
C          0.5   0.1731   0.9648     C
C          0.5   0.1776   0.0831     C
C          0.5   0.1776   0.9169     C
N          0.5   0.2038      0.0     N
Ni         0.5  0.27837      0.0    Ni
Ni         0.5  0.38451      0.0    Ni
Ni         0.5  0.61549      0.0    Ni
Ni         0.5  0.72163      0.0    Ni
N          0.5   0.7962      0.0     N
C          0.5   0.8224   0.0831     C
C          0.5   0.8224   0.9169     C
C          0.5   0.8269   0.0352     C
C          0.5   0.8269   0.9648     C
H          0.5   0.8549   0.0981     H
H          0.5   0.8549   0.9019     H
N          0.5   0.8725   0.0237     N
N          0.5   0.8725   0.9763     N
H          0.5   0.8978   0.0434     H
H          0.5   0.8978   0.9566     H
N       0.5237      0.0   0.3725     N
N       0.5237      0.0   0.6275     N
H       0.5292   0.1955   0.0934     H
H       0.5292   0.1955   0.9066     H
H       0.5292   0.8045   0.0934     H
H       0.5292   0.8045   0.9066     H
C       0.5352      0.0   0.3269     C
C       0.5352      0.0   0.6731     C
H       0.5434      0.0   0.3978     H
H       0.5434      0.0   0.6022     H
O       0.5508   0.2896    0.051     O
O       0.5508   0.2896    0.949     O
O       0.5508   0.7104    0.051     O
O       0.5508   0.7104    0.949     O
O        0.551   0.0508   0.2104     O
O        0.551   0.0508   0.7896     O
O        0.551   0.9492   0.2104     O
O        0.551   0.9492   0.7896     O
O      0.55256  0.37249  0.05418     O
O      0.55256  0.37249  0.94582     O
O      0.55256  0.62751  0.05418     O
O      0.55256  0.62751  0.94582     O
O      0.55418  0.05256  0.12751     O
O      0.55418  0.05256  0.87249     O
O      0.55418  0.94744  0.12751     O
O      0.55418  0.94744  0.87249     O
C        0.564   0.3298     0.07     C
C        0.564   0.3298     0.93     C
C        0.564   0.6702     0.07     C
C        0.564   0.6702     0.93     C
C         0.57    0.064   0.1702     C
C         0.57    0.064   0.8298     C
C         0.57    0.936   0.1702     C
C         0.57    0.936   0.8298     C
C       0.5831      0.0   0.3224     C
C       0.5831      0.0   0.6776     C
H       0.5934   0.0292   0.3045     H
H       0.5934   0.0292   0.6955     H
H       0.5934   0.9708   0.3045     H
H       0.5934   0.9708   0.6955     H
H       0.5948   0.2498   0.1147     H
H       0.5948   0.2498   0.8853     H
H       0.5948   0.7502   0.1147     H
H       0.5948   0.7502   0.8853     H
C       0.5949   0.3251   0.1155     C
C       0.5949   0.3251   0.8845     C
C       0.5949   0.6749   0.1155     C
C       0.5949   0.6749   0.8845     C
H       0.5981      0.0   0.3549     H
H       0.5981      0.0   0.6451     H
H       0.6017   0.1307   0.3937     H
H       0.6017   0.1307   0.6063     H
H       0.6017   0.8693   0.3937     H
H       0.6017   0.8693   0.6063     H
H       0.6022   0.4566      0.0     H
H       0.6022   0.5434      0.0     H
C       0.6054   0.2775   0.1327     C
C       0.6054   0.2775   0.8673     C
C       0.6054   0.7225   0.1327     C
C       0.6054   0.7225   0.8673     C
H       0.6063   0.3983   0.1307     H
H       0.6063   0.3983   0.8693     H
H       0.6063   0.6017   0.1307     H
H       0.6063   0.6017   0.8693     H
C       0.6128   0.3662   0.1421     C
C       0.6128   0.3662   0.8579     C
C       0.6128   0.6338   0.1421     C
C       0.6128   0.6338   0.8579     C
H       0.6133   0.2018    0.347     H
H       0.6133   0.2018    0.653     H
H       0.6133   0.7982    0.347     H
H       0.6133   0.7982    0.653     H
H       0.6147   0.0948   0.2502     H
H       0.6147   0.0948   0.7498     H
H       0.6147   0.9052   0.2502     H
H       0.6147   0.9052   0.7498     H
Ni     0.61549      0.0      0.5    Ni
C       0.6155   0.0949   0.1749     C
C       0.6155   0.0949   0.8251     C
C       0.6155   0.9051   0.1749     C
C       0.6155   0.9051   0.8251     C
N       0.6275   0.4763      0.0     N
N       0.6275   0.5237      0.0     N
O      0.62751  0.05418  0.44744     O
O      0.62751  0.05418  0.55256     O
O      0.62751  0.94582  0.44744     O
O      0.62751  0.94582  0.55256     O
H       0.6307   0.1063   0.1017     H
H       0.6307   0.1063   0.8983     H
H       0.6307   0.8937   0.1017     H
H       0.6307   0.8937   0.8983     H
C       0.6316   0.2712    0.177     C
C       0.6316   0.2712    0.823     C
C       0.6316   0.7288    0.177     C
C       0.6316   0.7288    0.823     C
C       0.6327   0.1054   0.2225     C
C       0.6327   0.1054   0.7775     C
C       0.6327   0.8946   0.2225     C
C       0.6327   0.8946   0.7775     C
C       0.6338   0.1421   0.3872     C
C       0.6338   0.1421   0.6128     C
C       0.6338   0.8579   0.3872     C
C       0.6338   0.8579   0.6128     C
H        0.638   0.2391   0.1885     H
H        0.638   0.2391   0.8115     H
H        0.638   0.7609   0.1885     H
H        0.638   0.7609   0.8115     H
H       0.6395   0.2426   0.2742     H
H       0.6395   0.2426   0.7258     H
H       0.6395   0.7574   0.2742     H
H       0.6395   0.7574   0.7258     H
C         0.64   0.3591   0.1852     C
C         0.64   0.3591   0.8148     C
C         0.64   0.6409   0.1852     C
C         0.64   0.6409   0.8148     C
C       0.6409   0.1852     0.36     C
C       0.6409   0.1852     0.64     C
C       0.6409   0.8148     0.36     C
C       0.6409   0.8148     0.64     C
C       0.6421   0.1128   0.1338     C
C       0.6421   0.1128   0.8662     C
C       0.6421   0.8872   0.1338     C
C       0.6421   0.8872   0.8662     C
H       0.6451   0.4019      0.0     H
H       0.6451   0.5981      0.0     H
C       0.6486   0.3116   0.2044     C
C       0.6486   0.3116   0.7956     C
C       0.6486   0.6884   0.2044     C
C       0.6486   0.6884   0.7956     C
H        0.653   0.3867   0.2018     H
H        0.653   0.3867   0.7982     H
H        0.653   0.6133   0.2018     H
H        0.653   0.6133   0.7982     H
C       0.6672   0.2624   0.2811     C
C       0.6672   0.2624   0.7189     C
C       0.6672   0.7376   0.2811     C
C       0.6672   0.7376   0.7189     C
C       0.6702     0.07    0.436     C
C       0.6702     0.07    0.564     C
C       0.6702     0.93    0.436     C
C       0.6702     0.93    0.564     C
C       0.6731   0.4648      0.0     C
C       0.6731   0.5352      0.0     C
C       0.6749   0.1155   0.4051     C
C       0.6749   0.1155   0.5949     C
C       0.6749   0.8845   0.4051     C
C       0.6749   0.8845   0.5949     C
C        0.677   0.1316   0.2288     C
C        0.677   0.1316   0.7712     C
C        0.677   0.8684   0.2288     C
C        0.677   0.8684   0.7712     C
C       0.6776   0.4169      0.0     C
C       0.6776   0.5831      0.0     C
C       0.6777   0.3025   0.2508     C
C       0.6777   0.3025   0.7492     C
C       0.6777   0.6975   0.2508     C
C       0.6777   0.6975   0.7492     C
C       0.6852     0.14   0.1409     C
C       0.6852     0.14   0.8591     C
C       0.6852     0.86   0.1409     C
C       0.6852     0.86   0.8591     C
C       0.6884   0.2044   0.3514     C
C       0.6884   0.2044   0.6486     C
C       0.6884   0.7956   0.3514     C
C       0.6884   0.7956   0.6486     C
H       0.6885    0.138   0.2609     H
H       0.6885    0.138   0.7391     H
H       0.6885    0.862   0.2609     H
H       0.6885    0.862   0.7391     H
H       0.6955   0.4066   0.0292     H
H       0.6955   0.4066   0.9708     H
H       0.6955   0.5934   0.0292     H
H       0.6955   0.5934   0.9708     H
C       0.6975   0.2508   0.3223     C
C       0.6975   0.2508   0.6777     C
C       0.6975   0.7492   0.3223     C
C       0.6975   0.7492   0.6777     C
H       0.7018    0.153   0.1133     H
H       0.7018    0.153   0.8867     H
H       0.7018    0.847   0.1133     H
H       0.7018    0.847   0.8867     H
N       0.7038      0.5      0.0     N
C       0.7044   0.1486   0.1884     C
C       0.7044   0.1486   0.8116     C
C       0.7044   0.8514   0.1884     C
C       0.7044   0.8514   0.8116     C
O       0.7104    0.051   0.4492     O
O       0.7104    0.051   0.5508     O
O       0.7104    0.949   0.4492     O
O       0.7104    0.949   0.5508     O
C       0.7189   0.3328   0.2624     C
C       0.7189   0.3328   0.7376     C
C       0.7189   0.6672   0.2624     C
C       0.7189   0.6672   0.7376     C
Ni     0.72163      0.0      0.5    Ni
C       0.7225   0.1327   0.3946     C
C       0.7225   0.1327   0.6054     C
C       0.7225   0.8673   0.3946     C
C       0.7225   0.8673   0.6054     C
H       0.7258   0.3605   0.2426     H
H       0.7258   0.3605   0.7574     H
H       0.7258   0.6395   0.2426     H
H       0.7258   0.6395   0.7574     H
C       0.7288    0.177   0.3684     C
C       0.7288    0.177   0.6316     C
C       0.7288    0.823   0.3684     C
C       0.7288    0.823   0.6316     C
C       0.7376   0.2811   0.3328     C
C       0.7376   0.2811   0.6672     C
C       0.7376   0.7189   0.3328     C
C       0.7376   0.7189   0.6672     C
H       0.7391   0.3115    0.138     H
H       0.7391   0.3115    0.862     H
H       0.7391   0.6885    0.138     H
H       0.7391   0.6885    0.862     H
H       0.7426   0.2258   0.1395     H
H       0.7426   0.2258   0.8605     H
H       0.7426   0.7742   0.1395     H
H       0.7426   0.7742   0.8605     H
C       0.7492   0.3223   0.3025     C
C       0.7492   0.3223   0.6975     C
C       0.7492   0.6777   0.3025     C
C       0.7492   0.6777   0.6975     C
H       0.7498   0.3853   0.0948     H
H       0.7498   0.3853   0.9052     H
H       0.7498   0.6147   0.0948     H
H       0.7498   0.6147   0.9052     H
H       0.7502   0.1147   0.4052     H
H       0.7502   0.1147   0.5948     H
H       0.7502   0.8853   0.4052     H
H       0.7502   0.8853   0.5948     H
C       0.7508   0.1777   0.1975     C
C       0.7508   0.1777   0.8025     C
C       0.7508   0.8223   0.1975     C
C       0.7508   0.8223   0.8025     C
H       0.7574   0.2742   0.3605     H
H       0.7574   0.2742   0.6395     H
H       0.7574   0.7258   0.3605     H
H       0.7574   0.7258   0.6395     H
H       0.7609   0.1885    0.362     H
H       0.7609   0.1885    0.638     H
H       0.7609   0.8115    0.362     H
H       0.7609   0.8115    0.638     H
C       0.7624   0.2189   0.1672     C
C       0.7624   0.2189   0.8328     C
C       0.7624   0.7811   0.1672     C
C       0.7624   0.7811   0.8328     C
C       0.7712    0.323   0.1316     C
C       0.7712    0.323   0.8684     C
C       0.7712    0.677   0.1316     C
C       0.7712    0.677   0.8684     C
H       0.7742   0.1395   0.2574     H
H       0.7742   0.1395   0.7426     H
H       0.7742   0.8605   0.2574     H
H       0.7742   0.8605   0.7426     H
C       0.7775   0.3673   0.1054     C
C       0.7775   0.3673   0.8946     C
C       0.7775   0.6327   0.1054     C
C       0.7775   0.6327   0.8946     C
Ni     0.77837      0.5      0.0    Ni
C       0.7811   0.1672   0.2376     C
C       0.7811   0.1672   0.7624     C
C       0.7811   0.8328   0.2376     C
C       0.7811   0.8328   0.7624     C
O       0.7896    0.449   0.0508     O
O       0.7896    0.449   0.9492     O
O       0.7896    0.551   0.0508     O
O       0.7896    0.551   0.9492     O
C       0.7956   0.3514   0.3116     C
C       0.7956   0.3514   0.6884     C
C       0.7956   0.6486   0.3116     C
C       0.7956   0.6486   0.6884     C
N       0.7962      0.0      0.5     N
H       0.7982    0.347   0.3867     H
H       0.7982    0.347   0.6133     H
H       0.7982    0.653   0.3867     H
H       0.7982    0.653   0.6133     H
C       0.8025   0.2492   0.1777     C
C       0.8025   0.2492   0.8223     C
C       0.8025   0.7508   0.1777     C
C       0.8025   0.7508   0.8223     C
H       0.8045   0.0934   0.4708     H
H       0.8045   0.0934   0.5292     H
H       0.8045   0.9066   0.4708     H
H       0.8045   0.9066   0.5292     H
H       0.8115    0.362   0.2391     H
H       0.8115    0.362   0.7609     H
H       0.8115    0.638   0.2391     H
H       0.8115    0.638   0.7609     H
C       0.8116   0.2956   0.1486     C
C       0.8116   0.2956   0.8514     C
C       0.8116   0.7044   0.1486     C
C       0.8116   0.7044   0.8514     C
C       0.8148     0.36   0.3591     C
C       0.8148     0.36   0.6409     C
C       0.8148     0.64   0.3591     C
C       0.8148     0.64   0.6409     C
C       0.8223   0.1975   0.2492     C
C       0.8223   0.1975   0.7508     C
C       0.8223   0.8025   0.2492     C
C       0.8223   0.8025   0.7508     C
C       0.8224   0.0831      0.5     C
C       0.8224   0.9169      0.5     C
C        0.823   0.3684   0.2712     C
C        0.823   0.3684   0.7288     C
C        0.823   0.6316   0.2712     C
C        0.823   0.6316   0.7288     C
C       0.8251   0.3845   0.0949     C
C       0.8251   0.3845   0.9051     C
C       0.8251   0.6155   0.0949     C
C       0.8251   0.6155   0.9051     C
C       0.8269   0.0352      0.5     C
C       0.8269   0.9648      0.5     C
C       0.8298     0.43    0.064     C
C       0.8298     0.43    0.936     C
C       0.8298     0.57    0.064     C
C       0.8298     0.57    0.936     C
C       0.8328   0.2376   0.2189     C
C       0.8328   0.2376   0.7811     C
C       0.8328   0.7624   0.2189     C
C       0.8328   0.7624   0.7811     C
H        0.847   0.1133   0.2982     H
H        0.847   0.1133   0.7018     H
H        0.847   0.8867   0.2982     H
H        0.847   0.8867   0.7018     H
C       0.8514   0.1884   0.2956     C
C       0.8514   0.1884   0.7044     C
C       0.8514   0.8116   0.2956     C
C       0.8514   0.8116   0.7044     C
H       0.8549   0.0981      0.5     H
H       0.8549   0.9019      0.5     H
C       0.8579   0.3872   0.3662     C
C       0.8579   0.3872   0.6338     C
C       0.8579   0.6128   0.3662     C
C       0.8579   0.6128   0.6338     C
C       0.8591   0.3148     0.14     C
C       0.8591   0.3148     0.86     C
C       0.8591   0.6852     0.14     C
C       0.8591   0.6852     0.86     C
C         0.86   0.1409   0.3148     C
C         0.86   0.1409   0.6852     C
C         0.86   0.8591   0.3148     C
C         0.86   0.8591   0.6852     C
H       0.8605   0.2574   0.2258     H
H       0.8605   0.2574   0.7742     H
H       0.8605   0.7426   0.2258     H
H       0.8605   0.7426   0.7742     H
H        0.862   0.2609   0.3115     H
H        0.862   0.2609   0.6885     H
H        0.862   0.7391   0.3115     H
H        0.862   0.7391   0.6885     H
C       0.8662   0.3579   0.1128     C
C       0.8662   0.3579   0.8872     C
C       0.8662   0.6421   0.1128     C
C       0.8662   0.6421   0.8872     C
C       0.8673   0.3946   0.2775     C
C       0.8673   0.3946   0.7225     C
C       0.8673   0.6054   0.2775     C
C       0.8673   0.6054   0.7225     C
C       0.8684   0.2288    0.323     C
C       0.8684   0.2288    0.677     C
C       0.8684   0.7712    0.323     C
C       0.8684   0.7712    0.677     C
H       0.8693   0.3937   0.3983     H
H       0.8693   0.3937   0.6017     H
H       0.8693   0.6063   0.3983     H
H       0.8693   0.6063   0.6017     H
O      0.87249  0.44582  0.05256     O
O      0.87249  0.44582  0.94744     O
O      0.87249  0.55418  0.05256     O
O      0.87249  0.55418  0.94744     O
N       0.8725   0.0237      0.5     N
N       0.8725   0.9763      0.5     N
C       0.8845   0.4051   0.3251     C
C       0.8845   0.4051   0.6749     C
C       0.8845   0.5949   0.3251     C
C       0.8845   0.5949   0.6749     C
Ni     0.88451      0.5      0.0    Ni
H       0.8853   0.4052   0.2498     H
H       0.8853   0.4052   0.7502     H
H       0.8853   0.5948   0.2498     H
H       0.8853   0.5948   0.7502     H
H       0.8867   0.2982    0.153     H
H       0.8867   0.2982    0.847     H
H       0.8867   0.7018    0.153     H
H       0.8867   0.7018    0.847     H
C       0.8872   0.1338   0.3579     C
C       0.8872   0.1338   0.6421     C
C       0.8872   0.8662   0.3579     C
C       0.8872   0.8662   0.6421     C
H       0.8937   0.1017   0.3693     H
H       0.8937   0.1017   0.6307     H
H       0.8937   0.8983   0.3693     H
H       0.8937   0.8983   0.6307     H
C       0.8946   0.2225   0.3673     C
C       0.8946   0.2225   0.6327     C
C       0.8946   0.7775   0.3673     C
C       0.8946   0.7775   0.6327     C
H       0.8978   0.0434      0.5     H
H       0.8978   0.9566      0.5     H
H       0.8983   0.3693   0.1063     H
H       0.8983   0.3693   0.8937     H
H       0.8983   0.6307   0.1063     H
H       0.8983   0.6307   0.8937     H
H       0.9019      0.5   0.1451     H
H       0.9019      0.5   0.8549     H
C       0.9051   0.1749   0.3845     C
C       0.9051   0.1749   0.6155     C
C       0.9051   0.8251   0.3845     C
C       0.9051   0.8251   0.6155     C
H       0.9052   0.2502   0.3853     H
H       0.9052   0.2502   0.6147     H
H       0.9052   0.7498   0.3853     H
H       0.9052   0.7498   0.6147     H
H       0.9066   0.4708   0.1955     H
H       0.9066   0.4708   0.8045     H
H       0.9066   0.5292   0.1955     H
H       0.9066   0.5292   0.8045     H
C       0.9169      0.5   0.1776     C
C       0.9169      0.5   0.8224     C
C         0.93    0.436   0.3298     C
C         0.93    0.436   0.6702     C
C         0.93    0.564   0.3298     C
C         0.93    0.564   0.6702     C
C        0.936   0.1702     0.43     C
C        0.936   0.1702     0.57     C
C        0.936   0.8298     0.43     C
C        0.936   0.8298     0.57     C
O      0.94582  0.44744  0.37249     O
O      0.94582  0.44744  0.62751     O
O      0.94582  0.55256  0.37249     O
O      0.94582  0.55256  0.62751     O
O      0.94744  0.12751  0.44582     O
O      0.94744  0.12751  0.55418     O
O      0.94744  0.87249  0.44582     O
O      0.94744  0.87249  0.55418     O
O        0.949   0.4492   0.2896     O
O        0.949   0.4492   0.7104     O
O        0.949   0.5508   0.2896     O
O        0.949   0.5508   0.7104     O
O       0.9492   0.2104    0.449     O
O       0.9492   0.2104    0.551     O
O       0.9492   0.7896    0.449     O
O       0.9492   0.7896    0.551     O
H       0.9566      0.5   0.1022     H
H       0.9566      0.5   0.8978     H
C       0.9648      0.5   0.1731     C
C       0.9648      0.5   0.8269     C
H       0.9708   0.3045   0.4066     H
H       0.9708   0.3045   0.5934     H
H       0.9708   0.6955   0.4066     H
H       0.9708   0.6955   0.5934     H
N       0.9763      0.5   0.1275     N
N       0.9763      0.5   0.8725     N
