data_I
_chemical_name_common  '/home/zhangsd/repos/MofS-CGCNN/ML/data/TSD/clean_cifs/FAGQAI_clean'
_cell_length_a 17.11610
_cell_length_b 38.68620
_cell_length_c 25.64670
_cell_angle_alpha 90.00000
_cell_angle_beta  101.44100
_cell_angle_gamma 90.00000
_space_group_name_H-M_alt      'P 1'


loop_
_space_group_symop_operation_xyz
  'x, y, z' 

loop_
_atom_site_label
_atom_site_fract_x
_atom_site_fract_y
_atom_site_fract_z
_atom_site_type_symbol
C       0.0034  0.15915   0.8826     C
C       0.0034  0.34085   0.3826     C
C       0.0044  0.17506   0.0995     C
C       0.0044  0.32494   0.5995     C
O        0.005  0.20008  0.67579     O
O        0.005  0.29992  0.17579     O
Cu     0.00609  0.53399  0.99967    Cu
Cu     0.00609  0.96601  0.49967    Cu
H       0.0082   0.6642   0.1477     H
H       0.0082   0.8358   0.6477     H
O       0.0088  0.21751  0.30243     O
O       0.0088  0.28249  0.80243     O
C       0.0111  0.63129   0.5853     C
C       0.0111  0.86871   0.0853     C
H       0.0178   0.6413   0.4616     H
H       0.0178   0.8587   0.9616     H
C       0.0184  0.14644   0.0701     C
C       0.0184  0.35356   0.5701     C
O        0.021  0.72885  0.33571     O
O        0.021  0.77115  0.83571     O
H       0.0244   0.1486   0.6206     H
H       0.0244   0.3514   0.1206     H
H       0.0252   0.1263   0.9464     H
H       0.0252   0.3737   0.4464     H
O      0.02957  0.02915   0.5767     O
O      0.02957  0.47085   0.0767     O
C       0.0304  0.69498   0.6989     C
C       0.0304  0.80502   0.1989     C
O       0.0326  0.21183  0.81639     O
O       0.0326  0.28817  0.31639     O
O       0.0387   0.5287   0.0763     O
O       0.0387   0.9713   0.5763     O
H       0.0411   0.6888   0.4117     H
H       0.0411   0.8112   0.9117     H
C       0.0425  0.00012  0.59874     C
C       0.0425  0.49988  0.09874     C
C       0.0427  0.21216   0.1798     C
C       0.0427  0.28784   0.6798     C
C       0.0485  0.66608   0.6641     C
C       0.0485  0.83392   0.1641     C
H       0.0489    0.173   0.8933     H
H       0.0489    0.327   0.3933     H
C       0.0583  0.18299   0.1453     C
C       0.0583  0.31701   0.6453     C
Cu      0.0598    0.734  0.79494    Cu
Cu      0.0598    0.766  0.29494    Cu
C       0.0623  0.50025    0.159     C
C       0.0623  0.99975    0.659     C
C       0.0635  0.66144   0.1593     C
C       0.0635  0.83856   0.6593     C
C       0.0666  0.71407   0.2183     C
C       0.0666  0.78593   0.7183     C
H       0.0676   0.0516   0.6686     H
H       0.0676   0.4484   0.1686     H
H       0.0695   0.5519   0.1686     H
H       0.0695   0.9481   0.6686     H
C       0.0713  0.03042   0.6869     C
C       0.0713  0.46958   0.1869     C
Cu     0.07217  0.24768   0.7742    Cu
Cu     0.07217  0.25232   0.2742    Cu
C       0.0722  0.53085   0.1871     C
C       0.0722  0.96915   0.6871     C
H       0.0739   0.6171   0.1189     H
H       0.0739   0.8829   0.6189     H
C       0.0768  0.19485   0.6972     C
C       0.0768  0.30515   0.1972     C
C       0.0774  0.61154      0.6     C
C       0.0774  0.88846      0.1     C
C       0.0775  0.14354   0.6365     C
C       0.0775  0.35646   0.1365     C
O       0.0779  0.69917  0.74328     O
O       0.0779  0.80083  0.24328     O
C       0.0827  0.12562   0.0857     C
C       0.0827  0.37438   0.5857     C
H       0.0852   0.1002   0.5941     H
H       0.0852   0.3998   0.0941     H
C       0.0859  0.03011   0.7425     C
C       0.0859  0.46989   0.2425     C
C       0.0859    0.531   0.2416     C
C       0.0859    0.969   0.7416     C
C       0.0897  0.50025   0.2701     C
C       0.0897  0.99975   0.7701     C
C       0.0902  0.58247   0.5687     C
C       0.0902  0.91753   0.0687     C
O       0.0917  0.21834  0.22207     O
O       0.0917  0.28166  0.72207     O
H       0.0928   0.5522   0.2599     H
H       0.0928   0.9478   0.7599     H
C       0.0929  0.09545   0.0571     C
C       0.0929  0.40455   0.5571     C
H       0.0932   0.0511   0.7612     H
H       0.0932   0.4489   0.2612     H
C       0.0985    8e-05   0.8269     C
C       0.0985  0.49992   0.3269     C
C       0.1003  0.06868   0.0342     C
C       0.1003  0.43132   0.5342     C
C       0.1008  0.55796   0.5441     C
C       0.1008  0.94204   0.0441     C
H       0.1013   0.0543   0.9348     H
H       0.1013   0.4457   0.4348     H
H       0.1023   0.5498   0.4424     H
H       0.1023   0.9502   0.9424     H
C       0.1026  0.03386   0.9547     C
C       0.1026  0.46614   0.4547     C
C       0.1028  0.03539   0.0084     C
C       0.1028  0.46461   0.5084     C
C        0.103  0.00073   0.8732     C
C        0.103  0.49927   0.3732     C
C       0.1033  0.63352   0.1418     C
C       0.1033  0.86648   0.6418     C
C       0.1039  0.52822   0.4595     C
C       0.1039  0.97178   0.9595     C
C       0.1044  0.00226   0.9304     C
C       0.1044  0.00551   0.0371     C
C       0.1044  0.49449   0.5371     C
C       0.1044  0.49774   0.4304     C
H       0.1046   0.0067   0.0738     H
H       0.1046   0.4933   0.5738     H
O      0.10507  0.03418  0.49134     O
O      0.10507  0.46582  0.99134     O
O       0.1053    0.731  0.25577     O
O       0.1053    0.769  0.75577     O
C       0.1058   0.5264    0.513     C
C       0.1058   0.9736    0.013     C
C       0.1076  0.68521   0.1943     C
C       0.1076  0.81479   0.6943     C
C       0.1145  0.11479   0.6201     C
C       0.1145  0.38521   0.1201     C
C       0.1146   0.6471   0.6788     C
C       0.1146   0.8529   0.1788     C
O      0.11504  0.52344  0.99088     O
O      0.11504  0.97656  0.49088     O
O       0.1157  0.21097  0.73568     O
O       0.1157  0.28903  0.23568     O
C       0.1175  0.16436   0.6754     C
C       0.1175  0.33564   0.1754     C
C       0.1249  0.16354   0.1613     C
C       0.1249  0.33646   0.6613     C
C        0.132  0.61878   0.6469     C
C        0.132  0.88122   0.1469     C
C       0.1369  0.13391   0.1322     C
C       0.1369  0.36609   0.6322     C
C       0.1414  0.00664  0.48752     C
C       0.1414  0.49336  0.98752     C
H       0.1502   0.6525   0.7106     H
H       0.1502   0.8475   0.2106     H
H       0.1627   0.1699   0.1916     H
H       0.1627   0.3301   0.6916     H
H       0.1786   0.6055   0.6572     H
H       0.1786   0.8945   0.1572     H
H       0.1814   0.1197   0.1441     H
H       0.1814   0.3803   0.6441     H
C        0.184  0.62943   0.1571     C
C        0.184  0.87057   0.6571     C
C       0.1884  0.68177   0.2101     C
C       0.1884  0.81823   0.7101     C
C        0.192  0.10714   0.6406     C
C        0.192  0.39286   0.1406     C
C       0.1947  0.15721   0.6962     C
C       0.1947  0.34279   0.1962     C
H       0.2089   0.5119   0.1288     H
H       0.2089   0.9881   0.6288     H
H       0.2173   0.6977   0.2341     H
H       0.2173   0.8023   0.7341     H
H       0.2226   0.1716   0.7232     H
H       0.2226   0.3284   0.2232     H
C       0.2239  0.00967  0.47529     C
C       0.2239  0.49033  0.97529     C
C       0.2243  0.59952   0.1404     C
C       0.2243  0.90048   0.6404     C
H       0.2282   0.0617   0.4751     H
H       0.2282   0.4383   0.9751     H
C        0.229  0.07664   0.6276     C
C        0.229  0.42336   0.1276     C
C       0.2291  0.65383   0.1901     C
C       0.2291  0.84617   0.6901     C
C       0.2341  0.12922    0.679     C
C       0.2341  0.37078    0.179     C
H       0.2424   0.5419   0.9727     H
H       0.2424   0.9581   0.4727     H
C       0.2563  0.04156   0.4699     C
C       0.2563  0.45844   0.9699     C
C       0.2573  0.57495   0.1285     C
C       0.2573  0.92505   0.6285     C
C       0.2599  0.51274   0.1203     C
C       0.2599  0.98726   0.6203     C
C       0.2609  0.05065   0.6181     C
C       0.2609  0.44935   0.1181     C
C       0.2649  0.52007   0.9688     C
C       0.2649  0.97993   0.4688     C
H       0.2849    0.652    0.199     H
H       0.2849    0.848    0.699     H
H       0.2884   0.1253    0.693     H
H       0.2884   0.3747    0.193     H
C       0.2963  0.54402   0.1164     C
C       0.2963  0.95598   0.6164     C
C       0.2983   0.0175  0.61181     C
C       0.2983   0.4825  0.11181     C
C       0.3325  0.04374   0.4566     C
C       0.3325  0.45626   0.9566     C
C       0.3408   0.5174   0.9563     C
C       0.3408   0.9826   0.4563     C
H       0.3551   0.0655   0.4525     H
H       0.3551   0.4345   0.9525     H
H       0.3699   0.5376   0.9526     H
H       0.3699   0.9624   0.4526     H
C       0.3712  0.54535  0.10183     C
C       0.3712  0.95465  0.60183     C
C       0.3731  0.01427   0.4496     C
C       0.3731  0.48573   0.9496     C
C       0.3733  0.01626  0.59656     C
C       0.3733  0.48374  0.09656     C
H       0.3959   0.5668   0.0991     H
H       0.3959   0.9332   0.5991     H
H       0.3988   0.0368   0.5899     H
H       0.3988   0.4632   0.0899     H
C       0.4088  0.51511  0.09152     C
C       0.4088  0.98489  0.59152     C
C       0.4505  0.01649   0.4352     C
C       0.4505  0.48351   0.9352     C
C       0.4833  0.51629   0.0776     C
C       0.4833  0.98371   0.5776     C
C       0.5167  0.01629   0.4224     C
C       0.5167  0.48371   0.9224     C
C       0.5495  0.51649   0.0648     C
C       0.5495  0.98351   0.5648     C
C       0.5912  0.01511  0.40848     C
C       0.5912  0.48489  0.90848     C
H       0.6012   0.5368   0.9101     H
H       0.6012   0.9632   0.4101     H
H       0.6041   0.0668   0.4009     H
H       0.6041   0.4332   0.9009     H
C       0.6267  0.51626  0.90344     C
C       0.6267  0.98374  0.40344     C
C       0.6269  0.51427   0.0504     C
C       0.6269  0.98573   0.5504     C
C       0.6288  0.04535  0.39817     C
C       0.6288  0.45465  0.89817     C
H       0.6301   0.0376   0.5474     H
H       0.6301   0.4624   0.0474     H
H       0.6449   0.5655   0.0475     H
H       0.6449   0.9345   0.5475     H
C       0.6592   0.0174   0.5437     C
C       0.6592   0.4826   0.0437     C
C       0.6675  0.54374   0.0434     C
C       0.6675  0.95626   0.5434     C
C       0.7017   0.5175  0.88819     C
C       0.7017   0.9825  0.38819     C
C       0.7037  0.04402   0.3836     C
C       0.7037  0.45598   0.8836     C
H       0.7116   0.6253    0.807     H
H       0.7116   0.8747    0.307     H
H       0.7151    0.152    0.301     H
H       0.7151    0.348    0.801     H
C       0.7351  0.02007   0.5312     C
C       0.7351  0.47993   0.0312     C
C       0.7391  0.55065   0.8819     C
C       0.7391  0.94935   0.3819     C
C       0.7401  0.01274   0.3797     C
C       0.7401  0.48726   0.8797     C
C       0.7427  0.07495   0.3715     C
C       0.7427  0.42505   0.8715     C
C       0.7437  0.54156   0.0301     C
C       0.7437  0.95844   0.5301     C
H       0.7576   0.0419   0.5273     H
H       0.7576   0.4581   0.0273     H
C       0.7659  0.62922    0.821     C
C       0.7659  0.87078    0.321     C
C       0.7709  0.15383   0.3099     C
C       0.7709  0.34617   0.8099     C
C        0.771  0.57664   0.8724     C
C        0.771  0.92336   0.3724     C
H       0.7718   0.5617   0.0249     H
H       0.7718   0.9383   0.5249     H
C       0.7757  0.09952   0.3596     C
C       0.7757  0.40048   0.8596     C
C       0.7761  0.50967  0.02471     C
C       0.7761  0.99033  0.52471     C
H       0.7774   0.6716   0.7768     H
H       0.7774   0.8284   0.2768     H
H       0.7827   0.1977   0.2659     H
H       0.7827   0.3023   0.7659     H
H       0.7911   0.0119   0.3712     H
H       0.7911   0.4881   0.8712     H
C       0.8053  0.65721   0.8038     C
C       0.8053  0.84279   0.3038     C
C        0.808  0.60714   0.8594     C
C        0.808  0.89286   0.3594     C
C       0.8116  0.18177   0.2899     C
C       0.8116  0.31823   0.7899     C
C        0.816  0.12943   0.3429     C
C        0.816  0.37057   0.8429     C
H       0.8186   0.6197   0.3559     H
H       0.8186   0.8803   0.8559     H
H       0.8214   0.1055   0.8428     H
H       0.8214   0.3945   0.3428     H
H       0.8373   0.6699   0.3084     H
H       0.8373   0.8301   0.8084     H
H       0.8498   0.1525   0.7894     H
H       0.8498   0.3475   0.2894     H
C       0.8586  0.50664  0.01248     C
C       0.8586  0.99336  0.51248     C
C       0.8631  0.63391   0.3678     C
C       0.8631  0.86609   0.8678     C
C        0.868  0.11878   0.8531     C
C        0.868  0.38122   0.3531     C
C       0.8751  0.66354   0.3387     C
C       0.8751  0.83646   0.8387     C
C       0.8825  0.66436   0.8246     C
C       0.8825  0.83564   0.3246     C
O       0.8843  0.71097  0.76432     O
O       0.8843  0.78903  0.26432     O
O      0.88496  0.02344  0.50912     O
O      0.88496  0.47656  0.00912     O
C       0.8854   0.1471   0.8212     C
C       0.8854   0.3529   0.3212     C
C       0.8855  0.61479   0.8799     C
C       0.8855  0.88521   0.3799     C
C       0.8924  0.18521   0.3057     C
C       0.8924  0.31479   0.8057     C
C       0.8942   0.0264    0.987     C
C       0.8942   0.4736    0.487     C
O       0.8947    0.231  0.24423     O
O       0.8947    0.269  0.74423     O
O      0.89493  0.53418  0.00866     O
O      0.89493  0.96582  0.50866     O
H       0.8954   0.5067   0.4262     H
H       0.8954   0.9933   0.9262     H
C       0.8956  0.50226   0.5696     C
C       0.8956  0.50551   0.4629     C
C       0.8956  0.99449   0.9629     C
C       0.8956  0.99774   0.0696     C
C       0.8961  0.02822   0.0405     C
C       0.8961  0.47178   0.5405     C
C       0.8967  0.13352   0.3582     C
C       0.8967  0.36648   0.8582     C
C        0.897  0.50073   0.6268     C
C        0.897  0.99927   0.1268     C
C       0.8972  0.53539   0.4916     C
C       0.8972  0.96461   0.9916     C
C       0.8974  0.53386   0.5453     C
C       0.8974  0.96614   0.0453     C
H       0.8977   0.0498   0.0576     H
H       0.8977   0.4502   0.5576     H
H       0.8987   0.5543   0.5652     H
H       0.8987   0.9457   0.0652     H
C       0.8992  0.05796   0.9559     C
C       0.8992  0.44204   0.4559     C
C       0.8997  0.56868   0.4658     C
C       0.8997  0.93132   0.9658     C
C       0.9015  0.50008   0.6731     C
C       0.9015  0.99992   0.1731     C
H       0.9068   0.5511   0.7388     H
H       0.9068   0.9489   0.2388     H
C       0.9071  0.59545   0.4429     C
C       0.9071  0.90455   0.9429     C
H       0.9072   0.0522   0.2401     H
H       0.9072   0.4478   0.7401     H
O       0.9083  0.71834  0.27793     O
O       0.9083  0.78166  0.77793     O
C       0.9098  0.08247   0.9313     C
C       0.9098  0.41753   0.4313     C
C       0.9103  0.00025   0.2299     C
C       0.9103  0.49975   0.7299     C
C       0.9141    0.031   0.2584     C
C       0.9141    0.469   0.7584     C
C       0.9141  0.53011   0.7575     C
C       0.9141  0.96989   0.2575     C
H       0.9148   0.6002   0.9059     H
H       0.9148   0.8998   0.4059     H
C       0.9173  0.62562   0.4143     C
C       0.9173  0.87438   0.9143     C
O       0.9221  0.19917  0.75672     O
O       0.9221  0.30083  0.25672     O
C       0.9225  0.64354   0.8635     C
C       0.9225  0.85646   0.3635     C
C       0.9226  0.11154      0.9     C
C       0.9226  0.38846      0.4     C
C       0.9232  0.69485   0.8028     C
C       0.9232  0.80515   0.3028     C
H       0.9261   0.1171   0.3811     H
H       0.9261   0.3829   0.8811     H
C       0.9278  0.03085   0.3129     C
C       0.9278  0.46915   0.8129     C
Cu     0.92783  0.74768   0.7258    Cu
Cu     0.92783  0.75232   0.2258    Cu
C       0.9287  0.53042   0.8131     C
C       0.9287  0.96958   0.3131     C
H       0.9305   0.0519   0.3314     H
H       0.9305   0.4481   0.8314     H
H       0.9324   0.5516   0.8314     H
H       0.9324   0.9484   0.3314     H
C       0.9334  0.21407   0.2817     C
C       0.9334  0.28593   0.7817     C
C       0.9365  0.16144   0.3407     C
C       0.9365  0.33856   0.8407     C
C       0.9377  0.00025    0.341     C
C       0.9377  0.49975    0.841     C
Cu      0.9402    0.234  0.70506    Cu
Cu      0.9402    0.266  0.20506    Cu
C       0.9417  0.68299   0.3547     C
C       0.9417  0.81701   0.8547     C
H       0.9511    0.673   0.6067     H
H       0.9511    0.827   0.1067     H
C       0.9515  0.16608   0.8359     C
C       0.9515  0.33392   0.3359     C
C       0.9573  0.71216   0.3202     C
C       0.9573  0.78784   0.8202     C
C       0.9575  0.50012  0.90126     C
C       0.9575  0.99988  0.40126     C
H       0.9589   0.1888   0.0883     H
H       0.9589   0.3112   0.5883     H
O       0.9613   0.0287   0.4237     O
O       0.9613   0.4713   0.9237     O
O       0.9674  0.71183  0.68361     O
O       0.9674  0.78817  0.18361     O
C       0.9696  0.19498   0.8011     C
C       0.9696  0.30502   0.3011     C
O      0.97043  0.52915   0.9233     O
O      0.97043  0.97085   0.4233     O
H       0.9748   0.6263   0.5536     H
H       0.9748   0.8737   0.0536     H
H       0.9756   0.6486   0.8794     H
H       0.9756   0.8514   0.3794     H
O        0.979  0.22885  0.16429     O
O        0.979  0.27115  0.66429     O
C       0.9816  0.64644   0.4299     C
C       0.9816  0.85356   0.9299     C
H       0.9822   0.1413   0.0384     H
H       0.9822   0.3587   0.5384     H
C       0.9889  0.13129   0.9147     C
C       0.9889  0.36871   0.4147     C
O       0.9912  0.71751  0.19757     O
O       0.9912  0.78249  0.69757     O
H       0.9918   0.1642   0.3523     H
H       0.9918   0.3358   0.8523     H
Cu     0.99391  0.03399  0.50033    Cu
Cu     0.99391  0.46601  0.00033    Cu
O        0.995  0.70008  0.82421     O
O        0.995  0.79992  0.32421     O
C       0.9956  0.67506   0.4005     C
C       0.9956  0.82494   0.9005     C
C       0.9966  0.65915   0.6174     C
C       0.9966  0.84085   0.1174     C
