data_I
_chemical_name_common  '/home/zhangsd/repos/MofS-CGCNN/ML/data/TSD/clean_cifs/FAGXIX_clean'
_cell_length_a 19.95300
_cell_length_b  9.49500
_cell_length_c 25.80500
_cell_angle_alpha 90.00000
_cell_angle_beta  91.91500
_cell_angle_gamma 90.00000
_space_group_name_H-M_alt      'P 1'


loop_
_space_group_symop_operation_xyz
  'x, y, z' 

loop_
_atom_site_label
_atom_site_fract_x
_atom_site_fract_y
_atom_site_fract_z
_atom_site_type_symbol
C       0.0041   0.1573  0.41155     C
C       0.0041   0.8427  0.91155     C
H       0.0105   0.1838   0.5903     H
H       0.0105   0.8162   0.0903     H
O      0.01237   0.4274  0.05152     O
O      0.01237   0.5726  0.55152     O
C       0.0181   0.0182  0.39525     C
C       0.0181   0.9818  0.89525     C
C       0.0187   0.0905  0.58148     C
C       0.0187   0.9095  0.08148     C
H       0.0252   0.1814   0.8236     H
H       0.0252   0.8186   0.3236     H
H       0.0275   0.2318   0.3973     H
H       0.0275   0.7682   0.8973     H
C       0.0422    0.185  0.05281     C
C       0.0422    0.815  0.55281     C
C        0.051    0.334  0.03495     C
C        0.051    0.666  0.53495     C
C       0.0604   0.1183   0.8203     C
C       0.0604   0.8817   0.3203     C
C       0.0662   0.0603  0.54599     C
C       0.0662   0.9397  0.04599     C
C       0.0683   0.0096    0.856     C
C       0.0683   0.9904    0.356     C
O      0.07883   0.2976  0.52231     O
O      0.07883   0.7024  0.02231     O
C       0.0791   0.0776  0.03227     C
C       0.0791   0.9224  0.53227     C
Zn     0.08473  0.45196  0.47275    Zn
Zn     0.08473  0.54804  0.97275    Zn
O      0.09518   0.3574  0.00315     O
O      0.09518   0.6426  0.50315     O
H       0.0964   0.2089   0.7567     H
H       0.0964   0.7911   0.2567     H
C       0.1035   0.1353     0.78     C
C       0.1035   0.8647     0.28     C
C       0.1055   0.1782  0.52083     C
C       0.1055   0.8218  0.02083     C
H       0.1126   0.0976   0.0092     H
H       0.1126   0.9024   0.5092     H
O       0.1184    0.456  0.40151     O
O       0.1184    0.544  0.90151     O
C       0.1231   0.0797   0.3504     C
C       0.1231   0.9203   0.8504     C
H       0.1291   0.1321   0.6788     H
H       0.1291   0.8679   0.1788     H
H       0.1307   0.1518   0.3743     H
H       0.1307   0.8482   0.8743     H
H       0.1501   0.4888   0.8098     H
H       0.1501   0.5112   0.3098     H
O      0.15638   0.1469  0.50029     O
O      0.15638   0.8531  0.00029     O
C       0.1571    0.045   0.7737     C
C       0.1571    0.955   0.2737     C
C        0.166   0.0633   0.3106     C
C        0.166   0.9367   0.8106     C
C       0.1733   0.1014   0.6815     C
C       0.1733   0.8986   0.1815     C
C       0.1803   0.4327   0.4061     C
C       0.1803   0.5673   0.9061     C
H       0.1938   0.1315   0.6069     H
H       0.1938   0.8685   0.1069     H
C       0.1947   0.4824   0.3125     C
C       0.1947   0.5176   0.8125     C
C       0.1997   0.0534   0.7286     C
C       0.1997   0.9466   0.2286     C
H       0.2019    0.125   0.3078     H
H       0.2019    0.875   0.8078     H
O       0.2073   0.4117  0.45032     O
O       0.2073   0.5883  0.95032     O
C       0.2129   0.1034   0.6386     C
C       0.2129   0.8966   0.1386     C
H        0.215   0.4782   0.7384     H
H        0.215   0.5218   0.2384     H
C       0.2204   0.4346   0.3591     C
C       0.2204   0.5654   0.8591     C
C       0.2338   0.4885   0.2695     C
C       0.2338   0.5115   0.7695     C
Zn        0.25     0.25      0.5    Zn
Zn        0.25     0.75      0.0    Zn
C       0.2662   0.0115   0.7305     C
C       0.2662   0.9885   0.2305     C
C       0.2796   0.0654   0.6409     C
C       0.2796   0.9346   0.1409     C
H        0.285   0.0218   0.2616     H
H        0.285   0.9782   0.7616     H
C       0.2871   0.3966   0.3614     C
C       0.2871   0.6034   0.8614     C
O       0.2927   0.0883  0.54968     O
O       0.2927   0.9117  0.04968     O
H       0.2981    0.375   0.6922     H
H       0.2981    0.625   0.1922     H
C       0.3003   0.4466   0.2714     C
C       0.3003   0.5534   0.7714     C
C       0.3053   0.0176   0.6875     C
C       0.3053   0.9824   0.1875     C
H       0.3062   0.3685   0.3931     H
H       0.3062   0.6315   0.8931     H
C       0.3197   0.0673   0.5939     C
C       0.3197   0.9327   0.0939     C
C       0.3267   0.3986   0.3185     C
C       0.3267   0.6014   0.8185     C
C        0.334   0.4367   0.6894     C
C        0.334   0.5633   0.1894     C
C       0.3429    0.455   0.2263     C
C       0.3429    0.545   0.7263     C
O      0.34362   0.3531  0.49971     O
O      0.34362   0.6469  0.99971     O
H       0.3499   0.0112   0.1902     H
H       0.3499   0.9888   0.6902     H
H       0.3693   0.3482   0.6257     H
H       0.3693   0.6518   0.1257     H
H       0.3709   0.3679   0.3212     H
H       0.3709   0.6321   0.8212     H
C       0.3769   0.4203   0.6496     C
C       0.3769   0.5797   0.1496     C
O       0.3816    0.044  0.59849     O
O       0.3816    0.956  0.09849     O
H       0.3874   0.4024   0.9908     H
H       0.3874   0.5976   0.4908     H
C       0.3945   0.3218  0.47917     C
C       0.3945   0.6782  0.97917     C
C       0.3965   0.3647     0.22     C
C       0.3965   0.6353     0.72     C
H       0.4036   0.2911   0.2433     H
H       0.4036   0.7089   0.7433     H
O      0.40482   0.1426  0.99685     O
O      0.40482   0.8574  0.49685     O
Zn     0.41527  0.04804  0.52725    Zn
Zn     0.41527  0.95196  0.02725    Zn
C       0.4209   0.4224  0.96773     C
C       0.4209   0.5776  0.46773     C
O      0.42117   0.2024  0.47769     O
O      0.42117   0.7976  0.97769     O
C       0.4317   0.4904    0.144     C
C       0.4317   0.5096    0.644     C
C       0.4338   0.4397  0.45401     C
C       0.4338   0.5603  0.95401     C
C       0.4396   0.3817   0.1797     C
C       0.4396   0.6183   0.6797     C
C        0.449    0.166  0.96505     C
C        0.449    0.834  0.46505     C
C       0.4578    0.315  0.94719     C
C       0.4578    0.685  0.44719     C
H       0.4725   0.2682   0.6027     H
H       0.4725   0.7318   0.1027     H
H       0.4748   0.3186   0.1764     H
H       0.4748   0.6814   0.6764     H
C       0.4813   0.4095  0.41852     C
C       0.4813   0.5905  0.91852     C
C       0.4819   0.4818  0.60475     C
C       0.4819   0.5182  0.10475     C
O      0.48763   0.0726  0.94848     O
O      0.48763   0.9274  0.44848     O
H       0.4895   0.3162   0.4097     H
H       0.4895   0.6838   0.9097     H
C       0.4959   0.3427  0.58845     C
C       0.4959   0.6573  0.08845     C
C       0.5041   0.3427  0.91155     C
C       0.5041   0.6573  0.41155     C
H       0.5105   0.3162   0.0903     H
H       0.5105   0.6838   0.5903     H
O      0.51237   0.0726  0.55152     O
O      0.51237   0.9274  0.05152     O
C       0.5181   0.4818  0.89525     C
C       0.5181   0.5182  0.39525     C
C       0.5187   0.4095  0.08148     C
C       0.5187   0.5905  0.58148     C
H       0.5252   0.3186   0.3236     H
H       0.5252   0.6814   0.8236     H
H       0.5275   0.2682   0.8973     H
H       0.5275   0.7318   0.3973     H
C       0.5422    0.315  0.55281     C
C       0.5422    0.685  0.05281     C
C        0.551    0.166  0.53495     C
C        0.551    0.834  0.03495     C
C       0.5604   0.3817   0.3203     C
C       0.5604   0.6183   0.8203     C
C       0.5662   0.4397  0.04599     C
C       0.5662   0.5603  0.54599     C
C       0.5683   0.4904    0.356     C
C       0.5683   0.5096    0.856     C
O      0.57883   0.2024  0.02231     O
O      0.57883   0.7976  0.52231     O
C       0.5791   0.4224  0.53227     C
C       0.5791   0.5776  0.03227     C
Zn     0.58473  0.04804  0.97275    Zn
Zn     0.58473  0.95196  0.47275    Zn
O      0.59518   0.1426  0.50315     O
O      0.59518   0.8574  0.00315     O
H       0.5964   0.2911   0.2567     H
H       0.5964   0.7089   0.7567     H
C       0.6035   0.3647     0.28     C
C       0.6035   0.6353     0.78     C
C       0.6055   0.3218  0.02083     C
C       0.6055   0.6782  0.52083     C
H       0.6126   0.4024   0.5092     H
H       0.6126   0.5976   0.0092     H
O       0.6184    0.044  0.90151     O
O       0.6184    0.956  0.40151     O
C       0.6231   0.4203   0.8504     C
C       0.6231   0.5797   0.3504     C
H       0.6291   0.3679   0.1788     H
H       0.6291   0.6321   0.6788     H
H       0.6307   0.3482   0.8743     H
H       0.6307   0.6518   0.3743     H
H       0.6501   0.0112   0.3098     H
H       0.6501   0.9888   0.8098     H
O      0.65638   0.3531  0.00029     O
O      0.65638   0.6469  0.50029     O
C       0.6571    0.455   0.2737     C
C       0.6571    0.545   0.7737     C
C        0.666   0.4367   0.8106     C
C        0.666   0.5633   0.3106     C
C       0.6733   0.3986   0.1815     C
C       0.6733   0.6014   0.6815     C
C       0.6803   0.0673   0.9061     C
C       0.6803   0.9327   0.4061     C
H       0.6938   0.3685   0.1069     H
H       0.6938   0.6315   0.6069     H
C       0.6947   0.0176   0.8125     C
C       0.6947   0.9824   0.3125     C
C       0.6997   0.4466   0.2286     C
C       0.6997   0.5534   0.7286     C
H       0.7019    0.375   0.8078     H
H       0.7019    0.625   0.3078     H
O       0.7073   0.0883  0.95032     O
O       0.7073   0.9117  0.45032     O
C       0.7129   0.3966   0.1386     C
C       0.7129   0.6034   0.6386     C
H        0.715   0.0218   0.2384     H
H        0.715   0.9782   0.7384     H
C       0.7204   0.0654   0.8591     C
C       0.7204   0.9346   0.3591     C
C       0.7338   0.0115   0.7695     C
C       0.7338   0.9885   0.2695     C
Zn        0.75     0.25      0.0    Zn
Zn        0.75     0.75      0.5    Zn
C       0.7662   0.4885   0.2305     C
C       0.7662   0.5115   0.7305     C
C       0.7796   0.4346   0.1409     C
C       0.7796   0.5654   0.6409     C
H        0.785   0.4782   0.7616     H
H        0.785   0.5218   0.2616     H
C       0.7871   0.1034   0.8614     C
C       0.7871   0.8966   0.3614     C
O       0.7927   0.4117  0.04968     O
O       0.7927   0.5883  0.54968     O
H       0.7981    0.125   0.1922     H
H       0.7981    0.875   0.6922     H
C       0.8003   0.0534   0.7714     C
C       0.8003   0.9466   0.2714     C
C       0.8053   0.4824   0.1875     C
C       0.8053   0.5176   0.6875     C
H       0.8062   0.1315   0.8931     H
H       0.8062   0.8685   0.3931     H
C       0.8197   0.4327   0.0939     C
C       0.8197   0.5673   0.5939     C
C       0.8267   0.1014   0.8185     C
C       0.8267   0.8986   0.3185     C
C        0.834   0.0633   0.1894     C
C        0.834   0.9367   0.6894     C
C       0.8429    0.045   0.7263     C
C       0.8429    0.955   0.2263     C
O      0.84362   0.1469  0.99971     O
O      0.84362   0.8531  0.49971     O
H       0.8499   0.4888   0.6902     H
H       0.8499   0.5112   0.1902     H
H       0.8693   0.1518   0.1257     H
H       0.8693   0.8482   0.6257     H
H       0.8709   0.1321   0.8212     H
H       0.8709   0.8679   0.3212     H
C       0.8769   0.0797   0.1496     C
C       0.8769   0.9203   0.6496     C
O       0.8816    0.456  0.09849     O
O       0.8816    0.544  0.59849     O
H       0.8874   0.0976   0.4908     H
H       0.8874   0.9024   0.9908     H
C       0.8945   0.1782  0.97917     C
C       0.8945   0.8218  0.47917     C
C       0.8965   0.1353     0.72     C
C       0.8965   0.8647     0.22     C
H       0.9036   0.2089   0.7433     H
H       0.9036   0.7911   0.2433     H
O      0.90482   0.3574  0.49685     O
O      0.90482   0.6426  0.99685     O
Zn     0.91527  0.45196  0.02725    Zn
Zn     0.91527  0.54804  0.52725    Zn
C       0.9209   0.0776  0.46773     C
C       0.9209   0.9224  0.96773     C
O      0.92117   0.2976  0.97769     O
O      0.92117   0.7024  0.47769     O
C       0.9317   0.0096    0.644     C
C       0.9317   0.9904    0.144     C
C       0.9338   0.0603  0.95401     C
C       0.9338   0.9397  0.45401     C
C       0.9396   0.1183   0.6797     C
C       0.9396   0.8817   0.1797     C
C        0.949    0.334  0.46505     C
C        0.949    0.666  0.96505     C
C       0.9578    0.185  0.44719     C
C       0.9578    0.815  0.94719     C
H       0.9725   0.2318   0.1027     H
H       0.9725   0.7682   0.6027     H
H       0.9748   0.1814   0.6764     H
H       0.9748   0.8186   0.1764     H
C       0.9813   0.0905  0.91852     C
C       0.9813   0.9095  0.41852     C
C       0.9819   0.0182  0.10475     C
C       0.9819   0.9818  0.60475     C
O      0.98763   0.4274  0.44848     O
O      0.98763   0.5726  0.94848     O
H       0.9895   0.1838   0.9097     H
H       0.9895   0.8162   0.4097     H
C       0.9959   0.1573  0.08845     C
C       0.9959   0.8427  0.58845     C
