data_I
_chemical_name_common  '/home/zhangsd/repos/MofS-CGCNN/ML/data/TSD/clean_cifs/FAHPOV_clean'
_cell_length_a 19.80700
_cell_length_b 27.71400
_cell_length_c 27.84700
_cell_angle_alpha 90.00000
_cell_angle_beta  90.00000
_cell_angle_gamma 90.00000
_space_group_name_H-M_alt      'P 1'


loop_
_space_group_symop_operation_xyz
  'x, y, z' 

loop_
_atom_site_label
_atom_site_fract_x
_atom_site_fract_y
_atom_site_fract_z
_atom_site_type_symbol
C       0.0024      0.0   0.3888     C
H       0.0084      0.0   0.3165     H
C        0.013      0.5   0.8752     C
H        0.015      0.0   0.4586     H
H       0.0246   0.4277   0.8779     H
H       0.0246   0.5723   0.8779     H
C       0.0343      0.0   0.3452     C
C       0.0376      0.0   0.4285     C
C       0.0487   0.4573   0.8772     C
C       0.0487   0.5427   0.8772     C
C       0.0646      0.5   0.1236     C
C       0.0755      0.0   0.6115     C
O      0.09241  0.45963  0.12312     O
O      0.09241  0.54037  0.12312     O
O       0.1022      0.0  0.57093     O
O       0.1041      0.0  0.65226     O
C       0.1045      0.0   0.3427     C
C       0.1074      0.0   0.4272     C
C       0.1183   0.4564   0.8782     C
C       0.1183   0.5436   0.8782     C
H       0.1264      0.0   0.3124     H
H       0.1316      0.0   0.4566     H
H       0.1363   0.2956   0.9365     H
H       0.1363   0.7044   0.9365     H
H       0.1419   0.3515    0.999     H
H       0.1419   0.6485    0.999     H
H        0.142   0.4266   0.8782     H
H        0.142   0.5734   0.8782     H
C       0.1428      0.0   0.3851     C
H       0.1524   0.1725   0.8261     H
H       0.1524   0.8275   0.8261     H
C        0.153      0.5   0.8792     C
H       0.1627   0.1086   0.7722     H
H       0.1627   0.8914   0.7722     H
C       0.1737    0.317   0.9382     C
C       0.1737    0.683   0.9382     C
C        0.177   0.3508   0.9758     C
C        0.177   0.6492   0.9758     C
H       0.1773   0.3288   0.2154     H
H       0.1773   0.6712   0.2154     H
C       0.1872   0.1734   0.8026     C
C       0.1872   0.8266   0.8026     C
H       0.1883   0.0939   0.4437     H
H       0.1883   0.9061   0.4437     H
Zn     0.18856  0.44237  0.11801    Zn
Zn     0.18856  0.55763  0.11801    Zn
O      0.18989  0.41543  0.05187     O
O      0.18989  0.58457  0.05187     O
H       0.1899   0.2641   0.2683     H
H       0.1899   0.7359   0.2683     H
C       0.1922   0.1356   0.7702     C
C       0.1922   0.8644   0.7702     C
H       0.1947   0.1524   0.3831     H
H       0.1947   0.8476   0.3831     H
Zn     0.19876      0.0  0.67577    Zn
Zn     0.19959      0.0  0.56206    Zn
O       0.2034   0.0618   0.7041     O
O       0.2034   0.9382   0.7041     O
O       0.2052   0.4001   0.1705     O
O       0.2052   0.5999   0.1705     O
C       0.2146   0.3278   0.2368     C
C       0.2146   0.6722   0.2368     C
C       0.2151      0.0   0.3844     C
O       0.2176  0.05424    0.519     O
O       0.2176  0.94576    0.519     O
C       0.2215   0.2898   0.2695     C
C       0.2215   0.7102   0.2695     C
C       0.2235   0.1172   0.4439     C
C       0.2235   0.8828   0.4439     C
C       0.2236   0.2796    0.869     C
C       0.2236   0.7204    0.869     C
C       0.2237   0.3145   0.9036     C
C       0.2237   0.6855   0.9036     C
C       0.2246   0.2491   0.8388     C
C       0.2246   0.7509   0.8388     C
C       0.2253      0.5   0.8816     C
C       0.2287   0.1525   0.4072     C
C       0.2287   0.8475   0.4072     C
C       0.2291   0.3823   0.9798     C
C       0.2291   0.6177   0.9798     C
C         0.23   0.2117    0.802     C
C         0.23   0.7883    0.802     C
C        0.234   0.4173   0.0206     C
C        0.234   0.5827   0.0206     C
C       0.2398    0.138    0.736     C
C       0.2398    0.862    0.736     C
O      0.24407      0.5   0.1183     O
C       0.2458   0.0935   0.7042     C
C       0.2458   0.9065   0.7042     C
C       0.2542   0.4065   0.2042     C
C       0.2542   0.5935   0.2042     C
O      0.25593      0.0   0.6183     O
C       0.2602    0.362    0.236     C
C       0.2602    0.638    0.236     C
C        0.266   0.0827   0.5206     C
C        0.266   0.9173   0.5206     C
C         0.27   0.2883    0.302     C
C         0.27   0.7117    0.302     C
C       0.2709   0.1177   0.4798     C
C       0.2709   0.8823   0.4798     C
C       0.2713   0.3475   0.9072     C
C       0.2713   0.6525   0.9072     C
C       0.2747      0.0   0.3816     C
C       0.2754   0.2509   0.3388     C
C       0.2754   0.7491   0.3388     C
C       0.2763   0.1855   0.4036     C
C       0.2763   0.8145   0.4036     C
C       0.2764   0.2204    0.369     C
C       0.2764   0.7796    0.369     C
C       0.2765   0.3828   0.9439     C
C       0.2765   0.6172   0.9439     C
C       0.2785   0.2102   0.7695     C
C       0.2785   0.7898   0.7695     C
O       0.2824  0.44576    0.019     O
O       0.2824  0.55424    0.019     O
C       0.2849      0.5   0.8844     C
C       0.2854   0.1722   0.7368     C
C       0.2854   0.8278   0.7368     C
O       0.2948   0.0999   0.6705     O
O       0.2948   0.9001   0.6705     O
O       0.2966   0.4382   0.2041     O
O       0.2966   0.5618   0.2041     O
Zn     0.30041      0.5  0.06206    Zn
Zn     0.30124      0.5  0.17577    Zn
H       0.3053   0.3476   0.8831     H
H       0.3053   0.6524   0.8831     H
C       0.3078   0.3644   0.2702     C
C       0.3078   0.6356   0.2702     C
H       0.3101   0.2359   0.7683     H
H       0.3101   0.7641   0.7683     H
O      0.31011  0.08457  0.55187     O
O      0.31011  0.91543  0.55187     O
Zn     0.31144  0.05763  0.61801    Zn
Zn     0.31144  0.94237  0.61801    Zn
H       0.3117   0.4061   0.9437     H
H       0.3117   0.5939   0.9437     H
C       0.3128   0.3266   0.3026     C
C       0.3128   0.6734   0.3026     C
H       0.3227   0.1712   0.7154     H
H       0.3227   0.8288   0.7154     H
C        0.323   0.1492   0.4758     C
C        0.323   0.8508   0.4758     C
C       0.3263    0.183   0.4382     C
C       0.3263    0.817   0.4382     C
H       0.3373   0.3914   0.2722     H
H       0.3373   0.6086   0.2722     H
C        0.347      0.0   0.3792     C
H       0.3476   0.3275   0.3261     H
H       0.3476   0.6725   0.3261     H
C       0.3572      0.5   0.8851     C
H        0.358   0.0734   0.3782     H
H        0.358   0.9266   0.3782     H
H       0.3581   0.1485    0.499     H
H       0.3581   0.8515    0.499     H
H       0.3637   0.2044   0.4365     H
H       0.3637   0.7956   0.4365     H
H       0.3684      0.5   0.9566     H
H       0.3736      0.5   0.8124     H
C       0.3817   0.0436   0.3782     C
C       0.3817   0.9564   0.3782     C
C       0.3926      0.5   0.9272     C
C       0.3955      0.5   0.8427     C
O       0.3959      0.5  0.15226     O
O       0.3978      0.5  0.07093     O
O      0.40759  0.04037  0.62312     O
O      0.40759  0.95963  0.62312     O
C       0.4245      0.5   0.1115     C
C       0.4354      0.0   0.6236     C
C       0.4513   0.0427   0.3772     C
C       0.4513   0.9573   0.3772     C
C       0.4624      0.5   0.9285     C
C       0.4657      0.5   0.8452     C
H       0.4754   0.0723   0.3779     H
H       0.4754   0.9277   0.3779     H
H        0.485      0.5   0.9586     H
C        0.487      0.0   0.3752     C
H       0.4916      0.5   0.8165     H
C       0.4976      0.5   0.8888     C
C       0.5024      0.5   0.1112     C
H       0.5084      0.5   0.1835     H
C        0.513      0.0   0.6248     C
H        0.515      0.5   0.0414     H
H       0.5246   0.0723   0.6221     H
H       0.5246   0.9277   0.6221     H
C       0.5343      0.5   0.1548     C
C       0.5376      0.5   0.0715     C
C       0.5487   0.0427   0.6228     C
C       0.5487   0.9573   0.6228     C
C       0.5646      0.0   0.3764     C
C       0.5755      0.5   0.8885     C
O      0.59241  0.04037  0.37688     O
O      0.59241  0.95963  0.37688     O
O       0.6022      0.5  0.92907     O
O       0.6041      0.5  0.84774     O
C       0.6045      0.5   0.1573     C
C       0.6074      0.5   0.0728     C
C       0.6183   0.0436   0.6218     C
C       0.6183   0.9564   0.6218     C
H       0.6264      0.5   0.1876     H
H       0.6316      0.5   0.0434     H
H       0.6363   0.2044   0.5635     H
H       0.6363   0.7956   0.5635     H
H       0.6419   0.1485    0.501     H
H       0.6419   0.8515    0.501     H
H        0.642   0.0734   0.6218     H
H        0.642   0.9266   0.6218     H
C       0.6428      0.5   0.1149     C
H       0.6524   0.3275   0.6739     H
H       0.6524   0.6725   0.6739     H
C        0.653      0.0   0.6208     C
H       0.6627   0.3914   0.7278     H
H       0.6627   0.6086   0.7278     H
C       0.6737    0.183   0.5618     C
C       0.6737    0.817   0.5618     C
C        0.677   0.1492   0.5242     C
C        0.677   0.8508   0.5242     C
H       0.6773   0.1712   0.2846     H
H       0.6773   0.8288   0.2846     H
C       0.6872   0.3266   0.6974     C
C       0.6872   0.6734   0.6974     C
H       0.6883   0.4061   0.0563     H
H       0.6883   0.5939   0.0563     H
Zn     0.68856  0.05763  0.38199    Zn
Zn     0.68856  0.94237  0.38199    Zn
O      0.68989  0.08457  0.44813     O
O      0.68989  0.91543  0.44813     O
H       0.6899   0.2359   0.2317     H
H       0.6899   0.7641   0.2317     H
C       0.6922   0.3644   0.7298     C
C       0.6922   0.6356   0.7298     C
H       0.6947   0.3476   0.1169     H
H       0.6947   0.6524   0.1169     H
Zn     0.69876      0.5  0.82423    Zn
Zn     0.69959      0.5  0.93794    Zn
O       0.7034   0.4382   0.7959     O
O       0.7034   0.5618   0.7959     O
O       0.7052   0.0999   0.3295     O
O       0.7052   0.9001   0.3295     O
C       0.7146   0.1722   0.2632     C
C       0.7146   0.8278   0.2632     C
C       0.7151      0.5   0.1156     C
O       0.7176  0.44576    0.981     O
O       0.7176  0.55424    0.981     O
C       0.7215   0.2102   0.2305     C
C       0.7215   0.7898   0.2305     C
C       0.7235   0.3828   0.0561     C
C       0.7235   0.6172   0.0561     C
C       0.7236   0.2204    0.631     C
C       0.7236   0.7796    0.631     C
C       0.7237   0.1855   0.5964     C
C       0.7237   0.8145   0.5964     C
C       0.7246   0.2509   0.6612     C
C       0.7246   0.7491   0.6612     C
C       0.7253      0.0   0.6184     C
C       0.7287   0.3475   0.0928     C
C       0.7287   0.6525   0.0928     C
C       0.7291   0.1177   0.5202     C
C       0.7291   0.8823   0.5202     C
C         0.73   0.2883    0.698     C
C         0.73   0.7117    0.698     C
C        0.734   0.0827   0.4794     C
C        0.734   0.9173   0.4794     C
C       0.7398    0.362    0.764     C
C       0.7398    0.638    0.764     C
O      0.74407      0.0   0.3817     O
C       0.7458   0.4065   0.7958     C
C       0.7458   0.5935   0.7958     C
C       0.7542   0.0935   0.2958     C
C       0.7542   0.9065   0.2958     C
O      0.75593      0.5   0.8817     O
C       0.7602    0.138    0.264     C
C       0.7602    0.862    0.264     C
C        0.766   0.4173   0.9794     C
C        0.766   0.5827   0.9794     C
C         0.77   0.2117    0.198     C
C         0.77   0.7883    0.198     C
C       0.7709   0.3823   0.0202     C
C       0.7709   0.6177   0.0202     C
C       0.7713   0.1525   0.5928     C
C       0.7713   0.8475   0.5928     C
C       0.7747      0.5   0.1184     C
C       0.7754   0.2491   0.1612     C
C       0.7754   0.7509   0.1612     C
C       0.7763   0.3145   0.0964     C
C       0.7763   0.6855   0.0964     C
C       0.7764   0.2796    0.131     C
C       0.7764   0.7204    0.131     C
C       0.7765   0.1172   0.5561     C
C       0.7765   0.8828   0.5561     C
C       0.7785   0.2898   0.7305     C
C       0.7785   0.7102   0.7305     C
O       0.7824  0.05424    0.481     O
O       0.7824  0.94576    0.481     O
C       0.7849      0.0   0.6156     C
C       0.7854   0.3278   0.7632     C
C       0.7854   0.6722   0.7632     C
O       0.7948   0.4001   0.8295     O
O       0.7948   0.5999   0.8295     O
O       0.7966   0.0618   0.2959     O
O       0.7966   0.9382   0.2959     O
Zn     0.80041      0.0  0.43794    Zn
Zn     0.80124      0.0  0.32423    Zn
H       0.8053   0.1524   0.6169     H
H       0.8053   0.8476   0.6169     H
C       0.8078   0.1356   0.2298     C
C       0.8078   0.8644   0.2298     C
H       0.8101   0.2641   0.7317     H
H       0.8101   0.7359   0.7317     H
O      0.81011  0.41543  0.94813     O
O      0.81011  0.58457  0.94813     O
Zn     0.81144  0.44237  0.88199    Zn
Zn     0.81144  0.55763  0.88199    Zn
H       0.8117   0.0939   0.5563     H
H       0.8117   0.9061   0.5563     H
C       0.8128   0.1734   0.1974     C
C       0.8128   0.8266   0.1974     C
H       0.8227   0.3288   0.7846     H
H       0.8227   0.6712   0.7846     H
C        0.823   0.3508   0.0242     C
C        0.823   0.6492   0.0242     C
C       0.8263    0.317   0.0618     C
C       0.8263    0.683   0.0618     C
H       0.8373   0.1086   0.2278     H
H       0.8373   0.8914   0.2278     H
C        0.847      0.5   0.1208     C
H       0.8476   0.1725   0.1739     H
H       0.8476   0.8275   0.1739     H
C       0.8572      0.0   0.6149     C
H        0.858   0.4266   0.1218     H
H        0.858   0.5734   0.1218     H
H       0.8581   0.3515    0.001     H
H       0.8581   0.6485    0.001     H
H       0.8637   0.2956   0.0635     H
H       0.8637   0.7044   0.0635     H
H       0.8684      0.0   0.5434     H
H       0.8736      0.0   0.6876     H
C       0.8817   0.4564   0.1218     C
C       0.8817   0.5436   0.1218     C
C       0.8926      0.0   0.5728     C
C       0.8955      0.0   0.6573     C
O       0.8959      0.0  0.34774     O
O       0.8978      0.0  0.42907     O
O      0.90759  0.45963  0.87688     O
O      0.90759  0.54037  0.87688     O
C       0.9245      0.0   0.3885     C
C       0.9354      0.5   0.8764     C
C       0.9513   0.4573   0.1228     C
C       0.9513   0.5427   0.1228     C
C       0.9624      0.0   0.5715     C
C       0.9657      0.0   0.6548     C
H       0.9754   0.4277   0.1221     H
H       0.9754   0.5723   0.1221     H
H        0.985      0.0   0.5414     H
C        0.987      0.5   0.1248     C
H       0.9916      0.0   0.6835     H
C       0.9976      0.0   0.6112     C
