data_I
_chemical_name_common  '/home/zhangsd/repos/MofS-CGCNN/ML/data/TSD/clean_cifs/FAJZOI_clean'
_cell_length_a 16.69950
_cell_length_b 16.69950
_cell_length_c 26.75790
_cell_angle_alpha 90.00000
_cell_angle_beta  90.00000
_cell_angle_gamma 90.00000
_space_group_name_H-M_alt      'P 1'


loop_
_space_group_symop_operation_xyz
  'x, y, z' 

loop_
_atom_site_label
_atom_site_fract_x
_atom_site_fract_y
_atom_site_fract_z
_atom_site_type_symbol
C          0.0      0.0   0.0638     C
C          0.0      0.0   0.1948     C
Ag         0.0      0.0  0.37186    Ag
Ag         0.0      0.0  0.62814    Ag
C          0.0      0.0   0.8052     C
C          0.0      0.0   0.9362     C
C          0.0      0.5   0.0552     C
C          0.0      0.5   0.1862     C
C          0.0      0.5   0.3138     C
C          0.0      0.5   0.4448     C
Ag         0.0      0.5  0.62186    Ag
Ag         0.0      0.5  0.87814    Ag
H       0.0002    0.047   0.9575     H
H       0.0002    0.453   0.2925     H
C       0.0003   0.0765  0.09647     C
C       0.0003   0.4235  0.15353     C
C       0.0003   0.6489  0.18877     C
C       0.0003   0.8511  0.06123     C
H       0.0009   0.0469   0.2161     H
H       0.0009   0.4531   0.0339     H
C       0.0014   0.0759  0.83692     C
C       0.0014   0.4241  0.41308     C
C       0.0014   0.6504   0.4462     C
C       0.0014   0.6633   0.9543     C
C       0.0014   0.8367   0.2957     C
C       0.0014   0.8496   0.8038     C
N       0.0024   0.6119  0.92624     N
N       0.0024   0.8881  0.32376     N
C       0.0028   0.7263  0.99068     C
C       0.0028   0.7737  0.25932     C
C       0.0055   0.7149   0.7432     C
C       0.0055   0.7851   0.5068     C
C       0.0059    0.212   0.7216     C
C       0.0059    0.288   0.5284     C
C       0.0073   0.6462   0.7106     C
C       0.0073   0.8538   0.5394     C
C       0.0079   0.1443   0.7518     C
C       0.0079   0.3557   0.4982     C
C         0.01   0.7245   0.4263     C
C         0.01   0.7755   0.8237     C
N       0.0105   0.5944   0.6823     N
N       0.0105   0.9056   0.5677     N
H       0.0123   0.2075   0.6872     H
H       0.0123   0.2925   0.5628     H
C       0.0134   0.7069   0.7945     C
C       0.0134   0.7931   0.4555     C
H       0.0138   0.7296   0.3917     H
H       0.0138   0.7704   0.8583     H
H       0.0155   0.0943   0.7374     H
H       0.0155   0.4057   0.5126     H
H       0.0208   0.6568    0.809     H
H       0.0208   0.8432    0.441     H
H       0.0469   0.5009   0.4661     H
H       0.0469   0.9991   0.7839     H
H        0.047   0.5002   0.2075     H
H        0.047   0.9998   0.0425     H
C       0.0622    0.203   0.0579     C
C       0.0622    0.297   0.1921     C
C       0.0625   0.2357   0.2272     C
C       0.0625   0.2643   0.0228     C
C       0.0676   0.6612   0.2209     C
C       0.0676   0.8388   0.0291     C
C       0.0687   0.7218   0.2554     C
C       0.0687   0.7782   0.9946     C
C       0.0748   0.5761     0.12     C
C       0.0748   0.9239     0.13     C
H       0.0749    0.623   0.3581     H
H       0.0749    0.877   0.8919     H
C        0.075   0.5758   0.3792     C
C        0.075   0.9242   0.8708     C
H       0.0751   0.6236   0.0992     H
H       0.0751   0.8764   0.1508     H
C       0.0758    0.075   0.1292     C
C       0.0758    0.425   0.1208     C
C       0.0759   0.5014  0.08692     C
C       0.0759   0.9986  0.16308     C
C       0.0761   0.0748     0.87     C
C       0.0761   0.4252     0.38     C
C       0.0765   0.5003  0.34647     C
C       0.0765   0.9997  0.90353     C
H        0.077   0.1224   0.8907     H
H        0.077   0.3776   0.3593     H
H       0.0774   0.1225     0.15     H
H       0.0774   0.3775      0.1     H
H       0.0943   0.5155   0.9874     H
H       0.0943   0.9845   0.2626     H
N       0.0944   0.0105   0.4323     N
N       0.0944   0.4895   0.8177     N
H       0.1052   0.1983   0.0799     H
H       0.1052   0.3017   0.1701     H
H        0.106   0.2011   0.2294     H
H        0.106   0.2989   0.0206     H
H       0.1116   0.6273   0.2184     H
H       0.1116   0.8727   0.0316     H
N       0.1119   0.0024  0.67624     N
N       0.1119   0.4976  0.57376     N
H       0.1129   0.7286   0.2761     H
H       0.1129   0.7714   0.9739     H
H       0.1224    0.577   0.1407     H
H       0.1224    0.923   0.1093     H
H       0.1225   0.5774      0.4     H
H       0.1225   0.9226     0.85     H
H        0.123   0.0749   0.1081     H
H        0.123   0.4251   0.1419     H
H       0.1236   0.0751   0.8492     H
H       0.1236   0.4249   0.4008     H
H       0.1273   0.1116   0.9684     H
H       0.1273   0.3884   0.2816     H
C       0.1443   0.5079   0.0018     C
C       0.1443   0.9921   0.2482     C
C       0.1462   0.0073   0.4606     C
C       0.1462   0.4927   0.7894     C
C       0.1489   0.0003  0.93877     C
C       0.1489   0.4997  0.31123     C
C       0.1504   0.0014   0.1962     C
C       0.1504   0.4986   0.0538     C
H       0.1568   0.0208    0.559     H
H       0.1568   0.4792    0.691     H
C       0.1612   0.0676   0.9709     C
C       0.1612   0.4324   0.2791     C
C       0.1633   0.0014   0.7043     C
C       0.1633   0.4986   0.5457     C
H       0.1983   0.6052   0.3299     H
H       0.1983   0.8948   0.9201     H
H       0.2011    0.606   0.4794     H
H       0.2011    0.894   0.7706     H
C        0.203   0.5622   0.3079     C
C        0.203   0.9378   0.9421     C
C       0.2069   0.0134   0.5445     C
C       0.2069   0.4866   0.7055     C
H       0.2075   0.5123   0.9372     H
H       0.2075   0.9877   0.3128     H
C        0.212   0.5059   0.9716     C
C        0.212   0.9941   0.2784     C
C       0.2149   0.0055   0.4932     C
C       0.2149   0.4945   0.7568     C
C       0.2218   0.0687   0.0054     C
C       0.2218   0.4313   0.2446     C
C       0.2245     0.01   0.1763     C
C       0.2245     0.49   0.0737     C
C       0.2263   0.0028  0.74068     C
C       0.2263   0.4972  0.50932     C
H       0.2286   0.1129   0.0261     H
H       0.2286   0.3871   0.2239     H
H       0.2296   0.0138   0.1417     H
H       0.2296   0.4862   0.1083     H
C       0.2357   0.5625   0.4772     C
C       0.2357   0.9375   0.7728     C
C       0.2643   0.5625   0.2728     C
C       0.2643   0.9375   0.9772     C
H       0.2704   0.0138   0.6083     H
H       0.2704   0.4862   0.6417     H
H       0.2714   0.1129   0.7239     H
H       0.2714   0.3871   0.5261     H
C       0.2737   0.0028  0.00932     C
C       0.2737   0.4972  0.24068     C
C       0.2755     0.01   0.5737     C
C       0.2755     0.49   0.6763     C
C       0.2782   0.0687   0.7446     C
C       0.2782   0.4313   0.5054     C
C       0.2851   0.0055   0.2568     C
C       0.2851   0.4945   0.9932     C
C        0.288   0.5059   0.7784     C
C        0.288   0.9941   0.4716     C
H       0.2925   0.5123   0.8128     H
H       0.2925   0.9877   0.4372     H
C       0.2931   0.0134   0.2055     C
C       0.2931   0.4866   0.0445     C
C        0.297   0.5622   0.4421     C
C        0.297   0.9378   0.8079     C
H       0.2989    0.606   0.2706     H
H       0.2989    0.894   0.9794     H
H       0.3017   0.6052   0.4201     H
H       0.3017   0.8948   0.8299     H
C       0.3367   0.0014   0.0457     C
C       0.3367   0.4986   0.2043     C
C       0.3388   0.0676   0.7791     C
C       0.3388   0.4324   0.4709     C
H       0.3432   0.0208    0.191     H
H       0.3432   0.4792    0.059     H
C       0.3496   0.0014   0.5538     C
C       0.3496   0.4986   0.6962     C
C       0.3511   0.0003  0.81123     C
C       0.3511   0.4997  0.43877     C
C       0.3538   0.0073   0.2894     C
C       0.3538   0.4927   0.9606     C
C       0.3557   0.5079   0.7482     C
C       0.3557   0.9921   0.5018     C
H       0.3727   0.1116   0.7816     H
H       0.3727   0.3884   0.4684     H
H       0.3764   0.0751   0.9008     H
H       0.3764   0.4249   0.3492     H
H        0.377   0.0749   0.6419     H
H        0.377   0.4251   0.6081     H
H       0.3775   0.5774     0.35     H
H       0.3775   0.9226      0.9     H
H       0.3776    0.577   0.6093     H
H       0.3776    0.923   0.6407     H
H       0.3871   0.7286   0.4739     H
H       0.3871   0.7714   0.7761     H
N       0.3881   0.0024  0.07376     N
N       0.3881   0.4976  0.17624     N
H       0.3884   0.6273   0.5316     H
H       0.3884   0.8727   0.7184     H
H        0.394   0.2011   0.5206     H
H        0.394   0.2989   0.7294     H
H       0.3948   0.1983   0.6701     H
H       0.3948   0.3017   0.5799     H
N       0.4056   0.0105   0.3177     N
N       0.4056   0.4895   0.9323     N
H       0.4057   0.5155   0.7626     H
H       0.4057   0.9845   0.4874     H
H       0.4226   0.1225      0.6     H
H       0.4226   0.3775     0.65     H
H        0.423   0.1224   0.8593     H
H        0.423   0.3776   0.3907     H
C       0.4235   0.5003  0.40353     C
C       0.4235   0.9997  0.84647     C
C       0.4239   0.0748     0.88     C
C       0.4239   0.4252     0.37     C
C       0.4241   0.5014  0.66308     C
C       0.4241   0.9986  0.58692     C
C       0.4242    0.075   0.6208     C
C       0.4242    0.425   0.6292     C
H       0.4249   0.6236   0.6508     H
H       0.4249   0.8764   0.5992     H
C        0.425   0.5758   0.3708     C
C        0.425   0.9242   0.8792     C
H       0.4251    0.623   0.3919     H
H       0.4251    0.877   0.8581     H
C       0.4252   0.5761     0.63     C
C       0.4252   0.9239     0.62     C
C       0.4313   0.7218   0.4946     C
C       0.4313   0.7782   0.7554     C
C       0.4324   0.6612   0.5291     C
C       0.4324   0.8388   0.7209     C
C       0.4375   0.2357   0.5228     C
C       0.4375   0.2643   0.7272     C
C       0.4378    0.203   0.6921     C
C       0.4378    0.297   0.5579     C
H        0.453   0.5002   0.5425     H
H        0.453   0.9998   0.7075     H
H       0.4531   0.5009   0.2839     H
H       0.4531   0.9991   0.9661     H
H       0.4792   0.6568    0.941     H
H       0.4792   0.8432    0.309     H
H       0.4845   0.0943   0.0126     H
H       0.4845   0.4057   0.2374     H
H       0.4862   0.7296   0.3583     H
H       0.4862   0.7704   0.8917     H
C       0.4866   0.7069   0.9555     C
C       0.4866   0.7931   0.2945     C
H       0.4877   0.2075   0.0628     H
H       0.4877   0.2925   0.1872     H
N       0.4895   0.5944   0.0677     N
N       0.4895   0.9056   0.1823     N
C         0.49   0.7245   0.3237     C
C         0.49   0.7755   0.9263     C
C       0.4921   0.1443   0.9982     C
C       0.4921   0.3557   0.2518     C
C       0.4927   0.6462   0.0394     C
C       0.4927   0.8538   0.2106     C
C       0.4941    0.212   0.0284     C
C       0.4941    0.288   0.2216     C
C       0.4945   0.7149   0.0068     C
C       0.4945   0.7851   0.2432     C
C       0.4972   0.7263  0.75932     C
C       0.4972   0.7737  0.49068     C
N       0.4976   0.6119  0.82376     N
N       0.4976   0.8881  0.42624     N
C       0.4986   0.0759  0.91308     C
C       0.4986   0.4241  0.33692     C
C       0.4986   0.6504   0.3038     C
C       0.4986   0.6633   0.7957     C
C       0.4986   0.8367   0.4543     C
C       0.4986   0.8496   0.9462     C
H       0.4991   0.0469   0.5339     H
H       0.4991   0.4531   0.7161     H
C       0.4997   0.0765  0.65353     C
C       0.4997   0.4235  0.59647     C
C       0.4997   0.6489  0.56123     C
C       0.4997   0.8511  0.68877     C
H       0.4998    0.047   0.7925     H
H       0.4998    0.453   0.4575     H
Ag         0.5      0.0  0.12186    Ag
Ag         0.5      0.0  0.37814    Ag
C          0.5      0.0   0.5552     C
C          0.5      0.0   0.6862     C
C          0.5      0.0   0.8138     C
C          0.5      0.0   0.9448     C
Ag         0.5      0.5  0.12814    Ag
C          0.5      0.5   0.3052     C
C          0.5      0.5   0.4362     C
C          0.5      0.5   0.5638     C
C          0.5      0.5   0.6948     C
Ag         0.5      0.5  0.87186    Ag
H       0.5002    0.547   0.4575     H
H       0.5002    0.953   0.7925     H
C       0.5003   0.1489  0.68877     C
C       0.5003   0.3511  0.56123     C
C       0.5003   0.5765  0.59647     C
C       0.5003   0.9235  0.65353     C
H       0.5009   0.5469   0.7161     H
H       0.5009   0.9531   0.5339     H
C       0.5014   0.1504   0.9462     C
C       0.5014   0.1633   0.4543     C
C       0.5014   0.3367   0.7957     C
C       0.5014   0.3496   0.3038     C
C       0.5014   0.5759  0.33692     C
C       0.5014   0.9241  0.91308     C
N       0.5024   0.1119  0.42624     N
N       0.5024   0.3881  0.82376     N
C       0.5028   0.2263  0.49068     C
C       0.5028   0.2737  0.75932     C
C       0.5055   0.2149   0.2432     C
C       0.5055   0.2851   0.0068     C
C       0.5059    0.712   0.2216     C
C       0.5059    0.788   0.0284     C
C       0.5073   0.1462   0.2106     C
C       0.5073   0.3538   0.0394     C
C       0.5079   0.6443   0.2518     C
C       0.5079   0.8557   0.9982     C
C         0.51   0.2245   0.9263     C
C         0.51   0.2755   0.3237     C
N       0.5105   0.0944   0.1823     N
N       0.5105   0.4056   0.0677     N
H       0.5123   0.7075   0.1872     H
H       0.5123   0.7925   0.0628     H
C       0.5134   0.2069   0.2945     C
C       0.5134   0.2931   0.9555     C
H       0.5138   0.2296   0.8917     H
H       0.5138   0.2704   0.3583     H
H       0.5155   0.5943   0.2374     H
H       0.5155   0.9057   0.0126     H
H       0.5208   0.1568    0.309     H
H       0.5208   0.3432    0.941     H
H       0.5469   0.0009   0.9661     H
H       0.5469   0.4991   0.2839     H
H        0.547   0.0002   0.7075     H
H        0.547   0.4998   0.5425     H
C       0.5622    0.703   0.5579     C
C       0.5622    0.797   0.6921     C
C       0.5625   0.7357   0.7272     C
C       0.5625   0.7643   0.5228     C
C       0.5676   0.1612   0.7209     C
C       0.5676   0.3388   0.5291     C
C       0.5687   0.2218   0.7554     C
C       0.5687   0.2782   0.4946     C
C       0.5748   0.0761     0.62     C
C       0.5748   0.4239     0.63     C
H       0.5749    0.123   0.8581     H
H       0.5749    0.377   0.3919     H
C        0.575   0.0758   0.8792     C
C        0.575   0.4242   0.3708     C
H       0.5751   0.1236   0.5992     H
H       0.5751   0.3764   0.6508     H
C       0.5758    0.575   0.6292     C
C       0.5758    0.925   0.6208     C
C       0.5759   0.0014  0.58692     C
C       0.5759   0.4986  0.66308     C
C       0.5761   0.5748     0.37     C
C       0.5761   0.9252     0.88     C
C       0.5765   0.0003  0.84647     C
C       0.5765   0.4997  0.40353     C
H        0.577   0.6224   0.3907     H
H        0.577   0.8776   0.8593     H
H       0.5774   0.6225     0.65     H
H       0.5774   0.8775      0.6     H
H       0.5943   0.0155   0.4874     H
H       0.5943   0.4845   0.7626     H
N       0.5944   0.5105   0.9323     N
N       0.5944   0.9895   0.3177     N
H       0.6052   0.6983   0.5799     H
H       0.6052   0.8017   0.6701     H
H        0.606   0.7011   0.7294     H
H        0.606   0.7989   0.5206     H
H       0.6116   0.1273   0.7184     H
H       0.6116   0.3727   0.5316     H
N       0.6119   0.5024  0.17624     N
N       0.6119   0.9976  0.07376     N
H       0.6129   0.2286   0.7761     H
H       0.6129   0.2714   0.4739     H
H       0.6224    0.077   0.6407     H
H       0.6224    0.423   0.6093     H
H       0.6225   0.0774      0.9     H
H       0.6225   0.4226     0.35     H
H        0.623   0.5749   0.6081     H
H        0.623   0.9251   0.6419     H
H       0.6236   0.5751   0.3492     H
H       0.6236   0.9249   0.9008     H
H       0.6273   0.6116   0.4684     H
H       0.6273   0.8884   0.7816     H
C       0.6443   0.0079   0.5018     C
C       0.6443   0.4921   0.7482     C
C       0.6462   0.5073   0.9606     C
C       0.6462   0.9927   0.2894     C
C       0.6489   0.5003  0.43877     C
C       0.6489   0.9997  0.81123     C
C       0.6504   0.5014   0.6962     C
C       0.6504   0.9986   0.5538     C
H       0.6568   0.5208    0.059     H
H       0.6568   0.9792    0.191     H
C       0.6612   0.5676   0.4709     C
C       0.6612   0.9324   0.7791     C
C       0.6633   0.5014   0.2043     C
C       0.6633   0.9986   0.0457     C
H       0.6983   0.1052   0.8299     H
H       0.6983   0.3948   0.4201     H
H       0.7011    0.106   0.9794     H
H       0.7011    0.394   0.2706     H
C        0.703   0.0622   0.8079     C
C        0.703   0.4378   0.4421     C
C       0.7069   0.5134   0.0445     C
C       0.7069   0.9866   0.2055     C
H       0.7075   0.0123   0.4372     H
H       0.7075   0.4877   0.8128     H
C        0.712   0.0059   0.4716     C
C        0.712   0.4941   0.7784     C
C       0.7149   0.5055   0.9932     C
C       0.7149   0.9945   0.2568     C
C       0.7218   0.5687   0.5054     C
C       0.7218   0.9313   0.7446     C
C       0.7245     0.51   0.6763     C
C       0.7245     0.99   0.5737     C
C       0.7263   0.5028  0.24068     C
C       0.7263   0.9972  0.00932     C
H       0.7286   0.6129   0.5261     H
H       0.7286   0.8871   0.7239     H
H       0.7296   0.5138   0.6417     H
H       0.7296   0.9862   0.6083     H
C       0.7357   0.0625   0.9772     C
C       0.7357   0.4375   0.2728     C
C       0.7643   0.0625   0.7728     C
C       0.7643   0.4375   0.4772     C
H       0.7704   0.5138   0.1083     H
H       0.7704   0.9862   0.1417     H
H       0.7714   0.6129   0.2239     H
H       0.7714   0.8871   0.0261     H
C       0.7737   0.5028  0.50932     C
C       0.7737   0.9972  0.74068     C
C       0.7755     0.51   0.0737     C
C       0.7755     0.99   0.1763     C
C       0.7782   0.5687   0.2446     C
C       0.7782   0.9313   0.0054     C
C       0.7851   0.5055   0.7568     C
C       0.7851   0.9945   0.4932     C
C        0.788   0.0059   0.2784     C
C        0.788   0.4941   0.9716     C
H       0.7925   0.0123   0.3128     H
H       0.7925   0.4877   0.9372     H
C       0.7931   0.5134   0.7055     C
C       0.7931   0.9866   0.5445     C
C        0.797   0.0622   0.9421     C
C        0.797   0.4378   0.3079     C
H       0.7989    0.106   0.7706     H
H       0.7989    0.394   0.4794     H
H       0.8017   0.1052   0.9201     H
H       0.8017   0.3948   0.3299     H
C       0.8367   0.5014   0.5457     C
C       0.8367   0.9986   0.7043     C
C       0.8388   0.5676   0.2791     C
C       0.8388   0.9324   0.9709     C
H       0.8432   0.5208    0.691     H
H       0.8432   0.9792    0.559     H
C       0.8496   0.5014   0.0538     C
C       0.8496   0.9986   0.1962     C
C       0.8511   0.5003  0.31123     C
C       0.8511   0.9997  0.93877     C
C       0.8538   0.5073   0.7894     C
C       0.8538   0.9927   0.4606     C
C       0.8557   0.0079   0.2482     C
C       0.8557   0.4921   0.0018     C
H       0.8727   0.6116   0.2816     H
H       0.8727   0.8884   0.9684     H
H       0.8764   0.5751   0.4008     H
H       0.8764   0.9249   0.8492     H
H        0.877   0.5749   0.1419     H
H        0.877   0.9251   0.1081     H
H       0.8775   0.0774     0.85     H
H       0.8775   0.4226      0.4     H
H       0.8776    0.077   0.1093     H
H       0.8776    0.423   0.1407     H
H       0.8871   0.2286   0.9739     H
H       0.8871   0.2714   0.2761     H
N       0.8881   0.5024  0.57376     N
N       0.8881   0.9976  0.67624     N
H       0.8884   0.1273   0.0316     H
H       0.8884   0.3727   0.2184     H
H        0.894   0.7011   0.0206     H
H        0.894   0.7989   0.2294     H
H       0.8948   0.6983   0.1701     H
H       0.8948   0.8017   0.0799     H
N       0.9056   0.5105   0.8177     N
N       0.9056   0.9895   0.4323     N
H       0.9057   0.0155   0.2626     H
H       0.9057   0.4845   0.9874     H
H       0.9226   0.6225      0.1     H
H       0.9226   0.8775     0.15     H
H        0.923   0.6224   0.3593     H
H        0.923   0.8776   0.8907     H
C       0.9235   0.0003  0.90353     C
C       0.9235   0.4997  0.34647     C
C       0.9239   0.5748     0.38     C
C       0.9239   0.9252     0.87     C
C       0.9241   0.0014  0.16308     C
C       0.9241   0.4986  0.08692     C
C       0.9242    0.575   0.1208     C
C       0.9242    0.925   0.1292     C
H       0.9249   0.1236   0.1508     H
H       0.9249   0.3764   0.0992     H
C        0.925   0.0758   0.8708     C
C        0.925   0.4242   0.3792     C
H       0.9251    0.123   0.8919     H
H       0.9251    0.377   0.3581     H
C       0.9252   0.0761     0.13     C
C       0.9252   0.4239     0.12     C
C       0.9313   0.2218   0.9946     C
C       0.9313   0.2782   0.2554     C
C       0.9324   0.1612   0.0291     C
C       0.9324   0.3388   0.2209     C
C       0.9375   0.7357   0.0228     C
C       0.9375   0.7643   0.2272     C
C       0.9378    0.703   0.1921     C
C       0.9378    0.797   0.0579     C
H        0.953   0.0002   0.0425     H
H        0.953   0.4998   0.2075     H
H       0.9531   0.0009   0.7839     H
H       0.9531   0.4991   0.4661     H
H       0.9792   0.1568    0.441     H
H       0.9792   0.3432    0.809     H
H       0.9845   0.5943   0.5126     H
H       0.9845   0.9057   0.7374     H
H       0.9862   0.2296   0.8583     H
H       0.9862   0.2704   0.3917     H
C       0.9866   0.2069   0.4555     C
C       0.9866   0.2931   0.7945     C
H       0.9877   0.7075   0.5628     H
H       0.9877   0.7925   0.6872     H
N       0.9895   0.0944   0.5677     N
N       0.9895   0.4056   0.6823     N
C         0.99   0.2245   0.8237     C
C         0.99   0.2755   0.4263     C
C       0.9921   0.6443   0.4982     C
C       0.9921   0.8557   0.7518     C
C       0.9927   0.1462   0.5394     C
C       0.9927   0.3538   0.7106     C
C       0.9941    0.712   0.5284     C
C       0.9941    0.788   0.7216     C
C       0.9945   0.2149   0.5068     C
C       0.9945   0.2851   0.7432     C
C       0.9972   0.2263  0.25932     C
C       0.9972   0.2737  0.99068     C
N       0.9976   0.1119  0.32376     N
N       0.9976   0.3881  0.92624     N
C       0.9986   0.1504   0.8038     C
C       0.9986   0.1633   0.2957     C
C       0.9986   0.3367   0.9543     C
C       0.9986   0.3496   0.4462     C
C       0.9986   0.5759  0.41308     C
C       0.9986   0.9241  0.83692     C
H       0.9991   0.5469   0.0339     H
H       0.9991   0.9531   0.2161     H
C       0.9997   0.1489  0.06123     C
C       0.9997   0.3511  0.18877     C
C       0.9997   0.5765  0.15353     C
C       0.9997   0.9235  0.09647     C
H       0.9998    0.547   0.2925     H
H       0.9998    0.953   0.9575     H
