data_I
_chemical_name_common  '/home/zhangsd/repos/MofS-CGCNN/ML/data/TSD/clean_cifs/FALQIU_clean'
_cell_length_a  7.41470
_cell_length_b 13.66140
_cell_length_c 13.66140
_cell_angle_alpha 120.00000
_cell_angle_beta  90.00000
_cell_angle_gamma 90.00000
_space_group_name_H-M_alt      'P 1'


loop_
_space_group_symop_operation_xyz
  'x, y, z' 

loop_
_atom_site_label
_atom_site_fract_x
_atom_site_fract_y
_atom_site_fract_z
_atom_site_type_symbol
Cu         0.0      0.5      0.5    Cu
H       0.0047   0.0061   0.7931     H
H       0.0047   0.2069    0.213     H
H       0.0047    0.787   0.9939     H
C       0.0333  0.35175  0.26155     C
C       0.0333  0.73845   0.0902     C
C       0.0333   0.9098  0.64825     C
H       0.0476   0.1431   0.3448     H
H       0.0476   0.2017   0.8569     H
H       0.0476   0.6552   0.7983     H
C       0.0912   0.2584   0.2114     C
C       0.0912   0.7886    0.047     C
C       0.0912    0.953   0.7416     C
N       0.1062  0.03667  0.38708     N
N       0.1062  0.35041  0.96333     N
N       0.1062  0.61292  0.64959     N
H       0.1143   0.2382   0.1344     H
H       0.1143   0.8656   0.1038     H
H       0.1143   0.8962   0.7618     H
O       0.1203  0.54693  0.36596     O
O       0.1203  0.63404  0.18097     O
O       0.1203  0.81903  0.45307     O
C       0.1374  0.45499  0.27563     C
C       0.1374  0.72437  0.17936     C
C       0.1374  0.82064  0.54501     C
H       0.1402   0.3544   0.0292     H
H       0.1402   0.6748   0.6456     H
H       0.1402   0.9708   0.3252     H
H       0.2014   0.2542    0.246     H
H       0.2014    0.754   0.0082     H
H       0.2014   0.9918   0.7458     H
O       0.2117  0.07844  0.59308     O
O       0.2117  0.40692  0.48536     O
O       0.2117  0.51464  0.92156     O
H       0.2325   0.1826   0.4523     H
H       0.2325   0.2697   0.8174     H
H       0.2325   0.5477   0.7303     H
O       0.2412  0.44359   0.1993     O
O       0.2412  0.75571  0.55641     O
O       0.2412   0.8007  0.24429     O
C       0.2691    0.107   0.4362     C
C       0.2691   0.3292    0.893     C
C       0.2691   0.5638   0.6708     C
C       0.3149  0.12209  0.55144     C
C       0.3149  0.42935  0.87791     C
C       0.3149  0.44856  0.57065     C
Pr     0.34005  0.66667  0.33334    Pr
H       0.3607   0.0674   0.2816     H
H       0.3607   0.2142   0.9326     H
H       0.3607   0.7184   0.7858     H
C       0.4116   0.0731   0.3489     C
C       0.4116   0.2758   0.9269     C
C       0.4116   0.6511   0.7242     C
O       0.4492  0.18052  0.60115     O
O       0.4492  0.39885  0.57937     O
O       0.4492  0.42063  0.81948     O
H       0.4604   0.0013    0.332     H
H       0.4604   0.3307   0.9987     H
H       0.4604    0.668   0.6693     H
H       0.4942   0.3767   0.2479     H
H       0.4942   0.7521   0.1288     H
H       0.4942   0.8712   0.6233     H
H       0.5058   0.1288   0.3767     H
H       0.5058   0.2479   0.8712     H
H       0.5058   0.6233   0.7521     H
H       0.5396    0.332   0.3307     H
H       0.5396   0.6693   0.0013     H
H       0.5396   0.9987    0.668     H
O       0.5508  0.57937  0.18052     O
O       0.5508  0.60115  0.42063     O
O       0.5508  0.81948  0.39885     O
C       0.5884   0.3489   0.2758     C
C       0.5884   0.7242   0.0731     C
C       0.5884   0.9269   0.6511     C
H       0.6393   0.2816   0.2142     H
H       0.6393   0.7858   0.0674     H
H       0.6393   0.9326   0.7184     H
Pr     0.65995  0.33333  0.66666    Pr
C       0.6851  0.55144  0.42935     C
C       0.6851  0.57065  0.12209     C
C       0.6851  0.87791  0.44856     C
C       0.7309   0.4362   0.3292     C
C       0.7309   0.6708    0.107     C
C       0.7309    0.893   0.5638     C
O       0.7588   0.1993  0.75571     O
O       0.7588  0.24429  0.44359     O
O       0.7588  0.55641   0.8007     O
H       0.7675   0.4523   0.2697     H
H       0.7675   0.7303   0.1826     H
H       0.7675   0.8174   0.5477     H
O       0.7883  0.48536  0.07844     O
O       0.7883  0.59308  0.51464     O
O       0.7883  0.92156  0.40692     O
H       0.7986   0.0082   0.2542     H
H       0.7986    0.246   0.9918     H
H       0.7986   0.7458    0.754     H
H       0.8598   0.0292   0.6748     H
H       0.8598   0.3252   0.3544     H
H       0.8598   0.6456   0.9708     H
C       0.8626  0.17936  0.45499     C
C       0.8626  0.27563  0.82064     C
C       0.8626  0.54501  0.72437     C
O       0.8797  0.18097  0.54693     O
O       0.8797  0.36596  0.81903     O
O       0.8797  0.45307  0.63404     O
H       0.8857   0.1038   0.2382     H
H       0.8857   0.1344   0.8962     H
H       0.8857   0.7618   0.8656     H
N       0.8938  0.38708  0.35041     N
N       0.8938  0.64959  0.03667     N
N       0.8938  0.96333  0.61292     N
C       0.9088    0.047   0.2584     C
C       0.9088   0.2114    0.953     C
C       0.9088   0.7416   0.7886     C
H       0.9524   0.3448   0.2017     H
H       0.9524   0.7983   0.1431     H
H       0.9524   0.8569   0.6552     H
C       0.9667   0.0902  0.35175     C
C       0.9667  0.26155   0.9098     C
C       0.9667  0.64825  0.73845     C
H       0.9953    0.213   0.0061     H
H       0.9953   0.7931    0.787     H
H       0.9953   0.9939   0.2069     H
Cu         1.0      0.5      0.0    Cu
Cu         1.0      1.0      0.5    Cu
