data_I
_chemical_name_common  '/home/zhangsd/repos/MofS-CGCNN/ML/data/TSD/clean_cifs/FALQEQ_clean'
_cell_length_a  7.49350
_cell_length_b 13.62240
_cell_length_c 13.62240
_cell_angle_alpha 120.00000
_cell_angle_beta  90.00000
_cell_angle_gamma 90.00000
_space_group_name_H-M_alt      'P 1'


loop_
_space_group_symop_operation_xyz
  'x, y, z' 

loop_
_atom_site_label
_atom_site_fract_x
_atom_site_fract_y
_atom_site_fract_z
_atom_site_type_symbol
Cu         0.0      0.0      0.5    Cu
Cu         0.0      0.5     -0.0    Cu
H        0.019   0.2121    0.202     H
H        0.019    0.798   0.0101     H
H        0.019   0.9899   0.7879     H
C       0.0321   0.0893   0.7391     C
C       0.0321   0.2609   0.3502     C
C       0.0321   0.6498   0.9107     C
H       0.0469   0.3394   0.1423     H
H       0.0469   0.8029   0.6606     H
H       0.0469   0.8577   0.1971     H
C       0.1026   0.0435   0.7847     C
C       0.1026   0.2153   0.2588     C
C       0.1026   0.7412   0.9565     C
N       0.1059  0.38631  0.03594     N
N       0.1059  0.64963  0.61369     N
N       0.1059  0.96406  0.35037     N
O       0.1173  0.17965  0.63333     O
O       0.1173  0.36667  0.54632     O
O       0.1173  0.45368  0.82035     O
C       0.1365  0.17742  0.72401     C
C       0.1365  0.27599  0.45341     C
C       0.1365  0.54659  0.82258     C
H       0.1376   0.1006   0.8618     H
H       0.1376   0.1382   0.2388     H
H       0.1376   0.7612   0.8994     H
H       0.1399   0.0319    0.355     H
H       0.1399   0.3231   0.9681     H
H       0.1399    0.645   0.6769     H
H       0.2089   0.0028   0.7417     H
H       0.2089   0.2583   0.2611     H
H       0.2089   0.7389   0.9972     H
O       0.2114  0.48477  0.40795     O
O       0.2114  0.59205  0.07682     O
O       0.2114  0.92318  0.51523     O
H       0.2316   0.4519   0.1831     H
H       0.2316   0.7312   0.5481     H
H       0.2316   0.8169   0.2688     H
O       0.2419  0.20065  0.44217     O
O       0.2419  0.24152  0.79935     O
O       0.2419  0.55783  0.75848     O
C       0.2678   0.4352   0.1056     C
C       0.2678   0.6704   0.5648     C
C       0.2678   0.8944   0.3296     C
C       0.3129   0.5502  0.12036     C
C       0.3129  0.57016   0.4498     C
C       0.3129  0.87964  0.42984     C
La     0.34102  0.33333  0.66666    La
H       0.3586   0.2781   0.0655     H
H       0.3586   0.7874   0.7219     H
H       0.3586   0.9345   0.2126     H
C       0.4099    0.347   0.0712     C
C       0.4099   0.7242    0.653     C
C       0.4099   0.9288   0.2758     C
O       0.4481  0.57822  0.40055     O
O       0.4481  0.59945  0.17767     O
O       0.4481  0.82233  0.42178     O
H       0.4589   0.0025    0.332     H
H       0.4589   0.3295   0.9975     H
H       0.4589    0.668   0.6705     H
H       0.4947    0.128   0.7526     H
H       0.4947   0.2474   0.3754     H
H       0.4947   0.6246    0.872     H
H       0.5053   0.3754    0.128     H
H       0.5053   0.7526   0.6246     H
H       0.5053    0.872   0.2474     H
H       0.5411    0.332   0.3295     H
H       0.5411   0.6705   0.0025     H
H       0.5411   0.9975    0.668     H
O       0.5519  0.17767  0.57822     O
O       0.5519  0.40055  0.82233     O
O       0.5519  0.42178  0.59945     O
C       0.5901   0.0712   0.7242     C
C       0.5901   0.2758    0.347     C
C       0.5901    0.653   0.9288     C
H       0.6414   0.0655   0.7874     H
H       0.6414   0.2126   0.2781     H
H       0.6414   0.7219   0.9345     H
La     0.65898  0.66667  0.33334    La
C       0.6871  0.12036  0.57016     C
C       0.6871  0.42984   0.5502     C
C       0.6871   0.4498  0.87964     C
C       0.7322   0.1056   0.6704     C
C       0.7322   0.3296   0.4352     C
C       0.7322   0.5648   0.8944     C
O       0.7581  0.44217  0.24152     O
O       0.7581  0.75848  0.20065     O
O       0.7581  0.79935  0.55783     O
H       0.7684   0.1831   0.7312     H
H       0.7684   0.2688   0.4519     H
H       0.7684   0.5481   0.8169     H
O       0.7886  0.07682  0.48477     O
O       0.7886  0.40795  0.92318     O
O       0.7886  0.51523  0.59205     O
H       0.7911   0.2611   0.0028     H
H       0.7911   0.7417   0.7389     H
H       0.7911   0.9972   0.2583     H
H       0.8601    0.355   0.3231     H
H       0.8601   0.6769   0.0319     H
H       0.8601   0.9681    0.645     H
H       0.8624   0.2388   0.1006     H
H       0.8624   0.8618   0.7612     H
H       0.8624   0.8994   0.1382     H
C       0.8635  0.45341  0.17742     C
C       0.8635  0.72401  0.54659     C
C       0.8635  0.82258  0.27599     C
O       0.8827  0.54632  0.17965     O
O       0.8827  0.63333  0.45368     O
O       0.8827  0.82035  0.36667     O
N       0.8941  0.03594  0.64963     N
N       0.8941  0.35037  0.38631     N
N       0.8941  0.61369  0.96406     N
C       0.8974   0.2588   0.0435     C
C       0.8974   0.7847   0.7412     C
C       0.8974   0.9565   0.2153     C
H       0.9531   0.1423   0.8029     H
H       0.9531   0.1971   0.3394     H
H       0.9531   0.6606   0.8577     H
C       0.9679   0.3502   0.0893     C
C       0.9679   0.7391   0.6498     C
C       0.9679   0.9107   0.2609     C
H        0.981   0.0101   0.2121     H
H        0.981    0.202   0.9899     H
H        0.981   0.7879    0.798     H
Cu         1.0      0.5      0.5    Cu
