data_I
_chemical_name_common  '/home/zhangsd/repos/MofS-CGCNN/ML/data/TSD/clean_cifs/FALVOF_clean'
_cell_length_a 10.95300
_cell_length_b 19.81100
_cell_length_c 23.05600
_cell_angle_alpha 90.00000
_cell_angle_beta  90.00000
_cell_angle_gamma 99.88000
_space_group_name_H-M_alt      'P 1'


loop_
_space_group_symop_operation_xyz
  'x, y, z' 

loop_
_atom_site_label
_atom_site_fract_x
_atom_site_fract_y
_atom_site_fract_z
_atom_site_type_symbol
O       0.0055  0.09869  0.20872     O
O       0.0057  0.80408  0.17878     O
C       0.0086   0.6641   0.7403     C
H       0.0172   0.4928   0.3048     H
O       0.0271  0.17187  0.72899     O
C       0.0358   0.2122   0.7711     C
C       0.0365   0.4556   0.2843     C
C       0.0368   0.6085   0.7089     C
O       0.0378   0.6518  0.12111     O
Pr     0.03935  0.90019  0.35385    Pr
C       0.0449   0.6658   0.1734     C
C       0.0492   0.4754   0.0495     C
C       0.0726   0.3397   0.7918     C
C       0.0779   0.7358   0.7308     C
C        0.078   0.5236   0.9535     C
H       0.0821    0.459   0.0828     H
Cu     0.08994  0.89995  0.17742    Cu
O       0.0906  0.77667  0.77233     O
O       0.0909   0.1739  0.14409     O
C       0.0917   0.3453    0.222     C
C       0.0989   0.1376   0.1878     C
C       0.1044   0.2833   0.7623     C
O       0.1052   0.5704   0.8606     O
H       0.1089   0.3084   0.2005     H
O       0.1144  0.75179  0.67996     O
O       0.1187  0.04757  0.70447     O
H       0.1225   0.4417   0.8044     H
C       0.1268   0.4985   0.0037     C
O       0.1386   0.5916   0.6207     O
C       0.1389   0.4653   0.2471     C
O       0.1439  0.68006  0.20242     O
C       0.1442   0.4043    0.785     C
O       0.1462  0.97913  0.28262     O
Pr     0.14892   0.8523  0.85488    Pr
C       0.1505   0.6118   0.6712     C
C       0.1584   0.5529   0.9042     C
C       0.1668   0.4089   0.2159     C
O         0.17   0.9623  0.53949     O
O       0.1725  0.99504  0.18757     O
C       0.1831   0.0149   0.2398     C
Cu     0.19739  0.84747   0.6783    Cu
O        0.202   0.0589  0.48813     O
O       0.2049   0.1214  0.63868     O
C       0.2077   0.2931   0.7261     C
C       0.2083   0.5364   0.2391     C
C       0.2127   0.0858    0.683     C
C       0.2192   0.1431   0.2198     C
O       0.2246   0.5572  0.18756     O
O       0.2259    0.941   0.4098     O
H        0.228    0.256   0.7058     H
C       0.2389   0.0082   0.5098     C
O       0.2398  0.57177  0.28346     O
O       0.2473  0.86812  0.19603     O
C       0.2482   0.4135   0.7492     C
C       0.2518   0.0865   0.2492     C
O       0.2527  0.63188  0.69603     O
O       0.2602  0.92823  0.78346     O
C       0.2611   0.4918   0.0098     C
H        0.272    0.244   0.2058     H
O       0.2741    0.559   0.9098     O
O       0.2754   0.9428  0.68756     O
C       0.2808   0.3569   0.7198     C
C       0.2873   0.4142    0.183     C
C       0.2917   0.9636   0.7391     C
C       0.2923   0.2069   0.2261     C
O       0.2951   0.3786  0.13868     O
O        0.298   0.4411  0.98813     O
Cu     0.30261  0.65253   0.1783    Cu
C       0.3169   0.4851   0.7398     C
O       0.3275  0.50496  0.68757     O
O         0.33   0.5377  0.03949     O
C       0.3332   0.0911   0.7159     C
C       0.3416   0.9471   0.4042     C
C       0.3495   0.8882   0.1712     C
Pr     0.35108   0.6477  0.35488    Pr
O       0.3538  0.52087  0.78262     O
C       0.3558   0.0957    0.285     C
O       0.3561  0.81994  0.70242     O
C       0.3611   0.0347   0.7471     C
O       0.3614   0.9084   0.1207     O
C       0.3732   0.0015   0.5037     C
H       0.3775   0.0583   0.3044     H
O       0.3813  0.45243  0.20447     O
O       0.3856  0.74821  0.17996     O
H       0.3911   0.1916   0.7005     H
O       0.3948   0.9296   0.3606     O
C       0.3956   0.2167   0.2623     C
C       0.4011   0.3624   0.6878     C
C       0.4083   0.1547    0.722     C
O       0.4091   0.3261  0.64409     O
O       0.4094  0.72333  0.27233     O
Cu     0.41006  0.60005  0.67742    Cu
H       0.4179    0.041   0.5828     H
C        0.422   0.9764   0.4535     C
C       0.4221   0.7642   0.2308     C
C       0.4274   0.1603   0.2918     C
C       0.4508   0.0246   0.5495     C
C       0.4551   0.8342   0.6734     C
Pr     0.46065  0.59981  0.85385    Pr
O       0.4622   0.8482  0.62111     O
C       0.4632   0.8915   0.2089     C
C       0.4635   0.0444   0.7843     C
C       0.4642   0.2878   0.2711     C
O       0.4729  0.32813  0.22899     O
H       0.4828   0.0072   0.8048     H
C       0.4914   0.8359   0.2403     C
O       0.4943  0.69592  0.67878     O
O       0.4945  0.40131  0.70872     O
O       0.5055  0.59869  0.29128     O
O       0.5057  0.30408  0.32122     O
C       0.5086   0.1641   0.7597     C
H       0.5172   0.9928   0.1952     H
O       0.5271  0.67187  0.77101     O
C       0.5358   0.7122   0.7289     C
C       0.5365   0.9556   0.2157     C
C       0.5368   0.1085   0.7911     C
O       0.5378   0.1518  0.37889     O
Pr     0.53935  0.40019  0.14615    Pr
C       0.5449   0.1658   0.3266     C
C       0.5492   0.9754   0.4505     C
C       0.5726   0.8397   0.7082     C
C       0.5779   0.2358   0.7692     C
C        0.578   0.0236   0.5465     C
H       0.5821    0.959   0.4172     H
Cu     0.58994  0.39995  0.32258    Cu
O       0.5906  0.27667  0.72767     O
O       0.5909   0.6739  0.35591     O
C       0.5917   0.8453    0.278     C
C       0.5989   0.6376   0.3122     C
C       0.6044   0.7833   0.7377     C
O       0.6052   0.0704   0.6394     O
H       0.6089   0.8084   0.2995     H
O       0.6144  0.25179  0.82004     O
O       0.6187  0.54757  0.79553     O
H       0.6225   0.9417   0.6956     H
C       0.6268   0.9985   0.4963     C
O       0.6386   0.0916   0.8793     O
C       0.6389   0.9653   0.2529     C
O       0.6439  0.18006  0.29758     O
C       0.6442   0.9043    0.715     C
O       0.6462  0.47913  0.21738     O
Pr     0.64892   0.3523  0.64512    Pr
C       0.6505   0.1118   0.8288     C
C       0.6584   0.0529   0.5958     C
C       0.6668   0.9089   0.2841     C
O         0.67   0.4623  0.96051     O
O       0.6725  0.49504  0.31243     O
C       0.6831   0.5149   0.2602     C
Cu     0.69739  0.34747   0.8217    Cu
O        0.702   0.5589  0.01187     O
O       0.7049   0.6214  0.86132     O
C       0.7077   0.7931   0.7739     C
C       0.7083   0.0364   0.2609     C
C       0.7127   0.5858    0.817     C
C       0.7192   0.6431   0.2802     C
O       0.7246   0.0572  0.31244     O
O       0.7259    0.441   0.0902     O
H        0.728    0.756   0.7942     H
C       0.7389   0.5082   0.9902     C
O       0.7398  0.07177  0.21654     O
O       0.7473  0.36812  0.30397     O
C       0.7482   0.9135   0.7508     C
C       0.7518   0.5865   0.2508     C
O       0.7527  0.13188  0.80397     O
O       0.7602  0.42823  0.71654     O
C       0.7611   0.9918   0.4902     C
H        0.772    0.744   0.2942     H
O       0.7741    0.059   0.5902     O
O       0.7754   0.4428  0.81244     O
C       0.7808   0.8569   0.7802     C
C       0.7873   0.9142    0.317     C
C       0.7917   0.4636   0.7609     C
C       0.7923   0.7069   0.2739     C
O       0.7951   0.8786  0.36132     O
O        0.798   0.9411  0.51187     O
Cu     0.80261  0.15253   0.3217    Cu
C       0.8169   0.9851   0.7602     C
O       0.8275  0.00496  0.81243     O
O         0.83   0.0377  0.46051     O
C       0.8332   0.5911   0.7841     C
C       0.8416   0.4471   0.0958     C
C       0.8495   0.3882   0.3288     C
Pr     0.85108   0.1477  0.14512    Pr
O       0.8538  0.02087  0.71738     O
C       0.8558   0.5957    0.215     C
O       0.8561  0.31994  0.79758     O
C       0.8611   0.5347   0.7529     C
O       0.8614   0.4084   0.3793     O
C       0.8732   0.5015   0.9963     C
H       0.8775   0.5583   0.1956     H
O       0.8813  0.95243  0.29553     O
O       0.8856  0.24821  0.32004     O
H       0.8911   0.6916   0.7995     H
O       0.8948   0.4296   0.1394     O
C       0.8956   0.7167   0.2377     C
C       0.9011   0.8624   0.8122     C
C       0.9083   0.6547    0.778     C
O       0.9091   0.8261  0.85591     O
O       0.9094  0.22333  0.22767     O
Cu     0.91006  0.10005  0.82258    Cu
H       0.9179    0.541   0.9172     H
C        0.922   0.4764   0.0465     C
C       0.9221   0.2642   0.2692     C
C       0.9274   0.6603   0.2082     C
C       0.9508   0.5246   0.9505     C
C       0.9551   0.3342   0.8266     C
Pr     0.96065  0.09981  0.64615    Pr
O       0.9622   0.3482  0.87889     O
C       0.9632   0.3915   0.2911     C
C       0.9635   0.5444   0.7157     C
C       0.9642   0.7878   0.2289     C
O       0.9729  0.82813  0.27101     O
H       0.9828   0.5072   0.6952     H
C       0.9914   0.3359   0.2597     C
O       0.9943  0.19592  0.82122     O
O       0.9945  0.90131  0.79128     O
