data_I
_chemical_name_common  '/home/zhangsd/repos/MofS-CGCNN/ML/data/TSD/clean_cifs/FALZIC_clean'
_cell_length_a 16.83950
_cell_length_b 16.83950
_cell_length_c 16.83950
_cell_angle_alpha 90.00000
_cell_angle_beta  90.00000
_cell_angle_gamma 90.00000
_space_group_name_H-M_alt      'P 1'


loop_
_space_group_symop_operation_xyz
  'x, y, z' 

loop_
_atom_site_label
_atom_site_fract_x
_atom_site_fract_y
_atom_site_fract_z
_atom_site_type_symbol
Ga         0.0      0.0      0.5    Ga
Li         0.0     0.25      0.5    Li
Ga         0.0      0.5      0.0    Ga
Li         0.0      0.5     0.25    Li
Ga         0.0      0.5      0.5    Ga
Li         0.0      0.5     0.75    Li
Li         0.0     0.75      0.5    Li
O      0.01638    0.306  0.40749     O
O      0.01638  0.40749    0.306     O
O      0.01638  0.59251    0.694     O
O      0.01638    0.694  0.59251     O
O      0.05824  0.05824   0.5698     O
O      0.05824   0.4302  0.94176     O
O      0.05824   0.5698  0.05824     O
O      0.05824  0.94176   0.4302     O
P      0.06496  0.37669  0.37669     P
P      0.06496  0.62331  0.62331     P
O       0.0698  0.44176  0.44176     O
O       0.0698  0.55824  0.55824     O
O      0.09251    0.194  0.51638     O
O      0.09251  0.48362    0.806     O
O      0.09251  0.51638    0.194     O
O      0.09251    0.806  0.48362     O
P      0.12331  0.12331  0.56496     P
P      0.12331  0.43504  0.87669     P
P      0.12331  0.56496  0.12331     P
P      0.12331  0.87669  0.43504     P
O      0.14662  0.14662   0.6475     O
O      0.14662   0.3525  0.85338     O
O      0.14662   0.6475  0.14662     O
O      0.14662  0.85338   0.3525     O
O       0.1475  0.35338  0.35338     O
O       0.1475  0.64662  0.64662     O
O        0.194  0.09251  0.51638     O
O        0.194  0.48362  0.90749     O
O        0.194  0.51638  0.09251     O
O        0.194  0.90749  0.48362     O
Li        0.25      0.0      0.5    Li
Li        0.25      0.5      0.0    Li
O        0.306  0.01638  0.40749     O
O        0.306  0.40749  0.01638     O
O        0.306  0.59251  0.98362     O
O        0.306  0.98362  0.59251     O
O       0.3525  0.14662  0.85338     O
O       0.3525  0.85338  0.14662     O
O      0.35338   0.1475  0.35338     O
O      0.35338  0.35338   0.1475     O
O      0.35338  0.64662   0.8525     O
O      0.35338   0.8525  0.64662     O
P      0.37669  0.06496  0.37669     P
P      0.37669  0.37669  0.06496     P
P      0.37669  0.62331  0.93504     P
P      0.37669  0.93504  0.62331     P
O      0.40749  0.01638    0.306     O
O      0.40749    0.306  0.01638     O
O      0.40749    0.694  0.98362     O
O      0.40749  0.98362    0.694     O
O       0.4302  0.05824  0.94176     O
O       0.4302  0.94176  0.05824     O
P      0.43504  0.12331  0.87669     P
P      0.43504  0.87669  0.12331     P
O      0.44176   0.0698  0.44176     O
O      0.44176  0.44176   0.0698     O
O      0.44176  0.55824   0.9302     O
O      0.44176   0.9302  0.55824     O
O      0.48362  0.09251    0.806     O
O      0.48362    0.194  0.90749     O
O      0.48362    0.806  0.09251     O
O      0.48362  0.90749    0.194     O
Ga         0.5      0.0      0.0    Ga
Li         0.5      0.0     0.25    Li
Ga         0.5      0.0      0.5    Ga
Li         0.5      0.0     0.75    Li
Li         0.5     0.25      0.0    Li
Ga         0.5      0.5      0.0    Ga
Li         0.5     0.75      0.0    Li
O      0.51638  0.09251    0.194     O
O      0.51638    0.194  0.09251     O
O      0.51638    0.806  0.90749     O
O      0.51638  0.90749    0.806     O
O      0.55824   0.0698  0.55824     O
O      0.55824  0.44176   0.9302     O
O      0.55824  0.55824   0.0698     O
O      0.55824   0.9302  0.44176     O
P      0.56496  0.12331  0.12331     P
P      0.56496  0.87669  0.87669     P
O       0.5698  0.05824  0.05824     O
O       0.5698  0.94176  0.94176     O
O      0.59251  0.01638    0.694     O
O      0.59251    0.306  0.98362     O
O      0.59251    0.694  0.01638     O
O      0.59251  0.98362    0.306     O
P      0.62331  0.06496  0.62331     P
P      0.62331  0.37669  0.93504     P
P      0.62331  0.62331  0.06496     P
P      0.62331  0.93504  0.37669     P
O      0.64662   0.1475  0.64662     O
O      0.64662  0.35338   0.8525     O
O      0.64662  0.64662   0.1475     O
O      0.64662   0.8525  0.35338     O
O       0.6475  0.14662  0.14662     O
O       0.6475  0.85338  0.85338     O
O        0.694  0.01638  0.59251     O
O        0.694  0.40749  0.98362     O
O        0.694  0.59251  0.01638     O
O        0.694  0.98362  0.40749     O
Li        0.75      0.0      0.5    Li
Li        0.75      0.5      0.0    Li
O        0.806  0.09251  0.48362     O
O        0.806  0.48362  0.09251     O
O        0.806  0.51638  0.90749     O
O        0.806  0.90749  0.51638     O
O       0.8525  0.35338  0.64662     O
O       0.8525  0.64662  0.35338     O
O      0.85338  0.14662   0.3525     O
O      0.85338   0.3525  0.14662     O
O      0.85338   0.6475  0.85338     O
O      0.85338  0.85338   0.6475     O
P      0.87669  0.12331  0.43504     P
P      0.87669  0.43504  0.12331     P
P      0.87669  0.56496  0.87669     P
P      0.87669  0.87669  0.56496     P
O      0.90749    0.194  0.48362     O
O      0.90749  0.48362    0.194     O
O      0.90749  0.51638    0.806     O
O      0.90749    0.806  0.51638     O
O       0.9302  0.44176  0.55824     O
O       0.9302  0.55824  0.44176     O
P      0.93504  0.37669  0.62331     P
P      0.93504  0.62331  0.37669     P
O      0.94176  0.05824   0.4302     O
O      0.94176   0.4302  0.05824     O
O      0.94176   0.5698  0.94176     O
O      0.94176  0.94176   0.5698     O
O      0.98362    0.306  0.59251     O
O      0.98362  0.40749    0.694     O
O      0.98362  0.59251    0.306     O
O      0.98362    0.694  0.40749     O
