data_I
_chemical_name_common  '/home/zhangsd/repos/MofS-CGCNN/ML/data/TSD/clean_cifs/FALZEY_clean'
_cell_length_a 16.66070
_cell_length_b 16.66070
_cell_length_c 16.66070
_cell_angle_alpha 90.00000
_cell_angle_beta  90.00000
_cell_angle_gamma 90.00000
_space_group_name_H-M_alt      'P 1'


loop_
_space_group_symop_operation_xyz
  'x, y, z' 

loop_
_atom_site_label
_atom_site_fract_x
_atom_site_fract_y
_atom_site_fract_z
_atom_site_type_symbol
Al         0.0      0.0      0.5    Al
Li         0.0     0.25      0.5    Li
Al         0.0      0.5      0.0    Al
Li         0.0      0.5     0.25    Li
Al         0.0      0.5      0.5    Al
Li         0.0      0.5     0.75    Li
Li         0.0     0.75      0.5    Li
O      0.01867  0.30522   0.5907     O
O      0.01867   0.4093  0.69478     O
O      0.01867   0.5907  0.30522     O
O      0.01867  0.69478   0.4093     O
O      0.05691  0.05691  0.43405     O
O      0.05691  0.43405  0.05691     O
O      0.05691  0.56595  0.94309     O
O      0.05691  0.94309  0.56595     O
P      0.06584  0.37768  0.62232     P
P      0.06584  0.62232  0.37768     P
O      0.06595  0.44309  0.55691     O
O      0.06595  0.55691  0.44309     O
O       0.0907  0.19478  0.48133     O
O       0.0907  0.48133  0.19478     O
O       0.0907  0.51867  0.80522     O
O       0.0907  0.80522  0.51867     O
P      0.12232  0.12232  0.43416     P
P      0.12232  0.43416  0.12232     P
P      0.12232  0.56584  0.87768     P
P      0.12232  0.87768  0.56584     P
O      0.14416  0.14416  0.34864     O
O      0.14416  0.34864  0.14416     O
O      0.14416  0.65136  0.85584     O
O      0.14416  0.85584  0.65136     O
O      0.15136  0.35584  0.64416     O
O      0.15136  0.64416  0.35584     O
O      0.19478   0.0907  0.48133     O
O      0.19478  0.48133   0.0907     O
O      0.19478  0.51867   0.9093     O
O      0.19478   0.9093  0.51867     O
Li        0.25      0.0      0.5    Li
Li        0.25      0.5      0.0    Li
O      0.30522  0.01867   0.5907     O
O      0.30522   0.4093  0.98133     O
O      0.30522   0.5907  0.01867     O
O      0.30522  0.98133   0.4093     O
O      0.34864  0.14416  0.14416     O
O      0.34864  0.85584  0.85584     O
O      0.35584  0.15136  0.64416     O
O      0.35584  0.35584  0.84864     O
O      0.35584  0.64416  0.15136     O
O      0.35584  0.84864  0.35584     O
P      0.37768  0.06584  0.62232     P
P      0.37768  0.37768  0.93416     P
P      0.37768  0.62232  0.06584     P
P      0.37768  0.93416  0.37768     P
O       0.4093  0.01867  0.69478     O
O       0.4093  0.30522  0.98133     O
O       0.4093  0.69478  0.01867     O
O       0.4093  0.98133  0.30522     O
O      0.43405  0.05691  0.05691     O
O      0.43405  0.94309  0.94309     O
P      0.43416  0.12232  0.12232     P
P      0.43416  0.87768  0.87768     P
O      0.44309  0.06595  0.55691     O
O      0.44309  0.44309  0.93405     O
O      0.44309  0.55691  0.06595     O
O      0.44309  0.93405  0.44309     O
O      0.48133   0.0907  0.19478     O
O      0.48133  0.19478   0.0907     O
O      0.48133  0.80522   0.9093     O
O      0.48133   0.9093  0.80522     O
Al         0.5      0.0      0.0    Al
Li         0.5      0.0     0.25    Li
Al         0.5      0.0      0.5    Al
Li         0.5      0.0     0.75    Li
Li         0.5     0.25      0.0    Li
Al         0.5      0.5      0.0    Al
Li         0.5     0.75      0.0    Li
O      0.51867   0.0907  0.80522     O
O      0.51867  0.19478   0.9093     O
O      0.51867  0.80522   0.0907     O
O      0.51867   0.9093  0.19478     O
O      0.55691  0.06595  0.44309     O
O      0.55691  0.44309  0.06595     O
O      0.55691  0.55691  0.93405     O
O      0.55691  0.93405  0.55691     O
P      0.56584  0.12232  0.87768     P
P      0.56584  0.87768  0.12232     P
O      0.56595  0.05691  0.94309     O
O      0.56595  0.94309  0.05691     O
O       0.5907  0.01867  0.30522     O
O       0.5907  0.30522  0.01867     O
O       0.5907  0.69478  0.98133     O
O       0.5907  0.98133  0.69478     O
P      0.62232  0.06584  0.37768     P
P      0.62232  0.37768  0.06584     P
P      0.62232  0.62232  0.93416     P
P      0.62232  0.93416  0.62232     P
O      0.64416  0.15136  0.35584     O
O      0.64416  0.35584  0.15136     O
O      0.64416  0.64416  0.84864     O
O      0.64416  0.84864  0.64416     O
O      0.65136  0.14416  0.85584     O
O      0.65136  0.85584  0.14416     O
O      0.69478  0.01867   0.4093     O
O      0.69478   0.4093  0.01867     O
O      0.69478   0.5907  0.98133     O
O      0.69478  0.98133   0.5907     O
Li        0.75      0.0      0.5    Li
Li        0.75      0.5      0.0    Li
O      0.80522   0.0907  0.51867     O
O      0.80522  0.48133   0.9093     O
O      0.80522  0.51867   0.0907     O
O      0.80522   0.9093  0.48133     O
O      0.84864  0.35584  0.35584     O
O      0.84864  0.64416  0.64416     O
O      0.85584  0.14416  0.65136     O
O      0.85584  0.34864  0.85584     O
O      0.85584  0.65136  0.14416     O
O      0.85584  0.85584  0.34864     O
P      0.87768  0.12232  0.56584     P
P      0.87768  0.43416  0.87768     P
P      0.87768  0.56584  0.12232     P
P      0.87768  0.87768  0.43416     P
O       0.9093  0.19478  0.51867     O
O       0.9093  0.48133  0.80522     O
O       0.9093  0.51867  0.19478     O
O       0.9093  0.80522  0.48133     O
O      0.93405  0.44309  0.44309     O
O      0.93405  0.55691  0.55691     O
P      0.93416  0.37768  0.37768     P
P      0.93416  0.62232  0.62232     P
O      0.94309  0.05691  0.56595     O
O      0.94309  0.43405  0.94309     O
O      0.94309  0.56595  0.05691     O
O      0.94309  0.94309  0.43405     O
O      0.98133  0.30522   0.4093     O
O      0.98133   0.4093  0.30522     O
O      0.98133   0.5907  0.69478     O
O      0.98133  0.69478   0.5907     O
