data_I
_chemical_name_common  '/home/zhangsd/repos/MofS-CGCNN/ML/data/TSD/clean_cifs/FAMHAE_clean'
_cell_length_a 12.36700
_cell_length_b 12.36700
_cell_length_c  5.29340
_cell_angle_alpha 90.00000
_cell_angle_beta  90.00000
_cell_angle_gamma 90.00000
_space_group_name_H-M_alt      'P 1'


loop_
_space_group_symop_operation_xyz
  'x, y, z' 

loop_
_atom_site_label
_atom_site_fract_x
_atom_site_fract_y
_atom_site_fract_z
_atom_site_type_symbol
Co      0.0152   0.3212   0.2873    Co
O       0.0322   0.5703   0.5188     O
O       0.1002   0.7929    0.684     O
C       0.1044   0.5034   0.5844     C
H       0.1227   0.5998     0.12     H
N       0.1264    0.617   0.9718     N
O       0.1277   0.4195   0.4666     O
O       0.1322   0.2571   0.0362     O
C       0.1689    0.526   0.8189     C
H       0.1709   0.4606   0.9234     H
C       0.1866   0.7933   0.8109     C
H       0.1991   0.7339   0.1751     H
C       0.2065   0.7037   0.0049     C
C       0.2067   0.1866   0.0609     C
O       0.2071   0.1002    0.934     O
O       0.2571   0.8678   0.7862     O
H       0.2661   0.1991   0.4251     H
H       0.2903   0.3717   0.1901     H
C       0.2963   0.2065   0.2549     C
S      0.30695  0.56086   0.7232     S
C       0.3185   0.6544   0.9782     C
Co      0.3212   0.9848   0.0373    Co
H       0.3396   0.6177   0.1324     H
C       0.3456   0.3185   0.2282     C
H       0.3717   0.7097   0.9401     H
H       0.3823   0.3396   0.3824     H
N        0.383   0.1264   0.2218     N
H       0.4002   0.1227     0.37     H
O       0.4195   0.8723   0.2166     O
O       0.4297   0.0322   0.7688     O
S      0.43914  0.30695   0.9732     S
H       0.4606   0.8291   0.6734     H
C        0.474   0.1689   0.0689     C
C       0.4966   0.1044   0.8344     C
C       0.5034   0.8956   0.3344     C
C        0.526   0.8311   0.5689     C
H       0.5394   0.1709   0.1734     H
S      0.56086  0.69305   0.4732     S
O       0.5703   0.9678   0.2688     O
O       0.5805   0.1277   0.7166     O
H       0.5998   0.8773     0.87     H
N        0.617   0.8736   0.7218     N
H       0.6177   0.6604   0.8824     H
H       0.6283   0.2903   0.4401     H
C       0.6544   0.6815   0.7282     C
H       0.6604   0.3823   0.6324     H
Co      0.6788   0.0152   0.5373    Co
C       0.6815   0.3456   0.4782     C
S      0.69305  0.43914   0.2232     S
C       0.7037   0.7935   0.7549     C
H       0.7097   0.6283   0.6901     H
H       0.7339   0.8009   0.9251     H
O       0.7429   0.1322   0.2862     O
O       0.7929   0.8998    0.434     O
C       0.7933   0.8134   0.5609     C
C       0.7935   0.2963   0.5049     C
H       0.8009   0.2661   0.6751     H
C       0.8134   0.2067   0.3109     C
H       0.8291   0.5394   0.4234     H
C       0.8311    0.474   0.3189     C
O       0.8678   0.7429   0.5362     O
O       0.8723   0.5805   0.9666     O
N       0.8736    0.383   0.4718     N
H       0.8773   0.4002     0.62     H
C       0.8956   0.4966   0.0844     C
O       0.8998   0.2071    0.184     O
O       0.9678   0.4297   0.0188     O
Co      0.9848   0.6788   0.7873    Co
