data_I
_chemical_name_common  '/home/zhangsd/repos/MofS-CGCNN/ML/data/TSD/clean_cifs/FAMQAO_clean'
_cell_length_a 18.74710
_cell_length_b 18.74710
_cell_length_c 34.83390
_cell_angle_alpha 90.00000
_cell_angle_beta  90.00000
_cell_angle_gamma 90.00000
_space_group_name_H-M_alt      'P 1'


loop_
_space_group_symop_operation_xyz
  'x, y, z' 

loop_
_atom_site_label
_atom_site_fract_x
_atom_site_fract_y
_atom_site_fract_z
_atom_site_type_symbol
N        0.009    0.331   0.0968     N
N        0.009    0.331   0.9032     N
C       0.0092   0.4651      0.0     C
H       0.0136   0.4543   0.0572     H
H       0.0136   0.4543   0.9428     H
C       0.0139   0.3038   0.1402     C
C       0.0139   0.3038   0.8598     C
C       0.0147   0.2637   0.2191     C
C       0.0147   0.2637   0.7809     C
H       0.0149   0.2505   0.2448     H
H       0.0149   0.2505   0.7552     H
H        0.018    0.633   0.0922     H
H        0.018    0.633   0.9078     H
C        0.023   0.4313    0.034     C
C        0.023   0.4313    0.966     C
C       0.0349   0.4908      0.5     C
H       0.0457   0.4864   0.4428     H
H       0.0457   0.4864   0.5572     H
C       0.0508   0.3637    0.034     C
C       0.0508   0.3637    0.966     C
C       0.0511   0.7213   0.2003     C
C       0.0511   0.7213   0.7997     C
C       0.0515   0.7012   0.1608     C
C       0.0515   0.7012   0.8392     C
C       0.0562   0.3151     0.07     C
C       0.0562   0.3151     0.93     C
C       0.0646     0.33      0.0     C
C       0.0687    0.477    0.466     C
C       0.0687    0.477    0.534     C
C       0.0797   0.2888    0.159     C
C       0.0797   0.2888    0.841     C
C       0.0801   0.2687   0.1984     C
C       0.0801   0.2687   0.8016     C
H       0.0835   0.2841      0.0     H
H       0.0944   0.6914   0.1486     H
H       0.0944   0.6914   0.8514     H
O        0.111    0.279   0.0758     O
O        0.111    0.279   0.9242     O
C       0.1149   0.7263   0.2204     C
C       0.1149   0.7263   0.7796     C
O       0.1164   0.7523   0.2534     O
O       0.1164   0.7523   0.7466     O
H       0.1224   0.2922   0.1455     H
H       0.1224   0.2922   0.8545     H
H        0.133    0.518   0.4078     H
H        0.133    0.518   0.5922     H
C       0.1363   0.4492    0.466     C
C       0.1363   0.4492    0.534     C
C       0.1443   0.2541   0.2168     C
C       0.1443   0.2541   0.7832     C
O        0.145   0.2255   0.2492     O
O        0.145   0.2255   0.7508     O
N        0.169    0.491   0.4032     N
N        0.169    0.491   0.5968     N
C         0.17   0.4354      0.5     C
O       0.1719    0.705   0.2058     O
O       0.1719    0.705   0.7942     O
C       0.1849   0.4438     0.43     C
C       0.1849   0.4438     0.57     C
H       0.1914   0.5944   0.3514     H
H       0.1914   0.5944   0.6486     H
C       0.1962   0.4861   0.3598     C
C       0.1962   0.4861   0.6402     C
C       0.2012   0.5515   0.3392     C
C       0.2012   0.5515   0.6608     C
O       0.2023   0.2693   0.2012     O
O       0.2023   0.2693   0.7988     O
O        0.205   0.6719   0.2942     O
O        0.205   0.6719   0.7058     O
Cu      0.2052   0.7581    0.274    Cu
Cu      0.2052   0.7581    0.726    Cu
H       0.2078   0.3776   0.3545     H
H       0.2078   0.3776   0.6455     H
C       0.2112   0.4203    0.341     C
C       0.2112   0.4203    0.659     C
H       0.2159   0.4165      0.5     H
O        0.221    0.389   0.4242     O
O        0.221    0.389   0.5758     O
C       0.2213   0.5511   0.2997     C
C       0.2213   0.5511   0.7003     C
O       0.2255    0.855   0.2492     O
O       0.2255    0.855   0.7508     O
C       0.2263   0.6149   0.2796     C
C       0.2263   0.6149   0.7204     C
O       0.2307   0.2977   0.2988     O
O       0.2307   0.2977   0.7012     O
C       0.2313   0.4199   0.3016     C
C       0.2313   0.4199   0.6984     C
C       0.2363   0.4853   0.2809     C
C       0.2363   0.4853   0.7191     C
Cu      0.2419   0.2052    0.274    Cu
Cu      0.2419   0.2052    0.726    Cu
C       0.2459   0.3557   0.2832     C
C       0.2459   0.3557   0.7168     C
O       0.2477   0.1164   0.2534     O
O       0.2477   0.1164   0.7466     O
H       0.2495   0.4851   0.2552     H
H       0.2495   0.4851   0.7448     H
H       0.2505   0.9851   0.2448     H
H       0.2505   0.9851   0.7552     H
O       0.2523   0.6164   0.2466     O
O       0.2523   0.6164   0.7534     O
C       0.2541   0.8557   0.2168     C
C       0.2541   0.8557   0.7832     C
Cu      0.2581   0.7052    0.226    Cu
Cu      0.2581   0.7052    0.774    Cu
C       0.2637   0.9853   0.2191     C
C       0.2637   0.9853   0.7809     C
C       0.2687   0.9199   0.1984     C
C       0.2687   0.9199   0.8016     C
O       0.2693   0.7977   0.2012     O
O       0.2693   0.7977   0.7988     O
C       0.2737   0.1149   0.2204     C
C       0.2737   0.1149   0.7796     C
O       0.2745    0.355   0.2508     O
O       0.2745    0.355   0.7492     O
C       0.2787   0.0511   0.2003     C
C       0.2787   0.0511   0.7997     C
O        0.279    0.889   0.0758     O
O        0.279    0.889   0.9242     O
H       0.2841   0.9165      0.0     H
C       0.2888   0.9203    0.159     C
C       0.2888   0.9203    0.841     C
H       0.2922   0.8776   0.1455     H
H       0.2922   0.8776   0.8545     H
Cu      0.2948   0.2581    0.226    Cu
Cu      0.2948   0.2581    0.774    Cu
O        0.295   0.1719   0.2058     O
O        0.295   0.1719   0.7942     O
O       0.2977   0.7693   0.2988     O
O       0.2977   0.7693   0.7012     O
C       0.2988   0.0515   0.1608     C
C       0.2988   0.0515   0.8392     C
C       0.3038   0.9861   0.1402     C
C       0.3038   0.9861   0.8598     C
H       0.3086   0.0944   0.1486     H
H       0.3086   0.0944   0.8514     H
C       0.3151   0.9438     0.07     C
C       0.3151   0.9438     0.93     C
O       0.3281    0.205   0.2942     O
O       0.3281    0.205   0.7058     O
C         0.33   0.9354      0.0     C
N        0.331    0.991   0.0968     N
N        0.331    0.991   0.9032     N
O        0.355   0.7255   0.2508     O
O        0.355   0.7255   0.7492     O
C       0.3557   0.7541   0.2832     C
C       0.3557   0.7541   0.7168     C
C       0.3637   0.9492    0.034     C
C       0.3637   0.9492    0.966     C
H        0.367    0.018   0.0922     H
H        0.367    0.018   0.9078     H
H       0.3776   0.7922   0.3545     H
H       0.3776   0.7922   0.6455     H
O       0.3836   0.2523   0.2466     O
O       0.3836   0.2523   0.7534     O
C       0.3851   0.2263   0.2796     C
C       0.3851   0.2263   0.7204     C
O        0.389    0.779   0.4242     O
O        0.389    0.779   0.5758     O
H       0.4056   0.1914   0.3514     H
H       0.4056   0.1914   0.6486     H
H       0.4165   0.7841      0.5     H
C       0.4199   0.7687   0.3016     C
C       0.4199   0.7687   0.6984     C
C       0.4203   0.7888    0.341     C
C       0.4203   0.7888    0.659     C
C       0.4313    0.977    0.034     C
C       0.4313    0.977    0.966     C
C       0.4354     0.83      0.5     C
C       0.4438   0.8151     0.43     C
C       0.4438   0.8151     0.57     C
C       0.4485   0.2012   0.3392     C
C       0.4485   0.2012   0.6608     C
C       0.4489   0.2213   0.2997     C
C       0.4489   0.2213   0.7003     C
C       0.4492   0.8637    0.466     C
C       0.4492   0.8637    0.534     C
H       0.4543   0.9864   0.0572     H
H       0.4543   0.9864   0.9428     H
C       0.4651   0.9908      0.0     C
C        0.477   0.9313    0.466     C
C        0.477   0.9313    0.534     C
H        0.482    0.133   0.4078     H
H        0.482    0.133   0.5922     H
H       0.4851   0.7505   0.2552     H
H       0.4851   0.7505   0.7448     H
C       0.4853   0.7637   0.2809     C
C       0.4853   0.7637   0.7191     C
C       0.4861   0.8038   0.3598     C
C       0.4861   0.8038   0.6402     C
H       0.4864   0.9543   0.4428     H
H       0.4864   0.9543   0.5572     H
C       0.4908   0.9651      0.5     C
N        0.491    0.831   0.4032     N
N        0.491    0.831   0.5968     N
N        0.509    0.169   0.4032     N
N        0.509    0.169   0.5968     N
C       0.5092   0.0349      0.5     C
H       0.5136   0.0457   0.4428     H
H       0.5136   0.0457   0.5572     H
C       0.5139   0.1962   0.3598     C
C       0.5139   0.1962   0.6402     C
C       0.5147   0.2363   0.2809     C
C       0.5147   0.2363   0.7191     C
H       0.5149   0.2495   0.2552     H
H       0.5149   0.2495   0.7448     H
H        0.518    0.867   0.4078     H
H        0.518    0.867   0.5922     H
C        0.523   0.0687    0.466     C
C        0.523   0.0687    0.534     C
C       0.5349   0.0092      0.0     C
H       0.5457   0.0136   0.0572     H
H       0.5457   0.0136   0.9428     H
C       0.5508   0.1363    0.466     C
C       0.5508   0.1363    0.534     C
C       0.5511   0.7787   0.2997     C
C       0.5511   0.7787   0.7003     C
C       0.5515   0.7988   0.3392     C
C       0.5515   0.7988   0.6608     C
C       0.5562   0.1849     0.43     C
C       0.5562   0.1849     0.57     C
C       0.5646     0.17      0.5     C
C       0.5687    0.023    0.034     C
C       0.5687    0.023    0.966     C
C       0.5797   0.2112    0.341     C
C       0.5797   0.2112    0.659     C
C       0.5801   0.2313   0.3016     C
C       0.5801   0.2313   0.6984     C
H       0.5835   0.2159      0.5     H
H       0.5944   0.8086   0.3514     H
H       0.5944   0.8086   0.6486     H
O        0.611    0.221   0.4242     O
O        0.611    0.221   0.5758     O
C       0.6149   0.7737   0.2796     C
C       0.6149   0.7737   0.7204     C
O       0.6164   0.7477   0.2466     O
O       0.6164   0.7477   0.7534     O
H       0.6224   0.2078   0.3545     H
H       0.6224   0.2078   0.6455     H
H        0.633    0.982   0.0922     H
H        0.633    0.982   0.9078     H
C       0.6363   0.0508    0.034     C
C       0.6363   0.0508    0.966     C
C       0.6443   0.2459   0.2832     C
C       0.6443   0.2459   0.7168     C
O        0.645   0.2745   0.2508     O
O        0.645   0.2745   0.7492     O
N        0.669    0.009   0.0968     N
N        0.669    0.009   0.9032     N
C         0.67   0.0646      0.0     C
O       0.6719    0.795   0.2942     O
O       0.6719    0.795   0.7058     O
C       0.6849   0.0562     0.07     C
C       0.6849   0.0562     0.93     C
H       0.6914   0.9056   0.1486     H
H       0.6914   0.9056   0.8514     H
C       0.6962   0.0139   0.1402     C
C       0.6962   0.0139   0.8598     C
C       0.7012   0.9485   0.1608     C
C       0.7012   0.9485   0.8392     C
O       0.7023   0.2307   0.2988     O
O       0.7023   0.2307   0.7012     O
O        0.705   0.8281   0.2058     O
O        0.705   0.8281   0.7942     O
Cu      0.7052   0.7419    0.226    Cu
Cu      0.7052   0.7419    0.774    Cu
H       0.7078   0.1224   0.1455     H
H       0.7078   0.1224   0.8545     H
C       0.7112   0.0797    0.159     C
C       0.7112   0.0797    0.841     C
H       0.7159   0.0835      0.0     H
O        0.721    0.111   0.0758     O
O        0.721    0.111   0.9242     O
C       0.7213   0.9489   0.2003     C
C       0.7213   0.9489   0.7997     C
O       0.7255    0.645   0.2508     O
O       0.7255    0.645   0.7492     O
C       0.7263   0.8851   0.2204     C
C       0.7263   0.8851   0.7796     C
O       0.7307   0.2023   0.2012     O
O       0.7307   0.2023   0.7988     O
C       0.7313   0.0801   0.1984     C
C       0.7313   0.0801   0.8016     C
C       0.7363   0.0147   0.2191     C
C       0.7363   0.0147   0.7809     C
Cu      0.7419   0.2948    0.226    Cu
Cu      0.7419   0.2948    0.774    Cu
C       0.7459   0.1443   0.2168     C
C       0.7459   0.1443   0.7832     C
O       0.7477   0.3836   0.2466     O
O       0.7477   0.3836   0.7534     O
H       0.7495   0.0149   0.2448     H
H       0.7495   0.0149   0.7552     H
H       0.7505   0.5149   0.2552     H
H       0.7505   0.5149   0.7448     H
O       0.7523   0.8836   0.2534     O
O       0.7523   0.8836   0.7466     O
C       0.7541   0.6443   0.2832     C
C       0.7541   0.6443   0.7168     C
Cu      0.7581   0.7948    0.274    Cu
Cu      0.7581   0.7948    0.726    Cu
C       0.7637   0.5147   0.2809     C
C       0.7637   0.5147   0.7191     C
C       0.7687   0.5801   0.3016     C
C       0.7687   0.5801   0.6984     C
O       0.7693   0.7023   0.2988     O
O       0.7693   0.7023   0.7012     O
C       0.7737   0.3851   0.2796     C
C       0.7737   0.3851   0.7204     C
O       0.7745    0.145   0.2492     O
O       0.7745    0.145   0.7508     O
C       0.7787   0.4489   0.2997     C
C       0.7787   0.4489   0.7003     C
O        0.779    0.611   0.4242     O
O        0.779    0.611   0.5758     O
H       0.7841   0.5835      0.5     H
C       0.7888   0.5797    0.341     C
C       0.7888   0.5797    0.659     C
H       0.7922   0.6224   0.3545     H
H       0.7922   0.6224   0.6455     H
Cu      0.7948   0.2419    0.274    Cu
Cu      0.7948   0.2419    0.726    Cu
O        0.795   0.3281   0.2942     O
O        0.795   0.3281   0.7058     O
O       0.7977   0.7307   0.2012     O
O       0.7977   0.7307   0.7988     O
C       0.7988   0.4485   0.3392     C
C       0.7988   0.4485   0.6608     C
C       0.8038   0.5139   0.3598     C
C       0.8038   0.5139   0.6402     C
H       0.8086   0.4056   0.3514     H
H       0.8086   0.4056   0.6486     H
C       0.8151   0.5562     0.43     C
C       0.8151   0.5562     0.57     C
O       0.8281    0.295   0.2058     O
O       0.8281    0.295   0.7942     O
C         0.83   0.5646      0.5     C
N        0.831    0.509   0.4032     N
N        0.831    0.509   0.5968     N
O        0.855   0.7745   0.2492     O
O        0.855   0.7745   0.7508     O
C       0.8557   0.7459   0.2168     C
C       0.8557   0.7459   0.7832     C
C       0.8637   0.5508    0.466     C
C       0.8637   0.5508    0.534     C
H        0.867    0.482   0.4078     H
H        0.867    0.482   0.5922     H
H       0.8776   0.7078   0.1455     H
H       0.8776   0.7078   0.8545     H
O       0.8836   0.2477   0.2534     O
O       0.8836   0.2477   0.7466     O
C       0.8851   0.2737   0.2204     C
C       0.8851   0.2737   0.7796     C
O        0.889    0.721   0.0758     O
O        0.889    0.721   0.9242     O
H       0.9056   0.3086   0.1486     H
H       0.9056   0.3086   0.8514     H
H       0.9165   0.7159      0.0     H
C       0.9199   0.7313   0.1984     C
C       0.9199   0.7313   0.8016     C
C       0.9203   0.7112    0.159     C
C       0.9203   0.7112    0.841     C
C       0.9313    0.523    0.466     C
C       0.9313    0.523    0.534     C
C       0.9354     0.67      0.0     C
C       0.9438   0.6849     0.07     C
C       0.9438   0.6849     0.93     C
C       0.9485   0.2988   0.1608     C
C       0.9485   0.2988   0.8392     C
C       0.9489   0.2787   0.2003     C
C       0.9489   0.2787   0.7997     C
C       0.9492   0.6363    0.034     C
C       0.9492   0.6363    0.966     C
H       0.9543   0.5136   0.4428     H
H       0.9543   0.5136   0.5572     H
C       0.9651   0.5092      0.5     C
C        0.977   0.5687    0.034     C
C        0.977   0.5687    0.966     C
H        0.982    0.367   0.0922     H
H        0.982    0.367   0.9078     H
H       0.9851   0.7495   0.2448     H
H       0.9851   0.7495   0.7552     H
C       0.9853   0.7363   0.2191     C
C       0.9853   0.7363   0.7809     C
C       0.9861   0.6962   0.1402     C
C       0.9861   0.6962   0.8598     C
H       0.9864   0.5457   0.0572     H
H       0.9864   0.5457   0.9428     H
C       0.9908   0.5349      0.0     C
N        0.991    0.669   0.0968     N
N        0.991    0.669   0.9032     N
