data_I
_chemical_name_common  '/home/zhangsd/repos/MofS-CGCNN/ML/data/TSD/clean_cifs/FAPXIG_clean'
_cell_length_a 15.04180
_cell_length_b 15.04180
_cell_length_c 11.96110
_cell_angle_alpha 90.00000
_cell_angle_beta  90.00000
_cell_angle_gamma 90.00000
_space_group_name_H-M_alt      'P 1'


loop_
_space_group_symop_operation_xyz
  'x, y, z' 

loop_
_atom_site_label
_atom_site_fract_x
_atom_site_fract_y
_atom_site_fract_z
_atom_site_type_symbol
O          0.0   0.0234      0.0     O
O          0.0   0.9766      0.5     O
O       0.0234      0.0     0.75     O
O       0.0395   0.1561   0.1229     O
O       0.0395   0.8439   0.3771     O
V        0.064    0.064    0.875     V
V        0.064    0.936    0.625     V
C       0.1188   0.1612   0.0818     C
C       0.1188   0.8388   0.4182     C
O       0.1239   0.1336   0.7639     O
O       0.1239   0.8664   0.7361     O
O       0.1336   0.1239   0.9861     O
O       0.1336   0.8761   0.5139     O
H       0.1449   0.1766   0.2953     H
H       0.1449   0.8234   0.2047     H
O       0.1561   0.0395   0.6271     O
O       0.1561   0.9605   0.8729     O
C       0.1612   0.1188   0.6682     C
C       0.1612   0.8812   0.8318     C
H       0.1766   0.1449   0.4547     H
H       0.1766   0.8551   0.0453     H
C       0.1876   0.2063   0.1399     C
C       0.1876   0.7937   0.3601     C
C        0.189   0.2062   0.2556     C
C        0.189   0.7938   0.2444     C
C       0.2062    0.189   0.4944     C
C       0.2062    0.811   0.0056     C
C       0.2063   0.1876   0.6101     C
C       0.2063   0.8124   0.8899     C
C       0.2503   0.2561  0.43774     C
C       0.2503   0.7439  0.06226     C
C       0.2505   0.2533   0.6692     C
C       0.2505   0.7467   0.8308     C
H       0.2506   0.2523   0.7469     H
H       0.2506   0.7477   0.7531     H
H       0.2523   0.2506   0.0031     H
H       0.2523   0.7494   0.4969     H
C       0.2533   0.2505   0.0808     C
C       0.2533   0.7495   0.4192     C
C       0.2561   0.2503  0.31226     C
C       0.2561   0.7497  0.18774     C
C       0.2944   0.3218   0.4968     C
C       0.2944   0.6782   0.0032     C
C       0.2945   0.3204   0.6125     C
C       0.2945   0.6796   0.8875     C
C       0.3204   0.2945   0.1375     C
C       0.3204   0.7055   0.3625     C
C       0.3218   0.2944   0.2532     C
C       0.3218   0.7056   0.2468     C
H        0.324   0.3668   0.4587     H
H        0.324   0.6332   0.0413     H
C       0.3398   0.3877   0.6731     C
C       0.3398   0.6123   0.8269     C
O       0.3573   0.4638   0.6277     O
O       0.3573   0.5362   0.8723     O
O       0.3648   0.3749   0.7753     O
O       0.3648   0.6251   0.7247     O
H       0.3668    0.324   0.2913     H
H       0.3668    0.676   0.2087     H
O       0.3749   0.3648   0.9747     O
O       0.3749   0.6352   0.5253     O
C       0.3877   0.3398   0.0769     C
C       0.3877   0.6602   0.4231     C
V        0.444    0.444    0.875     V
V        0.444    0.556    0.625     V
O       0.4638   0.3573   0.1223     O
O       0.4638   0.6427   0.3777     O
O       0.4878      0.5     0.25     O
O          0.5   0.4878      0.5     O
O          0.5   0.5122      0.0     O
O       0.5122      0.5     0.75     O
O       0.5362   0.3573   0.8777     O
O       0.5362   0.6427   0.6223     O
V        0.556    0.444    0.125     V
V        0.556    0.556    0.375     V
C       0.6123   0.3398   0.9231     C
C       0.6123   0.6602   0.5769     C
O       0.6251   0.3648   0.0253     O
O       0.6251   0.6352   0.4747     O
H       0.6332    0.324   0.7087     H
H       0.6332    0.676   0.7913     H
O       0.6352   0.3749   0.2247     O
O       0.6352   0.6251   0.2753     O
O       0.6427   0.4638   0.3723     O
O       0.6427   0.5362   0.1277     O
C       0.6602   0.3877   0.3269     C
C       0.6602   0.6123   0.1731     C
H        0.676   0.3668   0.5413     H
H        0.676   0.6332   0.9587     H
C       0.6782   0.2944   0.7468     C
C       0.6782   0.7056   0.7532     C
C       0.6796   0.2945   0.8625     C
C       0.6796   0.7055   0.6375     C
C       0.7055   0.3204   0.3875     C
C       0.7055   0.6796   0.1125     C
C       0.7056   0.3218   0.5032     C
C       0.7056   0.6782   0.9968     C
C       0.7439   0.2503  0.68774     C
C       0.7439   0.7497  0.81226     C
C       0.7467   0.2505   0.9192     C
C       0.7467   0.7495   0.5808     C
H       0.7477   0.2506   0.9969     H
H       0.7477   0.7494   0.5031     H
H       0.7494   0.2523   0.2531     H
H       0.7494   0.7477   0.2469     H
C       0.7495   0.2533   0.3308     C
C       0.7495   0.7467   0.1692     C
C       0.7497   0.2561  0.56226     C
C       0.7497   0.7439  0.93774     C
C       0.7937   0.1876   0.3899     C
C       0.7937   0.8124   0.1101     C
C       0.7938    0.189   0.5056     C
C       0.7938    0.811   0.9944     C
C        0.811   0.2062   0.7444     C
C        0.811   0.7938   0.7556     C
C       0.8124   0.2063   0.8601     C
C       0.8124   0.7937   0.6399     C
H       0.8234   0.1449   0.5453     H
H       0.8234   0.8551   0.9547     H
C       0.8388   0.1188   0.3318     C
C       0.8388   0.8812   0.1682     C
O       0.8439   0.0395   0.3729     O
O       0.8439   0.9605   0.1271     O
H       0.8551   0.1766   0.7047     H
H       0.8551   0.8234   0.7953     H
O       0.8664   0.1239   0.0139     O
O       0.8664   0.8761   0.4861     O
O       0.8761   0.1336   0.2361     O
O       0.8761   0.8664   0.2639     O
C       0.8812   0.1612   0.9182     C
C       0.8812   0.8388   0.5818     C
V        0.936    0.064    0.125     V
V        0.936    0.936    0.375     V
O       0.9605   0.1561   0.8771     O
O       0.9605   0.8439   0.6229     O
O       0.9766      0.0     0.25     O
