data_I
_chemical_name_common  '/home/zhangsd/repos/MofS-CGCNN/ML/data/TSD/clean_cifs/FAPXOM_clean'
_cell_length_a 15.03930
_cell_length_b 15.03930
_cell_length_c 11.95870
_cell_angle_alpha 90.00000
_cell_angle_beta  90.00000
_cell_angle_gamma 90.00000
_space_group_name_H-M_alt      'P 1'


loop_
_space_group_symop_operation_xyz
  'x, y, z' 

loop_
_atom_site_label
_atom_site_fract_x
_atom_site_fract_y
_atom_site_fract_z
_atom_site_type_symbol
O          0.0   0.0182      0.0     O
O          0.0   0.9818      0.5     O
O       0.0182      0.0     0.75     O
O       0.0418   0.1477   0.1236     O
O       0.0418   0.8523   0.3764     O
V        0.063    0.063    0.875     V
V        0.063    0.937    0.625     V
C       0.1211   0.1577   0.0821     C
C       0.1211   0.8423   0.4179     C
O        0.123    0.134   0.7662     O
O        0.123    0.866   0.7338     O
O        0.134    0.123   0.9838     O
O        0.134    0.877   0.5162     O
H        0.144   0.1752   0.2948     H
H        0.144   0.8248   0.2052     H
O       0.1477   0.0418   0.6264     O
O       0.1477   0.9582   0.8736     O
C       0.1577   0.1211   0.6679     C
C       0.1577   0.8789   0.8321     C
H       0.1752    0.144   0.4552     H
H       0.1752    0.856   0.0448     H
C       0.1885   0.2029   0.1397     C
C       0.1885   0.7971   0.3603     C
C       0.1887   0.2043   0.2552     C
C       0.1887   0.7957   0.2448     C
C       0.2029   0.1885   0.6103     C
C       0.2029   0.8115   0.8897     C
C       0.2043   0.1887   0.4948     C
C       0.2043   0.8113   0.0052     C
H       0.2452   0.2547   0.7468     H
H       0.2452   0.7453   0.7532     H
C       0.2461   0.2548    0.669     C
C       0.2461   0.7452    0.831     C
C       0.2489   0.2551  0.43799     C
C       0.2489   0.7449  0.06201     C
H       0.2547   0.2452   0.0032     H
H       0.2547   0.7548   0.4968     H
C       0.2548   0.2461    0.081     C
C       0.2548   0.7539    0.419     C
C       0.2551   0.2489  0.31201     C
C       0.2551   0.7511  0.18799     C
C       0.2907   0.3212   0.6122     C
C       0.2907   0.6788   0.8878     C
C       0.2921   0.3213   0.4967     C
C       0.2921   0.6787   0.0033     C
C       0.3212   0.2907   0.1378     C
C       0.3212   0.7093   0.3622     C
C       0.3213   0.2921   0.2533     C
C       0.3213   0.7079   0.2467     C
H       0.3222    0.366   0.4585     H
H       0.3222    0.634   0.0415     H
C       0.3346   0.3884   0.6718     C
C       0.3346   0.6116   0.8282     C
O         0.35   0.4662   0.6284     O
O         0.35   0.5338   0.8716     O
O       0.3621    0.377   0.7739     O
O       0.3621    0.623   0.7261     O
H        0.366   0.3222   0.2915     H
H        0.366   0.6778   0.2085     H
O        0.377   0.3621   0.9761     O
O        0.377   0.6379   0.5239     O
C       0.3884   0.3346   0.0782     C
C       0.3884   0.6654   0.4218     C
V        0.443    0.443    0.875     V
V        0.443    0.557    0.625     V
O       0.4662     0.35   0.1216     O
O       0.4662     0.65   0.3784     O
O       0.4901      0.5     0.25     O
O          0.5   0.4901      0.5     O
O          0.5   0.5099      0.0     O
O       0.5099      0.5     0.75     O
O       0.5338     0.35   0.8784     O
O       0.5338     0.65   0.6216     O
V        0.557    0.443    0.125     V
V        0.557    0.557    0.375     V
C       0.6116   0.3346   0.9218     C
C       0.6116   0.6654   0.5782     C
O        0.623   0.3621   0.0239     O
O        0.623   0.6379   0.4761     O
H        0.634   0.3222   0.7085     H
H        0.634   0.6778   0.7915     H
O       0.6379    0.377   0.2261     O
O       0.6379    0.623   0.2739     O
O         0.65   0.4662   0.3716     O
O         0.65   0.5338   0.1284     O
C       0.6654   0.3884   0.3282     C
C       0.6654   0.6116   0.1718     C
H       0.6778    0.366   0.5415     H
H       0.6778    0.634   0.9585     H
C       0.6787   0.2921   0.7467     C
C       0.6787   0.7079   0.7533     C
C       0.6788   0.2907   0.8622     C
C       0.6788   0.7093   0.6378     C
C       0.7079   0.3213   0.5033     C
C       0.7079   0.6787   0.9967     C
C       0.7093   0.3212   0.3878     C
C       0.7093   0.6788   0.1122     C
C       0.7449   0.2489  0.68799     C
C       0.7449   0.7511  0.81201     C
C       0.7452   0.2461    0.919     C
C       0.7452   0.7539    0.581     C
H       0.7453   0.2452   0.9968     H
H       0.7453   0.7548   0.5032     H
C       0.7511   0.2551  0.56201     C
C       0.7511   0.7449  0.93799     C
C       0.7539   0.2548    0.331     C
C       0.7539   0.7452    0.169     C
H       0.7548   0.2547   0.2532     H
H       0.7548   0.7453   0.2468     H
C       0.7957   0.1887   0.5052     C
C       0.7957   0.8113   0.9948     C
C       0.7971   0.1885   0.3897     C
C       0.7971   0.8115   0.1103     C
C       0.8113   0.2043   0.7448     C
C       0.8113   0.7957   0.7552     C
C       0.8115   0.2029   0.8603     C
C       0.8115   0.7971   0.6397     C
H       0.8248    0.144   0.5448     H
H       0.8248    0.856   0.9552     H
C       0.8423   0.1211   0.3321     C
C       0.8423   0.8789   0.1679     C
O       0.8523   0.0418   0.3736     O
O       0.8523   0.9582   0.1264     O
H        0.856   0.1752   0.7052     H
H        0.856   0.8248   0.7948     H
O        0.866    0.123   0.0162     O
O        0.866    0.877   0.4838     O
O        0.877    0.134   0.2338     O
O        0.877    0.866   0.2662     O
C       0.8789   0.1577   0.9179     C
C       0.8789   0.8423   0.5821     C
V        0.937    0.063    0.125     V
V        0.937    0.937    0.375     V
O       0.9582   0.1477   0.8764     O
O       0.9582   0.8523   0.6236     O
O       0.9818      0.0     0.25     O
