data_I
_chemical_name_common  '/home/zhangsd/repos/MofS-CGCNN/ML/data/TSD/clean_cifs/FARHOX_ion_b'
_cell_length_a 11.34010
_cell_length_b 25.09350
_cell_length_c 22.87400
_cell_angle_alpha 90.00000
_cell_angle_beta  96.89500
_cell_angle_gamma 90.00000
_space_group_name_H-M_alt      'P 1'


loop_
_space_group_symop_operation_xyz
  'x, y, z' 

loop_
_atom_site_label
_atom_site_fract_x
_atom_site_fract_y
_atom_site_fract_z
_atom_site_type_symbol
C       0.0016   0.3074   0.8505     C
H       0.0054   0.7634   0.5709     H
O        0.011   0.1508   0.5007     O
C       0.0114   0.3137   0.4594     C
C       0.0116   0.2506    0.874     C
Pb      0.0116  0.58819  0.20497    Pb
C       0.0136   0.2198   0.6049     C
C       0.0207   0.2704     0.42     C
H       0.0211   0.6915   0.5056     H
C        0.024   0.9232   0.4071     C
C       0.0256   0.2618   0.6459     C
C       0.0294   0.1463   0.9118     C
C         0.03   0.8785   0.8253     C
O       0.0306   0.4736   0.7065     O
H       0.0311   0.0132   0.6485     H
C       0.0354   0.9695   0.3705     C
O       0.0386   0.3443   0.7265     O
H       0.0417   0.9185   0.9318     H
S       0.0443  0.07865  0.93447     S
O       0.0459   0.8563   0.7778     O
S       0.0478  0.41571  0.49544     S
H       0.0502   0.0899   0.5867     H
C       0.0503   0.3623   0.4455     C
O       0.0571   0.5894    0.476     O
C       0.0626   0.6606   0.3068     C
C       0.0683    0.839   0.1251     C
C       0.0687   0.2792   0.3683     C
O       0.0689   0.1872   0.3447     O
O       0.0704   0.4634   0.4642     O
O       0.0715   0.9449   0.0756     O
O       0.0728   0.1063   0.1641     O
O       0.0759   0.0653   0.3125     O
C       0.0763   0.7058   0.3496     C
H       0.0765   0.3726   0.6091     H
H       0.0779    0.198   0.5998     H
C       0.0788   0.0282   0.8321     C
C        0.079   0.7847   0.1439     C
C       0.0859   0.2347   0.3268     C
H       0.0918   0.5203   0.6227     H
O       0.0928   0.3351   0.8535     O
C       0.0961   0.7885   0.4276     C
C       0.0969   0.3713   0.3927     C
H       0.0972   0.2682   0.6691     H
O       0.1019   0.6775     0.17     O
C       0.1052   0.3302   0.3538     C
S        0.106  0.84343  0.47829     S
O       0.1085   0.0781   0.9924     O
C       0.1093   0.2349   0.9105     C
C       0.1175   0.9093   0.9238     C
C       0.1188   0.1821   0.9311     C
O       0.1219   0.2447   0.2792     O
H       0.1224   0.4052   0.3838     H
C        0.125   0.8998   0.4321     C
H       0.1268   0.8638   0.1379     H
H       0.1273   0.9884   0.7601     H
C       0.1348   0.0496   0.8862     C
H       0.1348   0.3362   0.3182     H
C       0.1365   0.8868   0.8696     C
C       0.1403   0.4728   0.7254     C
H       0.1463   0.7732   0.1679     H
O       0.1472   0.6293   0.3022     O
C       0.1509   0.9874   0.3648     C
Cs     0.15129  0.87944  0.65042    Cs
C       0.1524   0.3816   0.6009     C
C       0.1579   0.0034   0.7959     C
Pb     0.16105  0.14145  0.26667    Pb
C       0.1673   0.0364   0.3269     C
H       0.1697   0.2592   0.9217     H
C       0.1717   0.4038   0.5478     C
C       0.1732   0.5229   0.6341     C
C       0.1792    0.715   0.3834     C
H       0.1795   0.4764   0.1087     H
H       0.1838   0.1714   0.9572     H
O       0.1867   0.4487     0.77     O
C       0.1932    0.759   0.4243     C
H       0.2016   0.4009   0.0465     H
H       0.2098   0.9319   0.0028     H
H       0.2108   0.5641   0.5627     H
O        0.215   0.8367   0.5175     O
C       0.2184   0.9174   0.9661     C
C       0.2206   0.5015   0.6868     C
O       0.2274   0.5478   0.1824     O
Cs     0.23153  0.53819  0.38639    Cs
C        0.234    0.917   0.4317     C
H       0.2349   0.2664   0.0531     H
H       0.2433   0.3579   0.6785     H
H       0.2433   0.6925   0.3804     H
C       0.2441   0.5482   0.5976     C
C        0.245   0.9631   0.3946     C
C       0.2472   0.8731   0.8577     C
C       0.2528   0.3731   0.6423     C
C        0.255   0.4631   0.1054     C
C       0.2559   0.0482   0.9024     C
H       0.2567   0.1925   0.1196     H
H       0.2567   0.8579   0.8215     H
H       0.2651   0.7664   0.4469     H
C        0.266    0.417   0.0683     C
Cs     0.26847  0.03819  0.11361    Cs
O       0.2726   0.0478   0.3176     O
C       0.2794   0.0015   0.8132     C
C       0.2816   0.4174   0.5339     C
O        0.285   0.3367   0.9825     O
H       0.2892   0.0641   0.9373     H
H       0.2902   0.4319   0.4972     H
H       0.2984   0.9009   0.4535     H
C       0.3068    0.259   0.0757     C
O       0.3133   0.9487     0.73     O
H       0.3162   0.6714   0.5428     H
H       0.3205   0.9764   0.3913     H
C       0.3208    0.215   0.1166     C
C       0.3268   0.0229   0.8659     C
C       0.3283   0.9038   0.9522     C
H       0.3303   0.7592   0.5783     H
C       0.3327   0.5364   0.1731     C
Pb     0.33895  0.64145  0.23333    Pb
C       0.3421   0.5034   0.7041     C
C       0.3476   0.8816   0.8991     C
Cs     0.34871  0.37944  0.84958    Cs
C       0.3491   0.4874   0.1352     C
O       0.3528   0.1293   0.1978     O
H       0.3537   0.2732   0.3321     H
C       0.3597   0.9728   0.7746     C
C       0.3635   0.3868   0.6304     C
C       0.3652   0.5496   0.6138     C
H       0.3652   0.8362   0.1818     H
H       0.3727   0.4884   0.7399     H
H       0.3732   0.3638   0.3621     H
C        0.375   0.3998   0.0679     C
H       0.3776   0.9052   0.1162     H
O       0.3781   0.7447   0.2208     O
C       0.3812   0.6821   0.5689     C
C       0.3825   0.4093   0.5762     C
C       0.3907   0.7349   0.5895     C
O       0.3915   0.5781   0.5076     O
S        0.394  0.34343  0.02171     S
C       0.3948   0.8302   0.1462     C
O       0.3981   0.1775     0.33     O
H       0.4028   0.7682   0.8309     H
C       0.4031   0.8713   0.1073     C
C       0.4039   0.2885   0.0724     C
O       0.4072   0.8351   0.6465     O
H       0.4082   0.0203   0.8773     H
C       0.4141   0.7347   0.1732     C
C        0.421   0.2847   0.3561     C
C       0.4212   0.5282   0.6679     C
H       0.4221    0.698   0.9002     H
H       0.4235   0.8726   0.8909     H
C       0.4237   0.2058   0.1504     C
O       0.4241   0.5653   0.1875     O
O       0.4272   0.6063   0.3359     O
O       0.4285   0.4449   0.4244     O
O       0.4296   0.9634   0.0358     O
O       0.4311   0.6872   0.1553     O
C       0.4313   0.7792   0.1317     C
C       0.4317    0.339   0.3749     C
C       0.4374   0.1606   0.1932     C
O       0.4429   0.0894    0.024     O
C       0.4497   0.8623   0.0545     C
H       0.4498   0.5899   0.9133     H
S       0.4522  0.91571  0.00456     S
O       0.4541   0.3563   0.7222     O
S       0.4557  0.57865  0.56553     S
H       0.4583   0.4185   0.5682     H
O       0.4614   0.8443   0.7735     O
C       0.4646   0.4695   0.1295     C
H       0.4689   0.5132   0.8515     H
O       0.4694   0.9736   0.7935     O
C         0.47   0.3785   0.6747     C
C       0.4706   0.6463   0.5882     C
C       0.4744   0.7618   0.8541     C
C        0.476   0.4232   0.0929     C
H       0.4789   0.1915   0.9944     H
C       0.4793   0.7704     0.08     C
C       0.4864   0.7198   0.8951     C
Pb      0.4884  0.08819  0.29503    Pb
C       0.4884   0.7506    0.626     C
C       0.4886   0.8137   0.0406     C
O        0.489   0.6508   0.9993     O
H       0.4946   0.2634   0.9291     H
C       0.4984   0.8074   0.6495     C
C       0.5016   0.1926   0.3505     C
H       0.5054   0.7366   0.0709     H
O        0.511   0.3492   0.0007     O
C       0.5114   0.1863   0.9594     C
C       0.5116   0.2494    0.374     C
Pb      0.5116  0.91181  0.70497    Pb
C       0.5136   0.2802   0.1049     C
C       0.5207   0.2296     0.92     C
H       0.5211   0.8085   0.0056     H
C        0.524   0.5768   0.9071     C
C       0.5256   0.2382   0.1459     C
C       0.5294   0.3537   0.4118     C
C         0.53   0.6215   0.3253     C
O       0.5306   0.0264   0.2065     O
H       0.5311   0.4868   0.1485     H
C       0.5354   0.5305   0.8705     C
O       0.5386   0.1557   0.2265     O
H       0.5417   0.5815   0.4318     H
S       0.5443  0.42135  0.43447     S
O       0.5459   0.6437   0.2778     O
S       0.5478  0.08429  0.99544     S
H       0.5502   0.4101   0.0867     H
C       0.5503   0.1377   0.9455     C
O       0.5571   0.9106    0.976     O
C       0.5626   0.8394   0.8068     C
C       0.5683    0.661   0.6251     C
C       0.5687   0.2208   0.8683     C
O       0.5689   0.3128   0.8447     O
O       0.5704   0.0366   0.9642     O
O       0.5715   0.5551   0.5756     O
O       0.5728   0.3937   0.6641     O
O       0.5759   0.4347   0.8125     O
C       0.5763   0.7942   0.8496     C
H       0.5765   0.1274   0.1091     H
H       0.5779    0.302   0.0998     H
C       0.5788   0.4718   0.3321     C
C        0.579   0.7153   0.6439     C
C       0.5859   0.2653   0.8268     C
H       0.5918   0.9797   0.1227     H
O       0.5928   0.1649   0.3535     O
C       0.5961   0.7115   0.9276     C
C       0.5969   0.1287   0.8927     C
H       0.5972   0.2318   0.1691     H
O       0.6019   0.8225     0.67     O
C       0.6052   0.1698   0.8538     C
S        0.606  0.65657  0.97829     S
O       0.6085   0.4219   0.4924     O
C       0.6093   0.2651   0.4105     C
C       0.6175   0.5907   0.4238     C
C       0.6188   0.3179   0.4311     C
O       0.6219   0.2553   0.7792     O
H       0.6224   0.0948   0.8838     H
C        0.625   0.6002   0.9321     C
H       0.6268   0.6362   0.6379     H
H       0.6273   0.5116   0.2601     H
H       0.6348   0.1638   0.8182     H
C       0.6348   0.4504   0.3862     C
C       0.6365   0.6132   0.3696     C
C       0.6403   0.0272   0.2254     C
H       0.6463   0.7268   0.6679     H
O       0.6472   0.8707   0.8022     O
C       0.6509   0.5126   0.8648     C
Cs     0.65129  0.62056  0.15042    Cs
C       0.6524   0.1184   0.1009     C
C       0.6579   0.4966   0.2959     C
Pb     0.66105  0.35855  0.76667    Pb
C       0.6673   0.4636   0.8269     C
H       0.6697   0.2408   0.4217     H
C       0.6717   0.0962   0.0478     C
C       0.6732   0.9771   0.1341     C
C       0.6792    0.785   0.8834     C
H       0.6795   0.0236   0.6087     H
H       0.6838   0.3286   0.4572     H
O       0.6867   0.0513     0.27     O
C       0.6932    0.741   0.9243     C
H       0.7016   0.0991   0.5465     H
H       0.7098   0.5681   0.5028     H
H       0.7108   0.9359   0.0627     H
O        0.715   0.6633   0.0175     O
C       0.7184   0.5826   0.4661     C
C       0.7206   0.9985   0.1868     C
O       0.7274   0.9522   0.6824     O
Cs     0.73153  0.96181  0.88639    Cs
C        0.734    0.583   0.9317     C
H       0.7349   0.2336   0.5531     H
H       0.7433   0.1421   0.1785     H
H       0.7433   0.8075   0.8804     H
C       0.7441   0.9518   0.0976     C
C        0.745   0.5369   0.8946     C
C       0.7472   0.6269   0.3577     C
C       0.7528   0.1269   0.1423     C
C        0.755   0.0369   0.6054     C
C       0.7559   0.4518   0.4024     C
H       0.7567   0.3075   0.6196     H
H       0.7567   0.6421   0.3215     H
H       0.7651   0.7336   0.9469     H
C        0.766    0.083   0.5683     C
Cs     0.76847  0.46181  0.61361    Cs
O       0.7726   0.4522   0.8176     O
C       0.7794   0.4985   0.3132     C
C       0.7816   0.0826   0.0339     C
O        0.785   0.1633   0.4825     O
H       0.7892   0.4359   0.4373     H
H       0.7902   0.0681   0.9972     H
H       0.7984   0.5991   0.9535     H
C       0.8068    0.241   0.5757     C
O       0.8133   0.5513     0.23     O
H       0.8162   0.8286   0.0428     H
H       0.8205   0.5236   0.8913     H
C       0.8208    0.285   0.6166     C
C       0.8268   0.4771   0.3659     C
C       0.8283   0.5962   0.4522     C
H       0.8303   0.7408   0.0783     H
C       0.8327   0.9636   0.6731     C
Pb     0.83895  0.85855  0.73333    Pb
C       0.8421   0.9966   0.2041     C
C       0.8476   0.6184   0.3991     C
Cs     0.84871  0.12056  0.34958    Cs
C       0.8491   0.0126   0.6352     C
O       0.8528   0.3707   0.6978     O
H       0.8537   0.2268   0.8321     H
C       0.8597   0.5272   0.2746     C
C       0.8635   0.1132   0.1304     C
H       0.8652   0.6638   0.6818     H
C       0.8652   0.9504   0.1138     C
H       0.8727   0.0116   0.2399     H
H       0.8732   0.1362   0.8621     H
C        0.875   0.1002   0.5679     C
H       0.8776   0.5948   0.6162     H
O       0.8781   0.7553   0.7208     O
C       0.8812   0.8179   0.0689     C
C       0.8825   0.0907   0.0762     C
C       0.8907   0.7651   0.0895     C
O       0.8915   0.9219   0.0076     O
S        0.894  0.15657  0.52171     S
C       0.8948   0.6698   0.6462     C
O       0.8981   0.3225     0.83     O
H       0.9028   0.7318   0.3309     H
C       0.9031   0.6287   0.6073     C
C       0.9039   0.2115   0.5724     C
O       0.9072   0.6649   0.1465     O
H       0.9082   0.4797   0.3773     H
C       0.9141   0.7653   0.6732     C
C        0.921   0.2153   0.8561     C
C       0.9212   0.9718   0.1679     C
H       0.9221    0.802   0.4002     H
H       0.9235   0.6274   0.3909     H
C       0.9237   0.2942   0.6504     C
O       0.9241   0.9347   0.6875     O
O       0.9272   0.8937   0.8359     O
O       0.9285   0.0551   0.9244     O
O       0.9296   0.5366   0.5358     O
O       0.9311   0.8128   0.6553     O
C       0.9313   0.7208   0.6317     C
C       0.9317    0.161   0.8749     C
C       0.9374   0.3394   0.6932     C
C       0.9497   0.6377   0.5545     C
H       0.9498   0.9101   0.4133     H
S       0.9522  0.58429  0.50456     S
O       0.9541   0.1437   0.2222     O
S       0.9557  0.92135  0.06553     S
H       0.9583   0.0815   0.0682     H
O       0.9614   0.6557   0.2735     O
C       0.9646   0.0305   0.6295     C
H       0.9689   0.9868   0.3515     H
O       0.9694   0.5264   0.2935     O
C         0.97   0.1215   0.1747     C
C       0.9706   0.8537   0.0882     C
C       0.9744   0.7382   0.3541     C
C        0.976   0.0768   0.5929     C
H       0.9789   0.3085   0.4944     H
C       0.9793   0.7296     0.58     C
C       0.9864   0.7802   0.3951     C
Pb      0.9884  0.41181  0.79503    Pb
C       0.9884   0.7494    0.126     C
C       0.9886   0.6863   0.5406     C
O        0.989   0.8492   0.4993     O
H       0.9946   0.2366   0.4291     H
C       0.9984   0.6926   0.1495     C
