data_I
_chemical_name_common  '/home/zhangsd/repos/MofS-CGCNN/ML/data/TSD/clean_cifs/FATKIV_clean'
_cell_length_a 20.34500
_cell_length_b 30.59170
_cell_length_c 30.59170
_cell_angle_alpha 64.76800
_cell_angle_beta  77.19210
_cell_angle_gamma 102.80800
_space_group_name_H-M_alt      'P 1'


loop_
_space_group_symop_operation_xyz
  'x, y, z' 

loop_
_atom_site_label
_atom_site_fract_x
_atom_site_fract_y
_atom_site_fract_z
_atom_site_type_symbol
H       0.0003   0.9099   0.3709     H
C       0.0032   0.5564   0.3092     C
H       0.0054    0.243   0.4833     H
H       0.0075    0.629   0.4616     H
H       0.0077   0.4814   0.6719     H
H       0.0099   0.6678   0.8858     H
O      0.01112  0.41566   0.3712     O
H       0.0112   0.5556   0.1734     H
H       0.0125   0.8622   0.6164     H
H       0.0133   0.2854   0.2936     H
H       0.0143   0.3514   0.0242     H
H       0.0145   0.5711   0.3908     H
H       0.0148   0.9839   0.2748     H
H        0.016   0.1095   0.3061     H
C       0.0163   0.5744   0.2513     C
C       0.0175   0.3194   0.0504     C
C       0.0189   0.2725   0.3278     C
C       0.0204   0.0705   0.6539     C
H       0.0205   0.4232   0.5399     H
H       0.0211   0.3392    0.327     H
H       0.0231   0.6116   0.2327     H
H       0.0268   0.4031   0.8309     H
C       0.0301    0.881   0.6334     C
H       0.0309   0.7413   0.9839     H
H       0.0317   0.3069   0.5682     H
C       0.0322   0.9693   0.3037     C
C       0.0326   0.3279   0.0958     C
C       0.0336   0.1236   0.3268     C
C       0.0339   0.4403   0.8117     C
C       0.0351   0.7651   0.4882     C
C      0.03638  0.39868  0.53134     C
O      0.03717  0.68297  0.53756     O
H       0.0373   0.2961    0.121     H
H       0.0385   0.0242   0.6244     H
H       0.0394   0.4368   0.6762     H
H       0.0417    0.525   0.3933     H
H       0.0428   0.4471   0.8974     H
H       0.0429   0.4474   0.2806     H
H       0.0442   0.8398   0.4465     H
H       0.0451   0.9554   0.5782     H
H       0.0455    0.757    0.906     H
H       0.0458   0.3642   0.6024     H
C       0.0463   0.4564   0.7558     C
H       0.0467   0.3033   0.3706     H
H       0.0483   0.7618   0.5697     H
H       0.0485    0.094    0.663     H
C       0.0498   0.3164   0.3342     C
C       0.0501   0.7244   0.9295     C
N      0.05038  0.42047  0.44363     N
H        0.052   0.2531   0.3288     H
H       0.0536   0.4936   0.7366     H
H       0.0547   0.9971   0.3102     H
C        0.055   0.7637   0.6292     C
C      0.05511  0.56312  0.37529     C
Mn     0.05544  0.62196  0.55557    Mn
H       0.0558   0.9203   0.2856     H
H       0.0576   0.6927   0.9971     H
H       0.0582   0.3127   0.0332     H
H       0.0598   0.1026   0.3445     H
H       0.0602   0.8642   0.6511     H
H       0.0604   0.1998   0.2707     H
H       0.0612   0.5704   0.2359     H
C       0.0625   0.8139   0.4461     C
C       0.0629    0.727   0.9693     C
C      0.06311  0.72686  0.49193     C
C      0.06782  0.58372  0.31696     C
C       0.0679   0.0504   0.6302     C
H       0.0681   0.2233    0.616     H
C       0.0732  0.44844  0.35724     C
C       0.0738   0.3748   0.5662     C
C       0.0771   0.7772   0.5836     C
H       0.0772   0.2881   0.6364     H
H       0.0772   0.6214   0.2995     H
C       0.0775   0.9379   0.5916     C
C       0.0775   0.9461   0.2946     C
H        0.078   0.3776   0.1503     H
C      0.07982  0.42696   0.4743     C
C       0.0799   0.3291   0.5625     C
O      0.08378  0.56414   0.5615     O
H       0.0861   0.6123   0.0652     H
C       0.0863   0.1797   0.2902     C
H       0.0897   0.4664   0.9554     H
C         0.09   0.4504   0.8764     C
H       0.0904   0.7192   0.9099     H
H       0.0905   0.9284   0.3252     H
H       0.0909   0.4518    0.741     H
H       0.0914   0.0332   0.6541     H
C       0.0914   0.4699   0.2683     C
H       0.0929   0.9819   0.3946     H
C       0.0934   0.4699   0.8203     C
H       0.0935   0.4156   0.8905     H
H       0.0948   0.4081   0.0563     H
H       0.0951    0.506   0.8057     H
N      0.09882  0.45412  0.39136     N
H       0.0989   0.9549   0.6089     H
H       0.0992   0.1943   0.3117     H
C       0.1021   0.3757   0.0776     C
H       0.1043   0.1142   0.5536     H
H       0.1062   0.7535   0.6862     H
C       0.1089   0.2975   0.6017     C
H        0.111   0.5785   0.3007     H
H        0.111   0.6235   0.9819     H
H        0.111   0.8265   0.7435     H
H       0.1123   0.3407   0.5273     H
C       0.1148   0.7708   0.6501     C
H       0.1155   0.4856   0.1928     H
C       0.1164   0.2491   0.6046     C
H       0.1172   0.9306   0.5297     H
H       0.1176   0.5029   0.5278     H
H       0.1184    0.565   0.6322     H
C       0.1187   0.8245   0.4024     C
C      0.11872  0.73814  0.44738     C
C      0.11936  0.47906  0.30218     C
C      0.12019  0.58669  0.38272     C
C       0.1206    0.378   0.1267     C
H       0.1214   0.7303   0.0233     H
H       0.1224   0.3999   0.5556     H
N      0.12552  0.65262  0.48576     N
O      0.12693  0.62932  0.38563     O
C       0.1284   0.0958   0.5763     C
C      0.12885   0.3482  0.29805     C
H         0.13   0.3218   0.2484     H
C       0.1314   0.7593   0.9461     C
C       0.1316   0.6136    0.047     C
H        0.132   0.3472   0.1466     H
C      0.13264  0.57416  0.51944     C
C       0.1327   0.8537   0.7509     C
C       0.1342   0.4935   0.2154     C
N       0.1354  0.63853  0.59323     N
H       0.1355   0.7941   0.9203     H
C       0.1362   0.9482    0.547     C
H       0.1382   0.8578   0.3721     H
H       0.1394   0.4705   0.8002     H
C       0.1396   0.4705   0.9379     C
H       0.1422   0.9913   0.2165     H
H       0.1423   0.1691    0.234     H
C       0.1433    0.598   0.6271     C
H       0.1438   0.3738   0.0556     H
C       0.1438   0.9983   0.3825     C
H        0.144   0.4362   0.9549     H
C       0.1442   0.9904   0.2486     C
H       0.1447   0.0233   0.2464     H
C      0.14484  0.78671  0.40379     C
O      0.14524  0.45879  0.45897     O
H       0.1455   0.2565     0.57     H
C       0.1455   0.6192   0.9983     C
C       0.1455   0.8157   0.5513     C
C      0.14834  0.69945  0.44403     C
H       0.1484   0.4931   0.5897     H
C       0.1491   0.4856    0.881     C
H       0.1503   0.5214   0.8622     H
H       0.1509   0.7922   0.9913     H
H       0.1511   0.0563   0.5356     H
H       0.1513   0.0652   0.3225     H
H       0.1514   0.8345   0.5158     H
H       0.1535   0.3752   0.4348     H
C       0.1538    0.761   0.9904     C
C       0.1544   0.1883    0.252     C
H       0.1549   0.7098   0.5679     H
H       0.1552   0.8393   0.7767     H
H       0.1571   0.3203   0.5951     H
H       0.1581   0.9855   0.5228     H
N      0.15813  0.61928  0.47729     N
H       0.1583    0.121   0.5829     H
C       0.1588   0.3446   0.2562     C
C      0.15883   0.5323  0.52081     C
H       0.1605   0.9412   0.4385     H
H       0.1606   0.3834   0.3361     H
H       0.1621   0.7464   0.9284     H
C       0.1628   0.6804   0.5907     C
H       0.1632   0.9154   0.6797     H
H       0.1681    0.259   0.1928     H
N      0.16988  0.56692  0.38368     N
H         0.17   0.4578   0.0904     H
H       0.1726   0.4917   0.9855     H
H       0.1727   0.9353   0.5587     H
H       0.1729   0.6065   0.1029     H
C        0.176   0.3804   0.3061     C
C       0.1786    0.047   0.3394     C
C       0.1797   0.0776   0.5467     C
H       0.1822    0.794    0.374     H
C       0.1825   0.8038   0.6135     C
C       0.1828   0.6096   0.0697     C
H       0.1846   0.1734    0.271     H
C       0.1846   0.9739   0.4076     C
C       0.1858   0.6008   0.6554     C
H       0.1866   0.5397   0.9306     H
C       0.1871   0.4288   0.1055     C
C        0.188   0.5048   0.9482     C
H       0.1881   0.9846   0.2536     H
C       0.1886   0.8992   0.7025     C
C      0.18889  0.51459  0.28362     C
Mn     0.19025   0.4979  0.38363    Mn
C       0.1904   0.5143   0.5569     C
H       0.1918   0.5702   0.6782     H
O       0.1936   0.7111   0.4009     O
H       0.1944   0.5452   0.4861     H
N      0.19493   0.8283  0.56051     N
H       0.1954   0.4284   0.1363     H
H        0.196   0.4847   0.8642     H
C       0.1979   0.2442   0.2122     C
H       0.1994   0.0556   0.5706     H
H       0.2011   0.5819   0.7469     H
H       0.2035   0.7618   0.9846     H
C       0.2036   0.5284   0.1969     C
C        0.204   0.3865   0.4173     C
C       0.2044   0.6865   0.6196     C
H       0.2044   0.7137   0.8398     H
H        0.207   0.4891     0.55     H
H       0.2076   0.3138   0.4397     H
H       0.2098   0.2634   0.2302     H
C       0.2107   0.6185   0.9739     C
H       0.2109   0.9245   0.7119     H
H       0.2152   0.4938   0.6528     H
Mn     0.21793  0.65635  0.39175    Mn
H       0.2193   0.6203   0.9412     H
C      0.21935  0.64625   0.6518     C
O      0.22109  0.52697   0.3125     O
H       0.2217     0.81   0.6248     H
H       0.2228   0.7195   0.6166     H
H       0.2283   0.1503   0.4721     H
H       0.2284    0.868   0.6593     H
C       0.2296   0.3729   0.2251     C
H         0.23   0.4294   0.6262     H
N      0.23024  0.59738  0.38636     N
C      0.23084  0.54024  0.22962     C
H       0.2327   0.5443   0.1615     H
H        0.233   0.5647   0.5716     H
C       0.2351   0.3499   0.4209     C
H       0.2374    0.506   0.9353     H
H       0.2376   0.7263    0.757     H
C       0.2417   0.5343   0.5712     C
H        0.243     0.45   0.0391     H
N      0.24456  0.43949  0.38881     N
C       0.2465   0.4093   0.2711     C
C       0.2473   0.1267   0.4953     C
H       0.2478   0.4049   0.9154     H
C      0.24852  0.60977  0.04491     C
C       0.2486     0.74   0.8139     C
C       0.2492   0.8916   0.6709     C
H       0.2494   0.3678   0.1972     H
C       0.2525   0.0697   0.3207     C
C       0.2527   0.4431   0.0712     C
C       0.2536   0.6003   0.7275     C
H       0.2545   0.3459   0.6873     H
H       0.2558   0.2327   0.1557     H
H       0.2566   0.6739   0.6967     H
C       0.2574   0.5047    0.622     C
C      0.25859  0.99492  0.38965     C
H       0.2588   0.4171   0.7039     H
O      0.25885  0.92155   0.4604     O
H       0.2604   0.0904   0.4518     H
H       0.2619   0.4103   0.0828     H
C      0.26367  0.61543  0.99492     C
C       0.2666   0.6506   0.6836     C
C       0.2676   0.2513   0.1743     C
H       0.2686   0.4413    0.494     H
C         0.27   0.7467   0.7651     C
N      0.27137  0.40677  0.23176     N
H       0.2721    0.579   0.7146     H
C       0.2736   0.4533   0.6243     C
H       0.2752   0.8751   0.6931     H
H       0.2758   0.1029   0.2906     H
H       0.2772   0.4321   0.2777     H
H       0.2775   0.9555   0.6001     H
H       0.2776   0.5655   0.2163     H
H       0.2786   0.1466   0.5062     H
C        0.279   0.3954   0.8537     C
H       0.2804   0.7701   0.8578     H
O      0.28075   0.5396  0.38195     O
H       0.2821   0.0391   0.5109     H
H       0.2844   0.3238    0.113     H
H       0.2845     0.43   0.8265     H
C      0.28459  0.58126  0.38419     C
H       0.2864   0.3636   0.9245     H
H       0.2865   0.6685   0.7618     H
H       0.2878   0.5482   0.5422     H
H       0.2879   0.7818   0.4345     H
H       0.2885    0.337    0.757     H
H       0.2887   0.3489   0.5153     H
C       0.2894   0.3983   0.8992     C
H       0.2896   0.2748   0.7413     H
C       0.2913   0.6071   0.7637     C
H       0.2922   0.3911   0.5638     H
C       0.2926   0.1055   0.4657     C
C      0.29343  0.04491  0.34532     C
C       0.2942   0.7731   0.8245     C
C       0.2953   0.4237   0.6721     C
O        0.296   0.6063   0.0688     O
C      0.29667  0.96545  0.41874     C
H       0.2971   0.2359   0.1937     H
H       0.2996   0.5279   0.6224     H
C       0.2999   0.6392   0.7772     C
C        0.301    0.941   0.6252     C
C       0.3019   0.3698   0.6806     C
C       0.3032   0.4487    0.367     C
O      0.30588  0.83947  0.47303     O
H       0.3069   0.2936    0.421     H
Mn     0.30765  0.88153   0.5021    Mn
H       0.3083   0.1928   0.3216     H
C       0.3094  0.76986  0.45976     C
O       0.3103   0.6751   0.3937     O
H       0.3116   0.7058   0.4557     H
C       0.3124   0.3092   0.1344     C
H       0.3133   0.4644   0.5919     H
O      0.31355  0.91776  0.54121     O
C       0.3158   0.3708   0.3929     C
H       0.3159    0.384   0.8393     H
C       0.3168    0.453   0.4952     C
H       0.3169   0.6497   0.8345     H
H       0.3181   0.6662   0.6608     H
H       0.3184   0.9666   0.6358     H
H       0.3191   0.4772   0.5083     H
H       0.3195   0.5139   0.0313     H
C      0.32036  0.47919  0.05311     C
H       0.3204   0.3281   0.1533     H
H        0.322   0.4444   0.9555     H
H       0.3221   0.3061   0.5844     H
H       0.3235   0.2806    0.272     H
C       0.3239   0.0712   0.4857     C
C       0.3248   0.7253   0.4716     C
C       0.3257   0.3461   0.7244     C
C       0.3257  0.79821  0.48541     C
C       0.3298    0.633   0.8157     C
C       0.3309   0.4084   0.5295     C
H       0.3311   0.2707   0.5295     H
C      0.33122  0.61581  0.96545     C
H       0.3317   0.1363   0.4353     H
H       0.3328   0.4842   0.3503     H
C       0.3359   0.3037    0.727     C
C      0.33625  0.78121  0.72686     C
C       0.3365   0.3666   0.5144     C
H       0.3371   0.3756   0.6486     H
O       0.3373  0.61805  0.92155     O
C       0.3393   0.4164   0.3608     C
H       0.3414   0.2856   0.7941     H
H       0.3421   0.4464   0.6678     H
C        0.344   0.5791   0.7708     C
H       0.3447   0.0828   0.5069     H
C       0.3467   0.3278   0.3997     C
C      0.34714  0.90126  0.57304     C
C      0.34792  0.48056   0.0936     C
H       0.3481    0.327   0.3338     H
C       0.3496   0.2154   0.2911     C
H       0.3508   0.0313   0.4548     H
C      0.35176  0.61035  0.38457     C
H       0.3518   0.3976   0.9666     H
H       0.3527   0.5603   0.7535     H
H       0.3531   0.4703   0.4603     H
O       0.3542  0.77947  0.68297     O
H       0.3546   0.4722   0.0307     H
O      0.35472   0.4385  0.12564     O
N       0.3553  0.84548  0.54588     N
C       0.3576   0.4375   0.8916     C
C      0.35813   0.8095  0.78671     C
H       0.3587   0.2165   0.7922     H
C       0.3593   0.7089   0.5065     C
C       0.3597   0.2683   0.2618     C
C       0.3597  0.78124  0.52094     C
C         0.36   0.4338    0.941     C
C       0.3604   0.3268   0.5496     C
H       0.3604   0.4727    0.868     H
H       0.3609   0.1928   0.5482     H
C      0.36125  0.65468  0.39023     C
C       0.3623  0.93002  0.60132     C
N      0.36458  0.52271  0.09657     N
O       0.3648   0.0688   0.3249     O
H       0.3649   0.3102   0.6927     H
N      0.36663  0.61119   0.8283     N
N      0.36714  0.98374  0.40262     N
N      0.37009   0.8641  0.57953     N
H       0.3701   0.6784   0.5144     H
H       0.3711   0.3836   0.4786     H
H       0.3712   0.3709   0.7192     H
C       0.3721   0.2946   0.7593     C
C      0.37347  0.05311   0.4677     C
C      0.37524  0.80568  0.55156     C
H       0.3763    0.234   0.5969     H
C       0.3765   0.2902   0.5301     C
H       0.3767   0.2995   0.0791     H
H       0.3767   0.4218   0.5336     H
H       0.3784   0.2484   0.4298     H
C       0.3785   0.7382   0.5301     C
H       0.3785   0.9094    0.629     H
C       0.3787   0.5827   0.8038     C
C      0.38058  0.81448  0.73814     C
H       0.3808   0.3288   0.4181     H
H        0.382   0.4303   0.3315     H
O      0.38232   0.3712  0.21314     O
N       0.3834  0.61364  0.98374     N
C        0.384   0.3342   0.3494     C
C      0.38478  0.31696  0.09932     C
H       0.3853   0.0307   0.4971     H
H       0.3882    0.832    0.794     H
N      0.38872  0.51424  0.13838     N
Mn     0.38899  0.44443  0.17753    Mn
Mn     0.39032  0.60825   0.0481    Mn
H       0.3911   0.2464   0.7303     H
C       0.3928   0.2486    0.761     C
H       0.3942   0.1615   0.2942     H
O      0.39579  0.54103  0.91776     O
N      0.39704   0.9506  0.43308     N
H       0.3974    0.113   0.5632     H
H       0.4001   0.4318   0.8751     H
C       0.4005   0.1969   0.2747     C
H        0.401   0.5615   0.3797     H
H       0.4027   0.9631   0.5768     H
H       0.4043   0.3445   0.5529     H
H       0.4045    0.728   0.5526     H
O      0.40454  0.78686  0.58434     O
H       0.4053   0.3908   0.0381     H
O       0.4055   0.5991    0.112     O
C       0.4064    0.252   0.5597     C
C      0.40763  0.55597  0.14348     C
C       0.4078   0.5924   0.3815     C
C       0.4101   0.2122   0.5436     C
H       0.4109   0.3117    0.494     H
H       0.4115   0.1557   0.6116     H
H       0.4117   0.3007   0.1208     H
H       0.4117   0.5652     0.81     H
C        0.415   0.2562   0.3992     C
H       0.4157   0.3252   0.7464     H
H       0.4173   0.3706   0.3261     H
C      0.42154  0.30218  0.21876     C
O      0.42527  0.46244  0.22053     O
Mn     0.42612  0.61637  0.88153    Mn
C       0.4268   0.6793   0.3904     C
C       0.4269  0.29805  0.35375     C
C       0.4304  0.37529  0.06159     C
C      0.43044  0.35724  0.19432     C
C      0.43228  0.46866  0.93002     C
Mn     0.43348  0.82247  0.62196    Mn
H       0.4336   0.7094   0.3935     H
C       0.4339  0.55262  0.18552     C
H        0.435   0.3933   0.0817     H
Mn     0.43842   0.0481  0.34365    Mn
H       0.4396   0.4601   0.9631     H
H         0.44   0.2302   0.5064     H
C      0.44152   0.0936  0.42584     C
H       0.4417   0.2536   0.7618     H
C       0.4419   0.1743   0.5744     C
H       0.4434   0.0381   0.5711     H
H       0.4438    0.626    0.168     H
C      0.44496  0.50807  0.21879     C
H       0.4451   0.7223   0.7098     H
C      0.44588   0.5257  0.90126     C
N      0.44644  0.61632   0.9506     N
H       0.4466   0.1972    0.435     H
C       0.4468   0.1344   0.5564     C
C      0.44889  0.85652  0.69945     C
C      0.45137  0.59621   0.1905     C
C       0.4547   0.2251    0.402     C
H       0.4556    0.271   0.5556     H
H       0.4558   0.0791   0.6214     H
C      0.46046  0.22962  0.23014     C
N      0.46115  0.09657  0.38072     N
O      0.46641   0.6875  0.83947     O
C       0.4665  0.96941  0.41331     C
H       0.4675   0.8792   0.4215     H
H       0.4691   0.4616   0.9094     H
C      0.47251  0.28362  0.20179     C
N       0.4729  0.86162  0.65262     N
H       0.4737   0.1533   0.5186     H
C       0.4737   0.6175   0.3808     C
H       0.4738   0.3225   0.6123     H
C       0.4767   0.5118   0.2533     C
C       0.4789   0.5976   0.2269     C
O      0.48036  0.12564  0.43586     O
C        0.482   0.6606   0.3864     C
C       0.4821   0.3061   0.3135     C
C       0.4824   0.7289   0.6804     C
O       0.4825    0.888   0.7111     O
H       0.4833   0.9183    0.475     H
C       0.4841  0.09932  0.58372     C
O      0.48744  0.61437  0.01495     O
H       0.4875   0.3946   0.6235     H
H       0.4887   0.4833   0.2737     H
H       0.4897   0.6279   0.2299     H
N      0.49018  0.39136  0.15452     N
H       0.4907   0.4465   0.7137     H
H       0.4908   0.1937   0.5704     H
C       0.4914   0.5539     0.26     C
C      0.49199  0.06159  0.56312     C
H       0.4939   0.2163   0.2182     H
N      0.49401  0.44363   0.1359     N
H       0.4967   0.3361   0.2805     H
N      0.49687  0.76824  0.63853     N
C      0.49709  0.61728  0.96941     C
O      0.49761  0.98505  0.62932     O
O      0.50239  0.01495  0.37068     O
C      0.50291  0.38272  0.03059     C
N      0.50313  0.23176  0.36147     N
H       0.5033   0.6639   0.7195     H
N      0.50599  0.55637   0.8641     N
H       0.5061   0.7837   0.7818     H
C      0.50801  0.93841  0.43688     C
C       0.5086   0.4461     0.74     C
H       0.5092   0.8063   0.4296     H
H       0.5093   0.5535   0.2863     H
N      0.50982  0.60864  0.84548     N
H       0.5103   0.3721   0.7701     H
H       0.5113   0.5167   0.7263     H
H       0.5125   0.6054   0.3765     H
O      0.51256  0.38563  0.98505     O
C       0.5159  0.90068  0.41628     C
H       0.5167   0.0817    0.525     H
O       0.5175    0.112   0.2889     O
C       0.5176   0.2711   0.3196     C
C       0.5179   0.6939   0.6865     C
C        0.518   0.3394   0.6136     C
O      0.51964  0.87436  0.56414     O
C       0.5211   0.4024   0.7731     C
C       0.5233   0.4882   0.7467     C
H       0.5262   0.6775   0.3877     H
C       0.5263   0.3825   0.6192     C
H       0.5263   0.8467   0.4814     H
N       0.5271  0.13838  0.34738     N
C      0.52749  0.71638  0.79821     C
H       0.5309   0.5384   0.0906     H
H       0.5325   0.1208   0.5785     H
C       0.5335  0.03059  0.58669     C
O      0.53359   0.3125  0.16053     O
N      0.53885  0.90343  0.61928     N
C      0.53954  0.77038  0.76986     C
H       0.5442   0.9209   0.3786     H
H       0.5444    0.729   0.4444     H
C       0.5453   0.7749    0.598     C
C      0.54863  0.40379   0.8095     C
C      0.55111  0.14348  0.30055     C
C       0.5532   0.8656   0.4436     C
H       0.5534   0.8028    0.565     H
N      0.55356  0.38368   0.0494     N
C      0.55412   0.4743  0.09874     C
H       0.5549   0.2777   0.2902     H
C      0.55504  0.49193  0.78121     C
H       0.5562    0.374    0.832     H
H       0.5566   0.9619   0.4289     H
C       0.5581   0.8257   0.4256     C
H       0.5583   0.7464   0.2382     H
C      0.55848   0.9064  0.57416     C
H         0.56   0.7698   0.4936     H
H       0.5604   0.5399   0.0369     H
Mn     0.56158   0.9519  0.65635    Mn
H        0.565   0.6067   0.9183     H
C       0.5661  0.44738  0.81448     C
H       0.5664   0.2906   0.6065     H
Mn     0.56652  0.17753  0.37804    Mn
C      0.56772  0.53134  0.06998     C
C      0.56956  0.64276  0.80568     C
C       0.5696  0.62471  0.93841     C
C       0.5731  0.70195  0.64625     C
C       0.5732   0.3207   0.6096     C
Mn     0.57388  0.38363  0.11847    Mn
O      0.57473  0.53756  0.77947     O
C      0.57846  0.69782  0.78124     C
H       0.5827   0.6294   0.6739     H
H       0.5843   0.6748   0.2536     H
C        0.585   0.7438   0.6008     C
H       0.5883   0.4348     0.19     H
H       0.5883   0.6993   0.8792     H
H       0.5885   0.8443   0.3884     H
H       0.5891   0.6883    0.506     H
C       0.5899   0.7878   0.4564     C
C       0.5922   0.4076   0.6185     C
C      0.59237  0.44403  0.85652     C
C       0.5936    0.748   0.4403     C
O       0.5945   0.4009    0.888     O
H       0.5947   0.6092   0.9619     H
O      0.59546  0.21314  0.41566     O
H       0.5955    0.272   0.4474     H
H       0.5957   0.6555   0.4471     H
H       0.5973   0.0369   0.4232     H
H        0.599   0.4385   0.6203     H
C       0.5995   0.8031   0.7253     C
H       0.5999   0.5682   0.1249     H
H       0.6026    0.887   0.4368     H
N      0.60296   0.0494  0.56692     N
O      0.60421  0.45897  0.08224     O
H       0.6058   0.8385   0.7058     H
C       0.6072   0.7514    0.239     C
H       0.6089   0.7536   0.2697     H
Mn     0.60968  0.39175   0.9519    Mn
Mn     0.61101  0.55557  0.82247    Mn
N      0.61128  0.48576  0.86162     N
H       0.6118    0.168    0.206     H
H       0.6147   0.9693   0.5029     H
C      0.61522  0.68304  0.90068     C
C        0.616   0.6658   0.6506     C
N       0.6166  0.38636  0.01626     N
O      0.61768   0.6288  0.78686     O
H        0.618   0.5697   0.6685     H
H       0.6192   0.6712   0.5819     H
C      0.61942  0.18552  0.26186     C
C       0.6213   0.4173   0.1962     C
H       0.6215   0.0906    0.371     H
C       0.6215   0.2618   0.4699     C
H       0.6216   0.7516   0.5702     H
H       0.6233   0.5782   0.4664     H
H       0.6233   0.7005   0.9209     H
C       0.6235   0.7098   0.4699     C
H       0.6237    0.766   0.4031     H
C      0.62476  0.19432  0.44844     C
C      0.62653  0.94689   0.5323     C
C       0.6279   0.7054   0.2407     C
H       0.6288   0.6291   0.2808     H
H       0.6289   0.6164   0.5214     H
H       0.6299   0.3216   0.4856     H
N      0.62991   0.1359  0.42047     N
N      0.63286  0.01626  0.59738     N
N      0.63337  0.38881   0.1717     N
H       0.6351   0.6898   0.3073     H
O       0.6352   0.9312   0.6751     O
N      0.63542  0.47729  0.90343     N
C       0.6377  0.06998  0.39868     C
C      0.63875  0.34532  0.60977     C
H       0.6391   0.8072   0.4518     H
H       0.6396   0.5273    0.132     H
C       0.6396   0.6732   0.4504     C
C         0.64   0.5662    0.059     C
C       0.6403  0.21876  0.47906     C
C       0.6403   0.7317   0.7382     C
C       0.6407   0.2911   0.4935     C
H       0.6413   0.7835   0.2078     H
C      0.64187   0.1905  0.21329     C
C       0.6424   0.5625   0.1084     C
N       0.6447  0.15452  0.45412     N
O      0.64528   0.5615  0.87436     O
H       0.6454   0.5278   0.9693     H
O       0.6458  0.22053  0.31703     O
H       0.6469   0.5297   0.5397     H
H       0.6473   0.4397   0.2465     H
H       0.6482   0.6024   0.0334     H
C      0.64824  0.38965  0.61543     C
H       0.6492   0.9687   0.5452     H
C       0.6504   0.7846   0.7089     C
H       0.6519    0.673   0.6662     H
C      0.65208  0.51944   0.9064     C
C      0.65286  0.09874  0.42696     C
C       0.6533   0.6722   0.6003     C
H       0.6553   0.9172   0.4931     H
C        0.656   0.4209   0.2292     C
H       0.6579   0.5536   0.3322     H
H       0.6586   0.7144   0.2059     H
C       0.6607   0.5836   0.6392     C
O       0.6627  0.38195  0.07845     O
H       0.6629   0.6244   0.3514     H
C       0.6635   0.6334   0.4856     C
C      0.66375  0.21879  0.27314     C
C       0.6641   0.6963    0.273     C
H       0.6672   0.5158   0.6497     H
H       0.6683   0.8637   0.5647     H
C      0.66878  0.38419  0.03455     C
H       0.6689   0.7293   0.4705     H
C       0.6691   0.5916   0.4705     C
C       0.6702    0.367   0.1843     C
C       0.6743  0.20179  0.51459     C
C       0.6743   0.6539   0.2756     C
C       0.6752   0.2747   0.5284     C
C       0.6761   0.9288   0.5143     C
H       0.6765   0.7194    0.728     H
H       0.6779   0.6939   0.4156     H
H        0.678   0.5556   0.0445     H
H       0.6796   0.6719   0.8467     H
C      0.67964  0.52081  0.94689     C
H       0.6805   0.4861   0.9687     H
H       0.6809   0.5228   0.4917     H
H       0.6816   0.0334   0.3642     H
H       0.6819   0.3338   0.3392     H
H       0.6831   0.3503   0.1655     H
C       0.6832    0.547   0.5048     C
H       0.6841    0.616   0.1607     H
C       0.6842   0.6292   0.6071     C
O      0.68645  0.08224  0.45879     O
H       0.6867   0.5356   0.4081     H
C       0.6876   0.6908   0.8656     C
H       0.6884   0.2942   0.5443     H
O       0.6897   0.3249   0.6063     O
C       0.6906  0.23014  0.54024     C
H       0.6917   0.8072   0.6784     H
Mn     0.69235  0.11847   0.4979    Mn
H       0.6931   0.7064    0.579     H
O      0.69412  0.16053  0.52697     O
C       0.6968   0.5513    0.633     C
C       0.6981   0.6302   0.3194     C
C        0.699    0.059   0.3748     C
C       0.7001   0.3608   0.2228     C
H       0.7004   0.4721   0.3776     H
H       0.7029   0.7641   0.8063     H
C      0.70333  0.03455  0.58126     C
O        0.704   0.3937   0.9312     O
C       0.7047   0.5763   0.3279     C
C       0.7058   0.2269   0.1755     C
C      0.70657  0.95509  0.65468     C
C       0.7074   0.8945   0.5343     C
H       0.7078   0.6089   0.4362     H
C       0.7087   0.3929   0.2363     C
H       0.7104   0.7252   0.2587     H
C       0.7106   0.6017   0.1008     C
H       0.7113   0.6511   0.4847     H
H       0.7115    0.663    0.243     H
H       0.7121   0.2182   0.5655     H
H       0.7122   0.4518   0.4578     H
H       0.7135   0.3315   0.2382     H
H       0.7136   0.6364   0.0755     H
C      0.71541  0.41874  0.61581     C
H       0.7155     0.57   0.1735     H
H       0.7156   0.6762    0.887     H
H       0.7179   0.9609   0.4891     H
O      0.71925   0.4604  0.61805     O
H       0.7196   0.2299   0.1422     H
C        0.721   0.6046   0.1463     C
H       0.7214   0.8534   0.4938     H
H       0.7224   0.4345   0.7837     H
H       0.7225   0.0445   0.3999     H
H       0.7228   0.5679   0.7223     H
H       0.7242   0.8971   0.7094     H
H       0.7248   0.1249   0.3069     H
C       0.7264   0.5467   0.3757     C
H       0.7279    0.421   0.2854     H
N      0.72863  0.59323  0.76824     N
C         0.73   0.2533   0.2349     C
H       0.7314   0.5587    0.506     H
C       0.7324   0.7487   0.8257     C
C       0.7334   0.3494   0.3164     C
C      0.73633  0.38457  0.00508     C
H       0.7381   0.5897   0.9172     H
H       0.7396   0.9096   0.5482     H
O      0.74115  0.07845   0.5396     O
H       0.7412   0.5829   0.2961     H
C      0.74141  0.00508  0.61035     C
C       0.7426   0.4953    0.378     C
H       0.7434   0.3261   0.3033     H
H       0.7442   0.7673   0.8443     H
H       0.7455   0.6541   0.3127     H
C       0.7464   0.3997   0.2725     C
C       0.7473   0.5569   0.9288     C
C       0.7475   0.9303   0.6793     C
H       0.7506   0.6322   0.8028     H
C       0.7508   0.1084   0.3291     C
C       0.7514     0.26   0.1861     C
C      0.75148  0.39023  0.95509     C
H       0.7522   0.5951   0.0846     H
C       0.7527   0.8733   0.5047     C
C       0.7535   0.5907   0.7289     C
N      0.75544  0.56051  0.61119     N
H        0.757     0.55   0.9609     H
C       0.7583   0.4657   0.4288     C
H       0.7624   0.2737    0.243     H
H       0.7626    0.494   0.0647     H
C       0.7649   0.6501   0.5791     C
H        0.767   0.4353   0.4284     H
H       0.7673   0.4557   0.8385     H
C      0.76916  0.45976  0.77038     C
N      0.76976  0.40262  0.61364     N
H         0.77   0.5706   0.3738     H
C       0.7704   0.6271   0.7749     C
H       0.7716    0.132   0.3407     H
H       0.7717   0.8497   0.5279     H
H       0.7772   0.2805   0.3834     H
H       0.7783     0.19   0.3752     H
O      0.77891  0.47303   0.6875     O
C      0.78065  0.35375   0.3482     C
H       0.7807   0.3797   0.0588     H
Mn     0.78207  0.34365  0.60825    Mn
H       0.7848   0.5062   0.3472     H
H       0.7891   0.0755   0.2881     H
C       0.7893   0.3815   0.0261     C
H       0.7902   0.7366   0.7698     H
H       0.7924   0.6862   0.5603     H
H        0.793   0.5109     0.45     H
H       0.7956   0.2863   0.1602     H
C       0.7956   0.3135   0.3804     C
C        0.796   0.6135   0.5827     C
C       0.7964   0.4716   0.8031     C
H       0.7965   0.2382   0.0154     H
H       0.7989   0.4181   0.2531     H
H       0.8006   0.9444   0.4294     H
C       0.8021   0.7558   0.7878     C
H        0.804   0.5153   0.1358     H
H       0.8046   0.5716   0.8637     H
N      0.80507   0.1717  0.43949     N
H       0.8056   0.4548   0.5139     H
O       0.8064   0.2889   0.5991     O
H       0.8082   0.4298   0.3218     H
C       0.8096   0.4857   0.4431     C
Mn     0.80975   0.5021  0.61637    Mn
C      0.81111  0.48541  0.71638     C
C       0.8114   0.1008   0.2975     C
H       0.8119   0.0154   0.7464     H
C        0.812   0.4952   0.0518     C
C       0.8129   0.5712   0.8945     C
H       0.8134   0.4603   0.0694     H
C       0.8142   0.3992   0.3446     C
C       0.8154   0.0261   0.5924     C
H       0.8154   0.8266    0.729     H
C       0.8172   0.3904   0.9303     C
C       0.8175   0.1962   0.3865     C
H       0.8178    0.206    0.626     H
C       0.8203   0.9224   0.4533     C
C       0.8214    0.953   0.6606     C
C        0.824   0.6196   0.6939     C
H       0.8271   0.3935   0.8971     H
H       0.8273   0.0647   0.4413     H
H       0.8274   0.5083   0.0145     H
H         0.83   0.5422   0.9096     H
N      0.83012  0.43308  0.61632     N
H       0.8319    0.741   0.8072     H
H       0.8368   0.0846   0.3203     H
C       0.8372   0.3196   0.4093     C
H       0.8379   0.2536   0.0716     H
H       0.8394   0.6166   0.6639     H
H       0.8395   0.0588   0.5615     H
C      0.84117   0.4677  0.47919     C
C       0.8412   0.6554   0.7438     C
H       0.8417    0.879   0.4171     H
N      0.84187  0.38072  0.52271     N
H       0.8419   0.0145   0.4772     H
H       0.8429   0.6797   0.4049     H
H       0.8448   0.1607   0.2233     H
H       0.8451   0.2902   0.4321     H
C       0.8456   0.8117    0.748     C
C       0.8462    0.239   0.0096     C
H       0.8465   0.6248   0.5652     H
H       0.8486   0.1655   0.4842     H
H       0.8487   0.9348   0.6775     H
H       0.8489   0.9437   0.4644     H
H       0.8491   0.2078   0.0087     H
H       0.8497   0.4786   0.1378     H
C       0.8509   0.5144    0.119     C
H       0.8516   0.5069   0.4103     H
C      0.85166  0.30055  0.55597     C
C       0.8545   0.1843   0.4487     C
C       0.8545   0.3808   0.0017     C
H       0.8545   0.7435     0.43     H
O      0.85476  0.54121  0.54103     O
C      0.85516  0.21329  0.59621     C
H       0.8553   0.9767   0.7536     H
C       0.8558   0.0096   0.7514     C
H        0.856   0.5638   0.0451     H
C       0.8562   0.0017   0.6175     C
H       0.8562   0.6262   0.9444     H
C       0.8567    0.402   0.3729     C
H       0.8577   0.8309    0.766     H
H       0.8578   0.0087   0.7835     H
C       0.8604   0.5295   0.0621     C
H       0.8606   0.5295   0.1998     H
H       0.8618   0.1422   0.6279     H
C       0.8638   0.0518    0.453     C
H       0.8645   0.2059   0.0797     H
N       0.8646  0.36147  0.40677     N
C       0.8658   0.5065   0.7846     C
C       0.8673   0.1463   0.2491     C
C      0.86736  0.42584  0.48056     C
H        0.868   0.6528   0.8534     H
C       0.8684   0.3864    0.953     C
C       0.8686   0.2407   0.0539     C
H         0.87   0.6782   0.7516     H
C      0.87115   0.6518  0.70195     C
C       0.8716   0.9042   0.4237     C
O      0.87307  0.37068  0.61437     O
N      0.87448  0.34738  0.51424     N
H       0.8776   0.6001   0.4444     H
H       0.8786   0.2697   0.9767     H
C       0.8794    0.622   0.8733     C
C      0.87981  0.41331  0.61728     C
C      0.88064  0.52094  0.69782     C
C      0.88128  0.26186  0.55262     C
C       0.8813   0.1755   0.5976     C
H       0.8816    0.435   0.3678     H
H       0.8824   0.4971   0.4722     H
H       0.8828   0.0694   0.4703     H
C       0.8836   0.7509   0.3954     C
H       0.8845   0.5144   0.8072     H
C       0.8852   0.2292   0.3499     C
H       0.8877   0.6593   0.4727     H
H        0.889   0.1735   0.2565     H
H        0.889   0.3765   0.0181     H
H        0.889   0.4215   0.6993     H
C       0.8911   0.7025   0.3983     C
H       0.8938   0.2465   0.3138     H
H       0.8957   0.8858   0.4464     H
C       0.8979   0.6243   0.9224     C
H       0.9008   0.8057   0.6883     H
H       0.9011   0.0451   0.3911     H
N      0.90118  0.54588  0.60864     N
H       0.9049    0.494   0.1943     H
H       0.9052   0.5919   0.9437     H
H       0.9065   0.5844   0.1095     H
C       0.9066   0.5301   0.1797     C
H       0.9071   0.0181   0.6054     H
C       0.9086   0.5301   0.7317     C
H       0.9086   0.9668   0.3459     H
H       0.9091   0.5482    0.259     H
H       0.9095   0.0716   0.6748     H
H       0.9096   0.2808   0.0901     H
C         0.91   0.5496   0.1236     C
H       0.9103   0.5336   0.0446     H
C       0.9137   0.8203   0.7098     C
H       0.9139   0.3877   0.9348     H
O      0.91622  0.43586   0.4385     O
C       0.9201   0.6709   0.4375     C
C      0.92018  0.57304   0.5257     C
H        0.922   0.6224   0.8497     H
C       0.9225   0.0539   0.7054     C
C       0.9225   0.0621   0.4084     C
H       0.9228   0.3786   0.7005     H
H       0.9228   0.7119   0.3636     H
C       0.9229   0.2228   0.4164     C
C       0.9262   0.6252   0.4338     C
C       0.9268  0.55156  0.64276     C
H       0.9319   0.7767    0.384     H
C       0.9321   0.9496   0.3698     C
C      0.93218  0.41628  0.68304     C
C      0.93689  0.27314  0.50807     C
C       0.9371    0.273   0.0307     C
C       0.9375   0.1861   0.5539     C
H       0.9388   0.4296   0.7641     H
H       0.9396   0.8002   0.7293     H
H       0.9398   0.1358   0.3489     H
H       0.9402   0.8974   0.6555     H
H       0.9418   0.6873   0.9668     H
H       0.9424   0.3073   0.0029     H
H       0.9442   0.0797   0.7144     H
Mn     0.94456  0.37804  0.44443    Mn
C      0.94489  0.43688  0.62471     C
C        0.945   0.2363   0.3708     C
H       0.9453   0.0029   0.6898     H
H       0.9464   0.5064   0.2634     H
H        0.948   0.7469   0.6712     H
N      0.94962  0.57953  0.55637     N
C       0.9499   0.2756   0.0705     C
C       0.9502   0.6836   0.6658     C
H       0.9515    0.906    0.337     H
H       0.9517   0.2382   0.4303     H
H       0.9533   0.6967   0.6294     H
C       0.9537   0.5436   0.2442     C
H       0.9542   0.6358   0.3976     H
H       0.9545    0.243    0.094     H
H       0.9549   0.0446   0.4218     H
H       0.9558   0.1602   0.5535     H
H       0.9571   0.5526   0.7194     H
H       0.9572   0.5529   0.1026     H
H       0.9583    0.475   0.6067     H
H       0.9606   0.5632   0.3238     H
H       0.9615   0.9758   0.3756     H
H       0.9627   0.7039    0.879     H
O      0.96283  0.31703  0.46244     O
C      0.96362  0.60132  0.46866     C
C       0.9649   0.2349   0.5118     C
C       0.9661   0.5597   0.1883     C
C       0.9664   0.8764   0.6732     C
C       0.9674   0.6721   0.9042     C
C       0.9678   0.0307   0.6963     C
H       0.9683   0.6931   0.4318     H
H       0.9691   0.2587   0.0161     H
C       0.9699    0.119   0.3666     C
H       0.9732   0.5969   0.1691     H
H       0.9769   0.3884   0.7673     H
H       0.9789   0.6608    0.673     H
H       0.9795   0.5768   0.4601     H
C       0.9796   0.9295   0.3461     C
C       0.9811   0.7275   0.6722     C
C       0.9825   0.6806   0.9496     C
C       0.9837   0.4256   0.7487     C
H        0.984   0.8905   0.6939     H
H       0.9852   0.0161   0.7252     H
H       0.9855   0.4289   0.6092     H
H       0.9857   0.6486   0.9758     H
H       0.9867   0.7146   0.7064     H
H       0.9875   0.1378   0.3836     H
H       0.9888   0.4444   0.8266     H
O      0.98888  0.58434   0.6288     O
H       0.9901   0.3322   0.1142     H
H       0.9923   0.5186   0.3281     H
H       0.9925    0.371   0.5384     H
H       0.9946    0.757   0.5167     H
C       0.9968   0.4436   0.6908     C
H       0.9997   0.0901   0.6291     H
