data_I
_chemical_name_common  '/home/zhangsd/repos/MofS-CGCNN/ML/data/TSD/clean_cifs/FATVOM_clean'
_cell_length_a 11.35020
_cell_length_b 16.15010
_cell_length_c 11.36580
_cell_angle_alpha 90.00000
_cell_angle_beta  101.93500
_cell_angle_gamma 90.00000
_space_group_name_H-M_alt      'P 1'


loop_
_space_group_symop_operation_xyz
  'x, y, z' 

loop_
_atom_site_label
_atom_site_fract_x
_atom_site_fract_y
_atom_site_fract_z
_atom_site_type_symbol
C          0.0  0.05214     0.25     C
C          0.0  0.14611     0.25     C
C          0.0   0.3198     0.25     C
H          0.0   0.3774     0.25     H
H          0.0   0.6226     0.75     H
C          0.0   0.6802     0.75     C
C          0.0  0.85389     0.75     C
C          0.0  0.94786     0.75     C
C       0.0373  0.27696    0.159     C
C       0.0373  0.72304    0.659     C
C      0.03731  0.19039  0.15807     C
C      0.03731  0.80961  0.65807     C
H       0.0626   0.3059   0.0979     H
H       0.0626   0.6941   0.5979     H
C      0.07736  0.14886  0.05584     C
C      0.07736  0.85114  0.55584     C
O      0.08156  0.07168  0.04602     O
O      0.08156  0.92832  0.54602     O
O      0.09236  0.01885   0.3105     O
O      0.09236  0.98115   0.8105     O
O      0.10522  0.19272  0.97362     O
O      0.10522  0.80728  0.47362     O
Cu     0.12743  0.08984  0.88373    Cu
Cu     0.12743  0.91016  0.38373    Cu
H       0.1378   0.2595   0.7968     H
H       0.1378   0.7405   0.2968     H
N      0.15831  0.14671  0.73997     N
N      0.15831  0.85329  0.23997     N
C       0.1605  0.22946   0.7352     C
C       0.1605  0.77054   0.2352     C
H        0.187   0.0464   0.6514     H
H        0.187   0.9536   0.1514     H
C       0.1894   0.1039   0.6497     C
C       0.1894   0.8961   0.1497     C
C        0.195   0.2719   0.6428     C
H        0.195   0.3295   0.6425     H
H        0.195   0.6705   0.1425     H
C        0.195   0.7281   0.1428     C
C       0.2248  0.14253   0.5546     C
C       0.2248  0.85747   0.0546     C
C      0.22997  0.22836  0.54996     C
C      0.22997  0.77164  0.04996     C
H       0.2453    0.111   0.4933     H
H       0.2453    0.889   0.9933     H
H       0.2547    0.389   0.5067     H
H       0.2547    0.611   0.0067     H
C      0.27003  0.27164  0.45004     C
C      0.27003  0.72836  0.95004     C
C       0.2752  0.35747   0.4454     C
C       0.2752  0.64253   0.9454     C
H        0.305   0.1705   0.3575     H
C        0.305   0.2281   0.3572     C
C        0.305   0.7719   0.8572     C
H        0.305   0.8295   0.8575     H
C       0.3106   0.3961   0.3503     C
C       0.3106   0.6039   0.8503     C
H        0.313   0.4536   0.3486     H
H        0.313   0.5464   0.8486     H
C       0.3395  0.27054   0.2648     C
C       0.3395  0.72946   0.7648     C
N      0.34169  0.35329  0.26003     N
N      0.34169  0.64671  0.76003     N
H       0.3622   0.2405   0.2032     H
H       0.3622   0.7595   0.7032     H
Cu     0.37257  0.41016  0.11627    Cu
Cu     0.37257  0.58984  0.61627    Cu
O      0.39478  0.30728  0.02638     O
O      0.39478  0.69272  0.52638     O
O      0.40764  0.48115   0.6895     O
O      0.40764  0.51885   0.1895     O
O      0.41844  0.42832  0.95398     O
O      0.41844  0.57168  0.45398     O
C      0.42264  0.35114  0.94416     C
C      0.42264  0.64886  0.44416     C
H       0.4374   0.1941   0.9021     H
H       0.4374   0.8059   0.4021     H
C      0.46269  0.30961  0.84193     C
C      0.46269  0.69039  0.34193     C
C       0.4627  0.22304    0.841     C
C       0.4627  0.77696    0.341     C
H          0.5   0.1226     0.75     H
C          0.5   0.1802     0.75     C
C          0.5  0.35389     0.75     C
C          0.5  0.44786     0.75     C
C          0.5  0.55214     0.25     C
C          0.5  0.64611     0.25     C
C          0.5   0.8198     0.25     C
H          0.5   0.8774     0.25     H
C       0.5373  0.22304    0.659     C
C       0.5373  0.77696    0.159     C
C      0.53731  0.30961  0.65807     C
C      0.53731  0.69039  0.15807     C
H       0.5626   0.1941   0.5979     H
H       0.5626   0.8059   0.0979     H
C      0.57736  0.35114  0.55584     C
C      0.57736  0.64886  0.05584     C
O      0.58156  0.42832  0.54602     O
O      0.58156  0.57168  0.04602     O
O      0.59236  0.48115   0.8105     O
O      0.59236  0.51885   0.3105     O
O      0.60522  0.30728  0.47362     O
O      0.60522  0.69272  0.97362     O
Cu     0.62743  0.41016  0.38373    Cu
Cu     0.62743  0.58984  0.88373    Cu
H       0.6378   0.2405   0.2968     H
H       0.6378   0.7595   0.7968     H
N      0.65831  0.35329  0.23997     N
N      0.65831  0.64671  0.73997     N
C       0.6605  0.27054   0.2352     C
C       0.6605  0.72946   0.7352     C
H        0.687   0.4536   0.1514     H
H        0.687   0.5464   0.6514     H
C       0.6894   0.3961   0.1497     C
C       0.6894   0.6039   0.6497     C
H        0.695   0.1705   0.1425     H
C        0.695   0.2281   0.1428     C
C        0.695   0.7719   0.6428     C
H        0.695   0.8295   0.6425     H
C       0.7248  0.35747   0.0546     C
C       0.7248  0.64253   0.5546     C
C      0.72997  0.27164  0.04996     C
C      0.72997  0.72836  0.54996     C
H       0.7453    0.389   0.9933     H
H       0.7453    0.611   0.4933     H
H       0.7547    0.111   0.0067     H
H       0.7547    0.889   0.5067     H
C      0.77003  0.22836  0.95004     C
C      0.77003  0.77164  0.45004     C
C       0.7752  0.14253   0.9454     C
C       0.7752  0.85747   0.4454     C
C        0.805   0.2719   0.8572     C
H        0.805   0.3295   0.8575     H
H        0.805   0.6705   0.3575     H
C        0.805   0.7281   0.3572     C
C       0.8106   0.1039   0.8503     C
C       0.8106   0.8961   0.3503     C
H        0.813   0.0464   0.8486     H
H        0.813   0.9536   0.3486     H
C       0.8395  0.22946   0.7648     C
C       0.8395  0.77054   0.2648     C
N      0.84169  0.14671  0.76003     N
N      0.84169  0.85329  0.26003     N
H       0.8622   0.2595   0.7032     H
H       0.8622   0.7405   0.2032     H
Cu     0.87257  0.08984  0.61627    Cu
Cu     0.87257  0.91016  0.11627    Cu
O      0.89478  0.19272  0.52638     O
O      0.89478  0.80728  0.02638     O
O      0.90764  0.01885   0.1895     O
O      0.90764  0.98115   0.6895     O
O      0.91844  0.07168  0.45398     O
O      0.91844  0.92832  0.95398     O
C      0.92264  0.14886  0.44416     C
C      0.92264  0.85114  0.94416     C
H       0.9374   0.3059   0.4021     H
H       0.9374   0.6941   0.9021     H
C      0.96269  0.19039  0.34193     C
C      0.96269  0.80961  0.84193     C
C       0.9627  0.27696    0.341     C
C       0.9627  0.72304    0.841     C
