data_I
_chemical_name_common  '/home/zhangsd/repos/MofS-CGCNN/ML/data/TSD/clean_cifs/FAVGUH_clean'
_cell_length_a 11.88800
_cell_length_b 12.47500
_cell_length_c 12.54200
_cell_angle_alpha 90.00000
_cell_angle_beta  98.94000
_cell_angle_gamma 90.00000
_space_group_name_H-M_alt      'P 1'


loop_
_space_group_symop_operation_xyz
  'x, y, z' 

loop_
_atom_site_label
_atom_site_fract_x
_atom_site_fract_y
_atom_site_fract_z
_atom_site_type_symbol
H       0.0003   0.5339   0.9292     H
H       0.0075   0.5659   0.2494     H
C       0.0221   0.5465    0.091     C
C       0.0332   0.0667   0.8203     C
C        0.037   0.0485   0.0126     C
H        0.111   0.3416   0.7511     H
H       0.1309   0.4638   0.7764     H
C       0.1459   0.5204   0.1084     C
H       0.1468   0.3799   0.8706     H
H       0.1469   0.8516   0.1567     H
C       0.1483   0.0876    0.837     C
H        0.149   0.7293   0.1284     H
C       0.1537   0.0725   0.0298     C
C       0.1558   0.3925   0.7969     C
H       0.1675   0.8153   0.0416     H
C       0.1813   0.7981   0.1171     C
H       0.1956   0.6629   0.5883     H
O       0.1974   0.4969   0.2003     O
O        0.198   0.1061   0.7485     O
O       0.1985   0.5221   0.0277     O
O       0.2026   0.0704   0.1355     O
C       0.2096   0.0912   0.9428     C
H       0.2285    0.611   0.6862     H
O       0.2363   0.6677   0.6502     O
O         0.25   0.8912   0.7678     O
O       0.2571   0.2817   0.1227     O
C       0.2794   0.3802   0.7852     C
H       0.2872    0.106    0.954     H
O       0.2881   0.3979   0.6748     O
H       0.2931   0.0324   0.5903     H
H       0.2974   0.1301     0.32     H
H       0.3032   0.3065   0.8043     H
C       0.3071   0.7953   0.1557     C
C       0.3135   0.0728   0.7522     C
C       0.3182   0.0994   0.1627     C
O       0.3212   0.7746   0.2676     O
H        0.326   0.4002   0.4824     H
H       0.3261   0.1532   0.6101     H
C       0.3275   0.9586   0.7909     C
H       0.3381   0.0125   0.3042     H
H       0.3385   0.8664   0.1448     H
C       0.3387   0.2161   0.1358     C
C       0.3405   0.0814   0.6362     C
C       0.3473   0.0862   0.2854     C
H       0.3559   0.7808   0.4688     H
C       0.3565   0.4579   0.8591     C
Eu     0.35882  0.72932  0.81292    Eu
H       0.3642   0.1199   0.8004     H
H       0.3661   0.0522   0.1262     H
C       0.3676   0.7128    0.093     C
Eu     0.37264  0.44573  0.13151    Eu
O       0.3747   0.7384   0.9985     O
O       0.3791   0.5455   0.8263     O
C       0.3877   0.3695   0.6407     C
C       0.3887   0.3743   0.5289     C
O       0.3905   0.4211   0.9539     O
O       0.4071   0.6281   0.1401     O
O        0.417   0.3975   0.3133     O
H       0.4191   0.0638   0.6359     H
C       0.4199   0.8041   0.4412     C
C       0.4208   0.8035   0.3305     C
O       0.4241   0.9315    0.844     O
H       0.4248   0.1077   0.3088     H
O       0.4364   0.7852   0.6625     O
O       0.4388   0.2452    0.129     O
H       0.4798   0.3302   0.7849     H
C       0.4817   0.3338   0.7111     C
C       0.4847   0.3397   0.4898     C
C       0.4874   0.3414   0.3703     C
C       0.5126   0.8414   0.6297     C
C       0.5153   0.8397   0.5102     C
C       0.5183   0.8338   0.2889     C
H       0.5202   0.8302   0.2151     H
O       0.5612   0.7452    0.871     O
O       0.5636   0.2852   0.3375     O
H       0.5752   0.6077   0.6912     H
O       0.5759   0.4315    0.156     O
C       0.5792   0.3035   0.6695     C
C       0.5801   0.3041   0.5588     C
H       0.5809   0.5638   0.3641     H
O        0.583   0.8975   0.6867     O
O       0.5929   0.1281   0.8599     O
O       0.6095   0.9211   0.0461     O
C       0.6113   0.8743   0.4711     C
C       0.6123   0.8695   0.3593     C
O       0.6209   0.0455   0.1737     O
O       0.6253   0.2384   0.0015     O
Eu     0.62736  0.94573  0.86849    Eu
C       0.6324   0.2128    0.907     C
H       0.6339   0.5522   0.8738     H
H       0.6358   0.6199   0.1996     H
Eu     0.64118  0.22932  0.18708    Eu
C       0.6435   0.9579   0.1409     C
H       0.6441   0.2808   0.5312     H
C       0.6527   0.5862   0.7146     C
C       0.6595   0.5814   0.3638     C
C       0.6613   0.7161   0.8642     C
H       0.6615   0.3664   0.8552     H
H       0.6619   0.5125   0.6958     H
C       0.6725   0.4586   0.2091     C
H       0.6739   0.6532   0.3899     H
H        0.674   0.9002   0.5176     H
O       0.6788   0.2746   0.7324     O
C       0.6818   0.5994   0.8373     C
C       0.6865   0.5728   0.2478     C
C       0.6929   0.2953   0.8443     C
H       0.6968   0.8065   0.1957     H
H       0.7026   0.6301     0.68     H
H       0.7069   0.5324   0.4097     H
O       0.7119   0.8979   0.3252     O
H       0.7128    0.606    0.046     H
C       0.7206   0.8802   0.2148     C
O       0.7429   0.7817   0.8773     O
O         0.75   0.3912   0.2322     O
O       0.7637   0.1677   0.3498     O
H       0.7715    0.111   0.3138     H
C       0.7904   0.5912   0.0572     C
O       0.7974   0.5704   0.8645     O
O       0.8015   0.0221   0.9723     O
O        0.802   0.6061   0.2515     O
O       0.8026   0.9969   0.7997     O
H       0.8044   0.1629   0.4117     H
C       0.8187   0.2981   0.8829     C
H       0.8325   0.3153   0.9584     H
C       0.8442   0.8925   0.2031     C
C       0.8463   0.5725   0.9702     C
H        0.851   0.2293   0.8716     H
C       0.8517   0.5876    0.163     C
H       0.8531   0.3516   0.8433     H
H       0.8532   0.8799   0.1294     H
C       0.8541   0.0204   0.8916     C
H       0.8691   0.9638   0.2236     H
H        0.889   0.8416   0.2489     H
C        0.963   0.5485   0.9874     C
C       0.9668   0.5667   0.1797     C
C       0.9779   0.0465    0.909     C
H       0.9925   0.0659   0.7506     H
H       0.9997   0.0339   0.0708     H
