data_I
_chemical_name_common  '/home/zhangsd/repos/MofS-CGCNN/ML/data/TSD/clean_cifs/FAVGER_clean'
_cell_length_a 12.86500
_cell_length_b 24.16200
_cell_length_c 12.36800
_cell_angle_alpha 90.00000
_cell_angle_beta  90.00000
_cell_angle_gamma 90.00000
_space_group_name_H-M_alt      'P 1'


loop_
_space_group_symop_operation_xyz
  'x, y, z' 

loop_
_atom_site_label
_atom_site_fract_x
_atom_site_fract_y
_atom_site_fract_z
_atom_site_type_symbol
C          0.0      0.0   0.0902     C
C          0.0      0.0   0.3152     C
H          0.0      0.0   0.3903     H
C          0.0      0.0   0.9694     C
C          0.0      0.5   0.1261     C
H          0.0      0.5   0.2013     H
C          0.0      0.5   0.7802     C
C          0.0      0.5    0.901     C
H       0.0039   0.6695   0.3326     H
C       0.0083   0.3351   0.2566     C
H       0.0099    0.183    0.405     H
C       0.0128   0.4515   0.0685     C
C       0.0148   0.3961   0.2302     C
C       0.0152   0.4506   0.9568     C
H       0.0182   0.0884    0.444     H
O        0.025   0.3996   0.1156     O
C       0.0266   0.9525   0.1454     C
H       0.0267   0.4177   0.9197     H
C       0.0267   0.9524    0.258     C
O        0.043   0.9607   0.9227     O
H       0.0444   0.9206   0.1075     H
H       0.0452   0.8276   0.5162     H
O       0.0463   0.4606   0.7324     O
C       0.0476   0.8961   0.4178     C
H       0.0478   0.6813   0.2166     H
C       0.0488    0.834   0.4397     C
H       0.0494   0.5854   0.2529     H
O       0.0529    0.903   0.3042     O
O       0.0555   0.0868   0.7289     O
O       0.0663  0.62026   0.5697     O
H       0.0725   0.3174   0.2372     H
O       0.0864   0.4417   0.3768     O
O       0.0982  0.53241   0.5449     O
Nd     0.10271  0.43188  0.56045    Nd
C        0.105   0.4218   0.2855     C
H       0.1118   0.8183   0.4116     H
Nd     0.12416  0.91814  0.76884    Nd
H        0.127   0.8276   0.6711     H
C       0.1271   0.5807   0.5697     C
O       0.1298   0.9276   0.5768     O
C       0.1339   0.0627   0.7532     C
O       0.1382   0.3429   0.6587     O
C        0.139   0.9248   0.4782     C
O       0.1532   0.0108    0.745     O
C       0.1609   0.3171   0.5747     C
O       0.1674  0.34139   0.4847     O
H        0.173   0.0997    0.956     H
H       0.1811   0.2506   0.7428     H
C       0.1867   0.2566   0.5793     C
H       0.1887   0.0808   0.2429     H
O       0.1888    0.422   0.2426     O
O       0.1897   0.8292   0.6924     O
H        0.191   0.5888     0.77     H
C       0.1913   0.2305   0.6795     C
H       0.1952   0.2451   0.4174     H
C       0.2003   0.2274    0.484     C
H       0.2055   0.6001   0.0526     H
C       0.2115   0.1732   0.6838     C
H       0.2118   0.5813    0.235     H
O       0.2131   0.1518   0.7861     O
O       0.2143   0.9404   0.4227     O
H       0.2149   0.0659   0.4304     H
H       0.2206   0.8004   0.6698     H
C       0.2222   0.1701   0.4903     C
C       0.2239   0.0936      0.8     C
C       0.2287   0.1433   0.5896     C
C       0.2319   0.0835   0.9203     C
O       0.2319   0.1452    0.392     O
H       0.2332   0.0444   0.9339     H
H       0.2356   0.5314    0.734     H
C        0.237   0.5882   0.6129     C
H       0.2444   0.1058   0.5929     H
C       0.2444   0.5707   0.7289     C
C       0.2556   0.0707   0.2711     C
H       0.2556   0.6058   0.4071     H
C        0.263   0.0882   0.3871     C
H       0.2644   0.0314    0.266     H
H       0.2668   0.5444   0.0661     H
C       0.2681   0.5835   0.0797     C
O       0.2681   0.6452    0.608     O
C       0.2713   0.6433   0.4104     C
C       0.2761   0.5936      0.2     C
C       0.2778   0.6701   0.5097     C
H       0.2794   0.3004   0.3302     H
H       0.2851   0.5659   0.5696     H
O       0.2857   0.4404   0.5773     O
O       0.2869   0.6518   0.2139     O
H       0.2882   0.0813    0.765     H
C       0.2885   0.6732   0.3162     C
H       0.2945   0.1001   0.9474     H
C       0.2997   0.7274    0.516     C
H       0.3048   0.7451   0.5826     H
C       0.3087   0.7305   0.3205     C
H        0.309   0.0888     0.23     H
O       0.3103   0.3292   0.3076     O
O       0.3112    0.922   0.7574     O
H       0.3113   0.5808   0.7571     H
C       0.3133   0.7566   0.4207     C
H       0.3189   0.7506   0.2572     H
H        0.327   0.5997    0.044     H
O       0.3326  0.84139   0.5153     O
C       0.3391   0.8171   0.4253     C
O       0.3468   0.5108    0.255     O
C        0.361   0.4248   0.5218     C
O       0.3618   0.8429   0.3413     O
C       0.3661   0.5627   0.2468     C
O       0.3702   0.4276   0.4232     O
C       0.3729   0.0807   0.4303     C
H        0.373   0.3276   0.3289     H
Nd     0.37584  0.41814  0.23116    Nd
H       0.3882   0.3183   0.5884     H
C        0.395   0.9218   0.7145     C
Nd     0.39729  0.93188  0.43955    Nd
O       0.4018  0.03241   0.4551     O
O       0.4136   0.9417   0.6232     O
H       0.4275   0.8174   0.7628     H
O       0.4337  0.12026   0.4303     O
O       0.4445   0.5868   0.2711     O
O       0.4471    0.403   0.6958     O
H       0.4506   0.0854   0.7471     H
C       0.4512    0.334   0.5603     C
H       0.4522   0.1813   0.7834     H
C       0.4524   0.3961   0.5822     C
O       0.4537   0.9606   0.2676     O
H       0.4548   0.3276   0.4838     H
H       0.4556   0.4206   0.8925     H
O        0.457   0.4607   0.0773     O
C       0.4733   0.4524    0.742     C
H       0.4733   0.9177   0.0803     H
C       0.4734   0.4525   0.8546     C
O        0.475   0.8996   0.8844     O
H       0.4818   0.5884    0.556     H
C       0.4848   0.9506   0.0432     C
C       0.4852   0.8961   0.7698     C
C       0.4872   0.9515   0.9315     C
H       0.4901    0.683    0.595     H
C       0.4917   0.8351   0.7434     C
H       0.4961   0.1695   0.6674     H
C          0.5      0.0    0.099     C
C          0.5      0.0   0.2198     C
H          0.5      0.0   0.7987     H
C          0.5      0.0   0.8739     C
C          0.5      0.5   0.0306     C
H          0.5      0.5   0.6097     H
C          0.5      0.5   0.6848     C
C          0.5      0.5   0.9098     C
H       0.5039   0.8305   0.6674     H
C       0.5083   0.1649   0.7434     C
H       0.5099    0.317    0.595     H
C       0.5128   0.0485   0.9315     C
C       0.5148   0.1039   0.7698     C
C       0.5152   0.0494   0.0432     C
H       0.5182   0.4116    0.556     H
O        0.525   0.1004   0.8844     O
C       0.5266   0.5475   0.8546     C
H       0.5267   0.0823   0.0803     H
C       0.5267   0.5476    0.742     C
O        0.543   0.5393   0.0773     O
H       0.5444   0.5794   0.8925     H
H       0.5452   0.6724   0.4838     H
O       0.5463   0.0394   0.2676     O
C       0.5476   0.6039   0.5822     C
H       0.5478   0.8187   0.7834     H
C       0.5488    0.666   0.5603     C
H       0.5494   0.9146   0.7471     H
O       0.5529    0.597   0.6958     O
O       0.5555   0.4132   0.2711     O
O       0.5663  0.87974   0.4303     O
H       0.5725   0.1826   0.7628     H
O       0.5864   0.0583   0.6232     O
O       0.5982  0.96759   0.4551     O
Nd     0.60271  0.06812  0.43955    Nd
C        0.605   0.0782   0.7145     C
H       0.6118   0.6817   0.5884     H
Nd     0.62416  0.58186  0.23116    Nd
H        0.627   0.6724   0.3289     H
C       0.6271   0.9193   0.4303     C
O       0.6298   0.5724   0.4232     O
C       0.6339   0.4373   0.2468     C
O       0.6382   0.1571   0.3413     O
C        0.639   0.5752   0.5218     C
O       0.6532   0.4892    0.255     O
C       0.6609   0.1829   0.4253     C
O       0.6674  0.15861   0.5153     O
H        0.673   0.4003    0.044     H
H       0.6811   0.2494   0.2572     H
C       0.6867   0.2434   0.4207     C
H       0.6887   0.4192   0.7571     H
O       0.6888    0.078   0.7574     O
O       0.6897   0.6708   0.3076     O
H        0.691   0.9112     0.23     H
C       0.6913   0.2695   0.3205     C
H       0.6952   0.2549   0.5826     H
C       0.7003   0.2726    0.516     C
H       0.7055   0.8999   0.9474     H
C       0.7115   0.3268   0.3162     C
H       0.7118   0.9187    0.765     H
O       0.7131   0.3482   0.2139     O
O       0.7143   0.5596   0.5773     O
H       0.7149   0.4341   0.5696     H
H       0.7206   0.6996   0.3302     H
C       0.7222   0.3299   0.5097     C
C       0.7239   0.4064      0.2     C
C       0.7287   0.3567   0.4104     C
O       0.7319   0.3548    0.608     O
C       0.7319   0.4165   0.0797     C
H       0.7332   0.4556   0.0661     H
H       0.7356   0.9686    0.266     H
C        0.737   0.9118   0.3871     C
H       0.7444   0.3942   0.4071     H
C       0.7444   0.9293   0.2711     C
C       0.7556   0.4293   0.7289     C
H       0.7556   0.8942   0.5929     H
C        0.763   0.4118   0.6129     C
H       0.7644   0.4686    0.734     H
H       0.7668   0.9556   0.9339     H
O       0.7681   0.8548    0.392     O
C       0.7681   0.9165   0.9203     C
C       0.7713   0.8567   0.5896     C
C       0.7761   0.9064      0.8     C
C       0.7778   0.8299   0.4903     C
H       0.7794   0.1996   0.6698     H
H       0.7851   0.9341   0.4304     H
O       0.7857   0.0596   0.4227     O
O       0.7869   0.8482   0.7861     O
H       0.7882   0.4187    0.235     H
C       0.7885   0.8268   0.6838     C
H       0.7945   0.3999   0.0526     H
C       0.7997   0.7726    0.484     C
H       0.8048   0.7549   0.4174     H
C       0.8087   0.7695   0.6795     C
H        0.809   0.4112     0.77     H
O       0.8103   0.1708   0.6924     O
O       0.8112    0.578   0.2426     O
H       0.8113   0.9192   0.2429     H
C       0.8133   0.7434   0.5793     C
H       0.8189   0.7494   0.7428     H
H        0.827   0.9003    0.956     H
O       0.8326  0.65861   0.4847     O
C       0.8391   0.6829   0.5747     C
O       0.8468   0.9892    0.745     O
C        0.861   0.0752   0.4782     C
O       0.8618   0.6571   0.6587     O
C       0.8661   0.9373   0.7532     C
O       0.8702   0.0724   0.5768     O
C       0.8729   0.4193   0.5697     C
H        0.873   0.1724   0.6711     H
Nd     0.87584  0.08186  0.76884    Nd
H       0.8882   0.1817   0.4116     H
C        0.895   0.5782   0.2855     C
Nd     0.89729  0.56812  0.56045    Nd
O       0.9018  0.46759   0.5449     O
O       0.9136   0.5583   0.3768     O
H       0.9275   0.6826   0.2372     H
O       0.9337  0.37974   0.5697     O
O       0.9445   0.9132   0.7289     O
O       0.9471    0.097   0.3042     O
H       0.9506   0.4146   0.2529     H
C       0.9512    0.166   0.4397     C
H       0.9522   0.3187   0.2166     H
C       0.9524   0.1039   0.4178     C
O       0.9537   0.5394   0.7324     O
H       0.9548   0.1724   0.5162     H
H       0.9556   0.0794   0.1075     H
O        0.957   0.0393   0.9227     O
C       0.9733   0.0476    0.258     C
H       0.9733   0.5823   0.9197     H
C       0.9734   0.0475   0.1454     C
O        0.975   0.6004   0.1156     O
H       0.9818   0.9116    0.444     H
C       0.9848   0.5494   0.9568     C
C       0.9852   0.6039   0.2302     C
C       0.9872   0.5485   0.0685     C
H       0.9901    0.817    0.405     H
C       0.9917   0.6649   0.2566     C
H       0.9961   0.3305   0.3326     H
