data_I
_chemical_name_common  '/home/zhangsd/repos/MofS-CGCNN/ML/data/TSD/clean_cifs/FAVHIW_clean'
_cell_length_a 11.87800
_cell_length_b 12.41900
_cell_length_c 12.48900
_cell_angle_alpha 90.00000
_cell_angle_beta  98.63000
_cell_angle_gamma 90.00000
_space_group_name_H-M_alt      'P 1'


loop_
_space_group_symop_operation_xyz
  'x, y, z' 

loop_
_atom_site_label
_atom_site_fract_x
_atom_site_fract_y
_atom_site_fract_z
_atom_site_type_symbol
H       0.0027   0.9628   0.9297     H
H       0.0076   0.9364   0.2518     H
C       0.0228   0.9532   0.0926     C
C       0.0325   0.4347   0.8182     C
C       0.0354   0.4501   0.0116     C
H       0.1107    0.161   0.7604     H
H       0.1286   0.0367   0.7764     H
C       0.1477   0.4138   0.8357     C
C       0.1477   0.9797   0.1108     C
H       0.1487    0.114   0.8767     H
H       0.1494   0.7687    0.133     H
H       0.1498   0.6445   0.1555     H
C       0.1507   0.4281   0.0281     C
C       0.1555   0.1065   0.8014     C
H       0.1698   0.6874   0.0418     H
C       0.1832   0.7011   0.1184     C
O       0.1981   0.3971   0.7447     O
O       0.1987   0.0041   0.2023     O
O       0.2003   0.4286   0.1334     O
O       0.2007   0.9779   0.0286     O
H       0.2062   0.8441   0.5915     H
C       0.2078   0.4102     0.94     C
H       0.2391   0.8962   0.6895     H
O       0.2469   0.8394   0.6534     O
O       0.2533   0.6115   0.7684     O
O       0.2571   0.2174   0.1214     O
C       0.2787   0.1189   0.7869     C
H       0.2855    0.396    0.951     H
O       0.2876   0.0995   0.6767     O
H        0.302   0.4744   0.5901     H
H       0.3022   0.1932   0.8045     H
H       0.3038   0.3656   0.3181     H
C       0.3099   0.7052   0.1572     C
C       0.3137   0.4285   0.7501     C
C       0.3166   0.4004    0.161     C
H       0.3234   0.0989   0.4844     H
O       0.3237    0.727   0.2706     O
H        0.326   0.3509   0.6063     H
H       0.3264   0.4881   0.2998     H
C       0.3311   0.5436   0.7913     C
C       0.3364   0.2827   0.1338     C
H       0.3422   0.6341   0.1465     H
C       0.3444   0.4214   0.6354     C
C       0.3458   0.4161   0.2814     C
C       0.3565   0.0422   0.8626     C
H       0.3595   0.7236   0.4708     H
Tb     0.36193  0.77053  0.81499    Tb
H       0.3624   0.3796   0.7982     H
H       0.3639   0.4473    0.123     H
C       0.3694   0.7884   0.0939     C
Tb     0.37186  0.05439    0.132    Tb
O       0.3764   0.7628   0.9988     O
O       0.3814   0.9531   0.8282     O
C       0.3864   0.1252   0.5301     C
C       0.3868     0.13   0.6409     C
O       0.3901    0.078   0.9553     O
O       0.4075   0.8732   0.1406     O
O       0.4127    0.102   0.3119     O
C       0.4224   0.6964   0.3323     C
C       0.4224   0.6979   0.4426     C
H       0.4244   0.4344   0.6378     H
H        0.426   0.4048   0.3031     H
O       0.4264   0.5693   0.8444     O
O       0.4381    0.255    0.128     O
O       0.4404   0.7157   0.6647     O
H       0.4791   0.1693   0.7848     H
C       0.4806   0.1658   0.7106     C
C       0.4821   0.1605   0.4883     C
C       0.4849   0.1591   0.3691     C
C       0.5151   0.6591   0.6309     C
C       0.5179   0.6605   0.5117     C
C       0.5194   0.6658   0.2894     C
H       0.5209   0.6693   0.2152     H
O       0.5596   0.2157   0.3353     O
O       0.5619    0.755    0.872     O
O       0.5736   0.0693   0.1556     O
H        0.574   0.9048   0.6969     H
H       0.5756   0.9344   0.3622     H
C       0.5776   0.1964   0.6677     C
C       0.5776   0.1979   0.5574     C
O       0.5873    0.602   0.6881     O
O       0.5925   0.3732   0.8594     O
O       0.6099    0.578   0.0447     O
C       0.6132     0.63   0.3591     C
C       0.6136   0.6252   0.4699     C
O       0.6186   0.4531   0.1718     O
O       0.6236   0.2628   0.0012     O
Tb     0.62814  0.55439    0.868    Tb
C       0.6306   0.2884   0.9061     C
H       0.6361   0.9473    0.877     H
H       0.6376   0.8796   0.2018     H
Tb     0.63807  0.27053  0.18501    Tb
H       0.6405   0.2236   0.5292     H
C       0.6435   0.5422   0.1374     C
C       0.6542   0.9161   0.7186     C
C       0.6556   0.9214   0.3646     C
H       0.6578   0.1341   0.8535     H
C       0.6636   0.7827   0.8662     C
C       0.6689   0.0436   0.2087     C
H       0.6736   0.9881   0.7002     H
H        0.674   0.8509   0.3937     H
O       0.6763    0.227   0.7294     O
H       0.6766   0.5989   0.5156     H
C       0.6834   0.9004    0.839     C
C       0.6863   0.9285   0.2499     C
C       0.6901   0.2052   0.8428     C
H       0.6962   0.8656   0.6819     H
H       0.6978   0.6932   0.1955     H
H        0.698   0.9744   0.4099     H
O       0.7124   0.5995   0.3233     O
H       0.7145    0.896    0.049     H
C       0.7213   0.6189   0.2131     C
O       0.7429   0.7174   0.8786     O
O       0.7467   0.1115   0.2316     O
O       0.7531   0.3394   0.3466     O
H       0.7609   0.3962   0.3105     H
C       0.7922   0.9102     0.06     C
H       0.7938   0.3441   0.4085     H
O       0.7993   0.4779   0.9714     O
O       0.7997   0.9286   0.8666     O
O       0.8013   0.5041   0.7977     O
O       0.8019   0.8971   0.2553     O
C       0.8168   0.2011   0.8816     C
H       0.8302   0.1874   0.9582     H
C       0.8445   0.6065   0.1986     C
C       0.8493   0.9281   0.9719     C
H       0.8502   0.1445   0.8445     H
H       0.8506   0.2687    0.867     H
H       0.8513    0.614   0.1233     H
C       0.8523   0.4797   0.8892     C
C       0.8523   0.9138   0.1643     C
H       0.8714   0.5367   0.2236     H
H       0.8893    0.661   0.2396     H
C       0.9646   0.9501   0.9884     C
C       0.9675   0.9347   0.1818     C
C       0.9772   0.4532   0.9074     C
H       0.9924   0.4364   0.7482     H
H       0.9973   0.4628   0.0703     H
