data_I
_chemical_name_common  '/home/zhangsd/repos/MofS-CGCNN/ML/data/TSD/clean_cifs/FAVHES_clean'
_cell_length_a 11.85500
_cell_length_b 12.41400
_cell_length_c 12.47300
_cell_angle_alpha 90.00000
_cell_angle_beta  99.01000
_cell_angle_gamma 90.00000
_space_group_name_H-M_alt      'P 1'


loop_
_space_group_symop_operation_xyz
  'x, y, z' 

loop_
_atom_site_label
_atom_site_fract_x
_atom_site_fract_y
_atom_site_fract_z
_atom_site_type_symbol
H       0.0004   0.0339   0.0722     H
H       0.0099   0.5634   0.2505     H
C       0.0229   0.5454   0.0915     C
C       0.0311   0.0652   0.8195     C
C       0.0373    0.048   0.0132     C
H       0.1091   0.3461   0.7451     H
H        0.131   0.4672   0.7775     H
H       0.1445   0.3778   0.8674     H
H       0.1456   0.8511   0.1562     H
C       0.1475   0.0878   0.8365     C
H       0.1476   0.7291   0.1243     H
C       0.1487   0.5192   0.1085     C
C       0.1528    0.072    0.029     C
C       0.1545   0.3943   0.7943     C
H       0.1671   0.8179   0.0398     H
C       0.1803   0.7986   0.1152     C
H       0.1954   0.6637   0.5881     H
O       0.1962   0.1057    0.747     O
O       0.2001   0.5209   0.0265     O
O       0.2003   0.4963   0.2006     O
O       0.2033   0.0704   0.1361     O
C       0.2085   0.0912   0.9418     C
H       0.2285   0.6115   0.6864     H
O       0.2364   0.6684   0.6503     O
O       0.2499     0.89    0.767     O
O       0.2585   0.2827   0.1229     O
C       0.2786   0.3816   0.7831     C
H       0.2863   0.1062    0.953     H
O       0.2878   0.4002   0.6729     O
H       0.2948    0.029   0.5901     H
H       0.2986   0.1308    0.321     H
H       0.3017   0.3072   0.8013     H
C       0.3084   0.7947   0.1556     C
C       0.3125   0.0729   0.7503     C
H       0.3195   0.1523   0.6074     H
C       0.3197   0.1001   0.1638     C
O       0.3211   0.7728   0.2673     O
H       0.3269   0.4025   0.4808     H
C       0.3275   0.9572   0.7898     C
C       0.3388   0.0815   0.6352     C
C       0.3391   0.2156   0.1352     C
H       0.3405   0.8661   0.1457     H
H        0.341    0.013   0.3053     H
C       0.3492   0.0872   0.2862     C
H       0.3549   0.7783   0.4686     H
C       0.3562   0.4579   0.8588     C
Tb     0.35831  0.72965  0.81307    Tb
H       0.3633   0.1205   0.7986     H
H       0.3677   0.0525   0.1274     H
C       0.3683   0.7124   0.0921     C
O       0.3736   0.7376   0.9966     O
Tb     0.37362   0.4454  0.13027    Tb
O       0.3798   0.5471   0.8266     O
C       0.3881   0.3699   0.6392     C
C       0.3892   0.3754   0.5275     C
O       0.3898   0.4212   0.9539     O
O       0.4082   0.6271    0.139     O
O       0.4173   0.3987   0.3107     O
H       0.4187   0.0686   0.6354     H
C       0.4189   0.8027   0.4413     C
C       0.4203   0.8029   0.3308     C
O       0.4236   0.9313   0.8449     O
H       0.4266   0.1098   0.3096     H
O       0.4354   0.7846   0.6637     O
O       0.4406   0.2458   0.1282     O
H       0.4798   0.3301   0.7838     H
C        0.482   0.3337   0.7096     C
C       0.4851   0.3395    0.488     C
C       0.4888   0.3416    0.369     C
C       0.5112   0.8416    0.631     C
C       0.5149   0.8395    0.512     C
C        0.518   0.8337   0.2904     C
H       0.5202   0.8301   0.2162     H
O       0.5594   0.7458   0.8718     O
O       0.5646   0.2846   0.3363     O
H       0.5734   0.6098   0.6904     H
O       0.5764   0.4313   0.1551     O
C       0.5797   0.3029   0.6692     C
C       0.5811   0.3027   0.5587     C
H       0.5813   0.5686   0.3646     H
O       0.5827   0.8987   0.6893     O
O       0.5918   0.1271    0.861     O
O       0.6102   0.9212   0.0461     O
C       0.6108   0.8754   0.4725     C
C       0.6119   0.8699   0.3608     C
O       0.6202   0.0471   0.1734     O
Tb     0.62638   0.9454  0.86973    Tb
O       0.6264   0.2376   0.0034     O
C       0.6317   0.2124   0.9079     C
H       0.6323   0.5525   0.8726     H
H       0.6367   0.6205   0.2014     H
Tb     0.64169  0.22965  0.18693    Tb
C       0.6438   0.9579   0.1412     C
H       0.6451   0.2783   0.5314     H
C       0.6508   0.5872   0.7138     C
H        0.659    0.513   0.6947     H
H       0.6595   0.3661   0.8543     H
C       0.6609   0.7156   0.8648     C
C       0.6612   0.5815   0.3648     C
C       0.6725   0.4572   0.2102     C
H       0.6731   0.9025   0.5192     H
O       0.6789   0.2728   0.7327     O
C       0.6803   0.6001   0.8362     C
H       0.6805   0.6523   0.3926     H
C       0.6875   0.5729   0.2497     C
C       0.6916   0.2947   0.8444     C
H       0.6983   0.8072   0.1987     H
H       0.7014   0.6308    0.679     H
H       0.7052    0.529   0.4099     H
O       0.7122   0.9002   0.3271     O
H       0.7137   0.6062    0.047     H
C       0.7214   0.8816   0.2169     C
O       0.7415   0.7827   0.8771     O
O       0.7501     0.39    0.233     O
O       0.7636   0.1684   0.3497     O
H       0.7715   0.1115   0.3136     H
C       0.7915   0.5912   0.0582     C
O       0.7967   0.5704   0.8639     O
O       0.7997   0.9963   0.7994     O
O       0.7999   0.0209   0.9735     O
O       0.8038   0.6057    0.253     O
H       0.8046   0.1637   0.4119     H
C       0.8197   0.2986   0.8848     C
H       0.8329   0.3179   0.9602     H
C       0.8455   0.8943   0.2057     C
C       0.8472    0.572    0.971     C
C       0.8513   0.0192   0.8915     C
H       0.8524   0.2291   0.8757     H
C       0.8525   0.5878   0.1635     C
H       0.8544   0.3511   0.8438     H
H       0.8555   0.8778   0.1326     H
H        0.869   0.9672   0.2225     H
H       0.8909   0.8461   0.2549     H
C       0.9627    0.548   0.9868     C
C       0.9689   0.5652   0.1805     C
C       0.9771   0.0454   0.9085     C
H       0.9901   0.0634   0.7495     H
H       0.9996   0.5339   0.9278     H
