data_I
_chemical_name_common  '/home/zhangsd/repos/MofS-CGCNN/ML/data/TSD/clean_cifs/FAVHAO_clean'
_cell_length_a 11.93100
_cell_length_b 12.48500
_cell_length_c 12.54900
_cell_angle_alpha 90.00000
_cell_angle_beta  98.63000
_cell_angle_gamma 90.00000
_space_group_name_H-M_alt      'P 1'


loop_
_space_group_symop_operation_xyz
  'x, y, z' 

loop_
_atom_site_label
_atom_site_fract_x
_atom_site_fract_y
_atom_site_fract_z
_atom_site_type_symbol
H        0.001   0.9651   0.9296     H
H       0.0063   0.9373   0.2491     H
C       0.0215   0.9529   0.0908     C
C       0.0335   0.4344   0.8205     C
C       0.0365   0.4508   0.0121     C
H       0.1107   0.1584   0.7545     H
H       0.1304   0.0361   0.7787     H
C       0.1455   0.9788   0.1089     C
H       0.1473   0.1193   0.8733     H
C        0.148   0.4116   0.8378     C
H       0.1482   0.7686   0.1324     H
H       0.1486   0.6454   0.1564     H
C       0.1516   0.4272   0.0287     C
C       0.1556   0.1072   0.7994     C
H       0.1675   0.6865   0.0424     H
C       0.1815   0.7011   0.1184     C
O       0.1965   0.0024   0.2012     O
O        0.198   0.3951   0.7476     O
O       0.1985   0.9774   0.0275     O
O       0.2012   0.4288   0.1343     O
H       0.2042   0.8437   0.5894     H
C       0.2093   0.4092   0.9424     C
H       0.2372   0.8959   0.6876     H
O        0.245   0.8389   0.6515     O
O       0.2507   0.6089    0.768     O
O       0.2573   0.2181    0.123     O
C       0.2791   0.1195    0.786     C
H       0.2869   0.3958   0.9536     H
O       0.2881   0.0999   0.6764     O
H       0.2999   0.4724   0.5924     H
H       0.3023   0.1935   0.8033     H
H       0.3072   0.3638   0.3196     H
C       0.3097   0.7053   0.1565     C
C       0.3128   0.4277   0.7518     C
C       0.3169   0.4002   0.1622     C
H       0.3225   0.3494    0.609     H
H       0.3226   0.4868   0.3014     H
O       0.3233   0.7266   0.2688     O
H       0.3249   0.0987   0.4853     H
C       0.3287   0.5423   0.7909     C
C       0.3369   0.2841   0.1354     C
H       0.3417   0.6345   0.1458     H
C       0.3419   0.4195   0.6374     C
C       0.3459   0.4165   0.2829     C
C       0.3566   0.0441   0.8612     C
H       0.3574    0.721   0.4688     H
Eu     0.36023  0.77079  0.81338    Eu
H       0.3624   0.3802      0.8     H
H       0.3642   0.4468   0.1245     H
C       0.3691    0.787   0.0956     C
Eu      0.3722  0.05415  0.13224    Eu
O       0.3744   0.7626   0.9989     O
O       0.3813   0.9546   0.8275     O
C       0.3873   0.1299   0.6411     C
C       0.3874    0.125    0.531     C
O       0.3895     0.08   0.9547     O
O       0.4069   0.8711   0.1402     O
O       0.4144   0.1024   0.3136     O
C       0.4209   0.6966   0.4413     C
H       0.4217   0.4316    0.639     H
C       0.4224   0.6954   0.3312     C
O       0.4247   0.5694   0.8445     O
H       0.4262   0.4091   0.3042     H
O       0.4377   0.7136   0.6628     O
O       0.4379   0.2548   0.1298     O
H       0.4793   0.1714   0.7838     H
C       0.4813   0.1664   0.7102     C
C       0.4842   0.1608   0.4899     C
C        0.486   0.1587   0.3717     C
C        0.514   0.6587   0.6283     C
C       0.5158   0.6608   0.5101     C
C       0.5187   0.6664   0.2898     C
H       0.5207   0.6714   0.2162     H
O       0.5621   0.7548   0.8702     O
O       0.5623   0.2136   0.3372     O
H       0.5738   0.9091   0.6958     H
O       0.5753   0.0694   0.1555     O
C       0.5776   0.1954   0.6688     C
H       0.5783   0.9316    0.361     H
C       0.5791   0.1966   0.5587     C
O       0.5856   0.6024   0.6864     O
O       0.5931   0.3711   0.8598     O
O       0.6105     0.58   0.0453     O
C       0.6126    0.625    0.469     C
C       0.6127   0.6299   0.3589     C
O       0.6187   0.4546   0.1725     O
O       0.6256   0.2626   0.0011     O
Eu      0.6278  0.55415  0.86776    Eu
C       0.6309    0.287   0.9044     C
H       0.6358   0.9468   0.8755     H
H       0.6376   0.8802      0.2     H
Eu     0.63977  0.27079  0.18662    Eu
H       0.6426    0.221   0.5312     H
C       0.6434   0.5441   0.1388     C
C       0.6541   0.9165   0.7171     C
C       0.6581   0.9195   0.3626     C
H       0.6583   0.1345   0.8542     H
C       0.6631   0.7841   0.8646     C
C       0.6713   0.0423   0.2091     C
H       0.6751   0.5987   0.5147     H
O       0.6767   0.2266   0.7312     O
H       0.6774   0.9868   0.6986     H
H       0.6775   0.8494    0.391     H
C       0.6831   0.9002   0.8378     C
C       0.6872   0.9277   0.2482     C
C       0.6903   0.2053   0.8435     C
H       0.6928   0.8638   0.6804     H
H       0.6977   0.6935   0.1967     H
H       0.7001   0.9724   0.4076     H
O       0.7119   0.5999   0.3236     O
H       0.7131   0.8958   0.0464     H
C       0.7209   0.6195    0.214     C
O       0.7427   0.7181    0.877     O
O       0.7493   0.1089    0.232     O
O        0.755   0.3389   0.3485     O
H       0.7628   0.3959   0.3124     H
C       0.7907   0.9092   0.0576     C
H       0.7958   0.3437   0.4106     H
O       0.7988   0.9288   0.8657     O
O       0.8015   0.4774   0.9725     O
O        0.802   0.8951   0.2524     O
O       0.8035   0.5024   0.7988     O
C       0.8185   0.2011   0.8816     C
H       0.8325   0.1865   0.9576     H
C       0.8444   0.6072   0.2006     C
C       0.8484   0.9272   0.9713     C
H       0.8514   0.1454   0.8436     H
H       0.8518   0.2686   0.8676     H
C        0.852   0.9116   0.1622     C
H       0.8527   0.6193   0.1267     H
C       0.8545   0.4788   0.8911     C
H       0.8696   0.5361   0.2213     H
H       0.8893   0.6584   0.2455     H
C       0.9635   0.9508   0.9879     C
C       0.9665   0.9344   0.1795     C
C       0.9785   0.4529   0.9092     C
H       0.9937   0.4373   0.7509     H
H        0.999   0.4651   0.0704     H
