data_I
_chemical_name_common  '/home/zhangsd/repos/MofS-CGCNN/ML/data/TSD/clean_cifs/FEFVES_clean'
_cell_length_a 14.78570
_cell_length_b 16.52840
_cell_length_c 10.23020
_cell_angle_alpha 90.00000
_cell_angle_beta  119.10400
_cell_angle_gamma 90.00000
_space_group_name_H-M_alt      'P 1'


loop_
_space_group_symop_operation_xyz
  'x, y, z' 

loop_
_atom_site_label
_atom_site_fract_x
_atom_site_fract_y
_atom_site_fract_z
_atom_site_type_symbol
N       0.0134   0.1608   0.7394     N
N       0.0134   0.8392   0.2394     N
H         0.03    0.475    0.167     H
H         0.03    0.525    0.667     H
O       0.0347   0.0017   0.3656     O
O       0.0347   0.9983   0.8656     O
C       0.0428   0.3022   0.7725     C
C       0.0428   0.6978   0.2725     C
Zn     0.04693  0.04566  0.68315    Zn
Zn     0.04693  0.95434  0.18315    Zn
C       0.0531    0.229   0.7183     C
C       0.0531    0.771   0.2183     C
H        0.054    0.468    0.573     H
H        0.054    0.532    0.073     H
H        0.062    0.348     0.76     H
H        0.062    0.652     0.26     H
C       0.0812   0.0661   0.4235     C
C       0.0812   0.9339   0.9235     C
C       0.0905   0.4785   0.1492     C
C       0.0905   0.5215   0.6492     C
C       0.0922   0.4045   0.0604     C
C       0.0922   0.5955   0.5604     C
O       0.0963   0.0949    0.545     O
O       0.0963   0.9051    0.045     O
H        0.105    0.227    0.678     H
H        0.105    0.773    0.178     H
H        0.112    0.353    0.133     H
H        0.112    0.647    0.633     H
N       0.1154   0.0752   0.2166     N
N       0.1154   0.9248   0.7166     N
C       0.1235   0.1124   0.3377     C
C       0.1235   0.8876   0.8377     C
H         0.14    0.412    0.046     H
H         0.14    0.588    0.546     H
H        0.149    0.091    0.059     H
H        0.149    0.909    0.559     H
C       0.1537   0.1137   0.1406     C
C       0.1537   0.8863   0.6406     C
H         0.16    0.219     0.47     H
H         0.16    0.781     0.97     H
C       0.1682   0.1883   0.3806     C
C       0.1682   0.8117   0.8806     C
C        0.196   0.4942   0.2793     C
C        0.196   0.5058   0.7793     C
C        0.198    0.189   0.1849     C
C        0.198    0.811   0.6849     C
N        0.206   0.2273   0.3035     N
N        0.206   0.7727   0.8035     N
H         0.21    0.389    0.412     H
H         0.21    0.611    0.912     H
H        0.213    0.219    0.125     H
H        0.213    0.781    0.625     H
H        0.221    0.401    0.724     H
H        0.221    0.599    0.224     H
C       0.2438   0.4395   0.3969     C
C       0.2438   0.5605   0.8969     C
C       0.2502   0.4348   0.7881     C
C       0.2502   0.5652   0.2881     C
C       0.3415    0.455    0.512     C
C       0.3415    0.545    0.012     C
C       0.3469   0.4237   0.9089     C
C       0.3469   0.5763   0.4089     C
H        0.366    0.421    0.585     H
H        0.366    0.579    0.085     H
H        0.384    0.377    0.908     H
H        0.384    0.623    0.408     H
N       0.3942   0.4775   0.0187     N
N       0.3942   0.5225   0.5187     N
H        0.403    0.266    0.425     H
H        0.403    0.734    0.925     H
H         0.43    0.382     0.32     H
H         0.43    0.618     0.82     H
H        0.432    0.114    0.453     H
H        0.432    0.886    0.953     H
C       0.4472   0.2611   0.3689     C
C       0.4472   0.7389   0.8689     C
H        0.458    0.075     0.36     H
H        0.458    0.925     0.86     H
C       0.4591   0.3331   0.3098     C
C       0.4591   0.6669   0.8098     C
C       0.4868   0.1131   0.4255     C
C       0.4868   0.8869   0.9255     C
C       0.4907   0.1912   0.3518     C
C       0.4907   0.8088   0.8518     C
N       0.5134   0.3392   0.2394     N
N       0.5134   0.6608   0.7394     N
H         0.53    0.025    0.667     H
H         0.53    0.975    0.167     H
O       0.5347   0.4983   0.8656     O
O       0.5347   0.5017   0.3656     O
C       0.5428   0.1978   0.2725     C
C       0.5428   0.8022   0.7725     C
Zn     0.54693  0.45434  0.18315    Zn
Zn     0.54693  0.54566  0.68315    Zn
C       0.5531    0.271   0.2183     C
C       0.5531    0.729   0.7183     C
H        0.554    0.032    0.073     H
H        0.554    0.968    0.573     H
H        0.562    0.152     0.26     H
H        0.562    0.848     0.76     H
C       0.5812   0.4339   0.9235     C
C       0.5812   0.5661   0.4235     C
C       0.5905   0.0215   0.6492     C
C       0.5905   0.9785   0.1492     C
C       0.5922   0.0955   0.5604     C
C       0.5922   0.9045   0.0604     C
O       0.5963   0.4051    0.045     O
O       0.5963   0.5949    0.545     O
H        0.605    0.273    0.178     H
H        0.605    0.727    0.678     H
H        0.612    0.147    0.633     H
H        0.612    0.853    0.133     H
N       0.6154   0.4248   0.7166     N
N       0.6154   0.5752   0.2166     N
C       0.6235   0.3876   0.8377     C
C       0.6235   0.6124   0.3377     C
H         0.64    0.088    0.546     H
H         0.64    0.912    0.046     H
H        0.649    0.409    0.559     H
H        0.649    0.591    0.059     H
C       0.6537   0.3863   0.6406     C
C       0.6537   0.6137   0.1406     C
H         0.66    0.281     0.97     H
H         0.66    0.719     0.47     H
C       0.6682   0.3117   0.8806     C
C       0.6682   0.6883   0.3806     C
C        0.696   0.0058   0.7793     C
C        0.696   0.9942   0.2793     C
C        0.698    0.311   0.6849     C
C        0.698    0.689   0.1849     C
N        0.706   0.2727   0.8035     N
N        0.706   0.7273   0.3035     N
H         0.71    0.111    0.912     H
H         0.71    0.889    0.412     H
H        0.713    0.281    0.625     H
H        0.713    0.719    0.125     H
H        0.721    0.099    0.224     H
H        0.721    0.901    0.724     H
C       0.7438   0.0605   0.8969     C
C       0.7438   0.9395   0.3969     C
C       0.7502   0.0652   0.2881     C
C       0.7502   0.9348   0.7881     C
C       0.8415    0.045    0.012     C
C       0.8415    0.955    0.512     C
C       0.8469   0.0763   0.4089     C
C       0.8469   0.9237   0.9089     C
H        0.866    0.079    0.085     H
H        0.866    0.921    0.585     H
H        0.884    0.123    0.408     H
H        0.884    0.877    0.908     H
N       0.8942   0.0225   0.5187     N
N       0.8942   0.9775   0.0187     N
H        0.903    0.234    0.925     H
H        0.903    0.766    0.425     H
H         0.93    0.118     0.82     H
H         0.93    0.882     0.32     H
H        0.932    0.386    0.953     H
H        0.932    0.614    0.453     H
C       0.9472   0.2389   0.8689     C
C       0.9472   0.7611   0.3689     C
H        0.958    0.425     0.86     H
H        0.958    0.575     0.36     H
C       0.9591   0.1669   0.8098     C
C       0.9591   0.8331   0.3098     C
C       0.9868   0.3869   0.9255     C
C       0.9868   0.6131   0.4255     C
C       0.9907   0.3088   0.8518     C
C       0.9907   0.6912   0.3518     C
