data_I
_chemical_name_common  '/home/zhangsd/repos/MofS-CGCNN/ML/data/TSD/clean_cifs/FERHAN_clean'
_cell_length_a 17.10310
_cell_length_b 17.10310
_cell_length_c 17.10310
_cell_angle_alpha 87.66670
_cell_angle_beta  87.66670
_cell_angle_gamma 87.66670
_space_group_name_H-M_alt      'P 1'


loop_
_space_group_symop_operation_xyz
  'x, y, z' 

loop_
_atom_site_label
_atom_site_fract_x
_atom_site_fract_y
_atom_site_fract_z
_atom_site_type_symbol
H       0.0007   0.4277   0.9491     H
O       0.0036   0.1489   0.2332     O
O       0.0053   0.2349   0.1314     O
H       0.0099   0.9857   0.6572     H
H       0.0143   0.3428   0.9901     H
H       0.0161   0.9401    0.397     H
C        0.026    0.618    0.028     C
H       0.0278   0.7983   0.3397     H
C        0.028    0.026    0.618     C
C       0.0284   0.8108   0.8195     C
H        0.037   0.7186   0.3913     H
H       0.0509   0.9993   0.5723     H
H       0.0599    0.603   0.9839     H
C       0.0648   0.7567   0.3575     C
O        0.071    0.652    0.087     O
H       0.0762   0.2484   0.7419     H
H       0.0838   0.2505   0.8774     H
H        0.086   0.4967   0.0914     H
O        0.087    0.071    0.652     O
H       0.0914    0.086   0.4967     H
O       0.1007   0.7178   0.2897     O
H       0.1057   0.7796    0.387     H
C       0.1152   0.8169    0.819     C
Zn     0.11572  0.24626  0.11575    Zn
Zn     0.11575  0.11572  0.24626    Zn
H       0.1159   0.8658   0.2822     H
C       0.1176   0.2201   0.7672     C
O        0.119   0.1281   0.3589     O
C       0.1211   0.1234   0.5208     C
C       0.1222   0.2216   0.8475     C
H       0.1226   0.9162   0.7495     H
C       0.1228   0.6012   0.1244     C
C       0.1234   0.5208   0.1211     C
C       0.1244   0.1228   0.6012     C
O       0.1281   0.3589    0.119     O
O       0.1314   0.0053   0.2349     O
H       0.1342   0.7178   0.8841     H
C       0.1405   0.7601   0.2346     C
C       0.1422   0.8409   0.2394     C
O       0.1489   0.2332   0.0036     O
C       0.1525   0.8778   0.7784     C
C       0.1571   0.1795   0.3876     C
C       0.1591   0.7606   0.8578     C
C       0.1608   0.1786   0.4751     C
C       0.1678   0.1778   0.6363     C
C       0.1726   0.1782   0.7235     C
C       0.1778   0.6363   0.1678     C
C       0.1782   0.7235   0.1726     C
C       0.1786   0.4751   0.1608     C
C       0.1795   0.3876   0.1571     C
C       0.1805   0.9716   0.1892     C
C        0.181   0.8848   0.1831     C
O       0.1819   0.1819   0.1819     O
C       0.1831    0.181   0.8848     C
C       0.1892   0.1805   0.9716     C
O       0.1894   0.2307   0.3479     O
H       0.2017   0.6603   0.9722     H
C       0.2031   0.2325   0.5097     C
C       0.2072   0.2314   0.5901     C
C       0.2201   0.7672   0.1176     C
H       0.2204    0.613   0.8943     H
C       0.2216   0.8475   0.1222     C
H       0.2298    0.271   0.4784     H
O       0.2307   0.3479   0.1894     O
C       0.2314   0.5901   0.2072     C
C       0.2325   0.5097   0.2031     C
C       0.2328   0.8824   0.7799     C
O       0.2332   0.0036   0.1489     O
C       0.2346   0.1405   0.7601     C
O       0.2349   0.1314   0.0053     O
H       0.2379   0.2683   0.6137     H
C       0.2394   0.1422   0.8409     C
C       0.2399   0.7654   0.8595     C
C       0.2433   0.6425   0.9352     C
Zn     0.24626  0.11575  0.11572    Zn
Zn     0.24653  0.24653  0.24653    Zn
H       0.2484   0.7419   0.0762     H
H       0.2505   0.8774   0.0838     H
H       0.2581   0.9238   0.7516     H
H       0.2683   0.6137   0.2379     H
H        0.271   0.4784   0.2298     H
C       0.2765   0.8274   0.8218     C
H       0.2814   0.6087    0.963     H
H       0.2822   0.1159   0.8658     H
O       0.2822   0.7103   0.8993     O
O       0.2897   0.1007   0.7178     O
H       0.3397   0.0278   0.7983     H
H       0.3428   0.9901   0.0143     H
O       0.3479   0.1894   0.2307     O
O        0.348    0.913    0.929     O
C       0.3575   0.0648   0.7567     C
O       0.3589    0.119   0.1281     O
C       0.3637   0.8322   0.8222     C
C        0.382    0.972    0.974     C
H       0.3863   0.7621   0.7317     H
H        0.387   0.1057   0.7796     H
C       0.3876   0.1571   0.1795     C
H       0.3913    0.037   0.7186     H
H        0.397   0.0161   0.9401     H
C       0.3988   0.8756   0.8772     C
C       0.4099   0.7928   0.7686     C
H       0.4277   0.9491   0.0007     H
C       0.4751   0.1608   0.1786     C
H       0.4784   0.2298    0.271     H
C       0.4792   0.8789   0.8766     C
C       0.4903   0.7969   0.7675     C
H       0.4967   0.0914    0.086     H
H       0.5033   0.9086    0.914     H
C       0.5097   0.2031   0.2325     C
C       0.5208   0.1211   0.1234     C
H       0.5216   0.7702    0.729     H
C       0.5249   0.8392   0.8214     C
H       0.5723   0.0509   0.9993     H
C       0.5901   0.2072   0.2314     C
C       0.6012   0.1244   0.1228     C
H        0.603   0.9839   0.0599     H
H       0.6087    0.963   0.2814     H
C       0.6124   0.8429   0.8205     C
H        0.613   0.8943   0.2204     H
H       0.6137   0.2379   0.2683     H
C        0.618    0.028    0.026     C
C       0.6363   0.1678   0.1778     C
O       0.6411    0.881   0.8719     O
C       0.6425   0.9352   0.2433     C
O        0.652    0.087    0.071     O
O       0.6521   0.8106   0.7693     O
H       0.6572   0.0099   0.9857     H
H       0.6603   0.9722   0.2017     H
O       0.7103   0.8993   0.2822     O
O       0.7178   0.2897   0.1007     O
H       0.7178   0.8841   0.1342     H
H       0.7186   0.3913    0.037     H
C       0.7235   0.1726   0.1782     C
H        0.729   0.5216   0.7702     H
H       0.7317   0.3863   0.7621     H
H       0.7419   0.0762   0.2484     H
H       0.7495   0.1226   0.9162     H
H       0.7516   0.2581   0.9238     H
Zn     0.75347  0.75347  0.75347    Zn
Zn     0.75374  0.88425  0.88428    Zn
C       0.7567   0.3575   0.0648     C
C       0.7601   0.2346   0.1405     C
C       0.7606   0.8578   0.1591     C
H       0.7621   0.7317   0.3863     H
O       0.7651   0.8686   0.9947     O
C       0.7654   0.8595   0.2399     C
O       0.7668   0.9964   0.8511     O
C       0.7672   0.1176   0.2201     C
C       0.7675   0.4903   0.7969     C
C       0.7686   0.4099   0.7928     C
O       0.7693   0.6521   0.8106     O
H       0.7702    0.729   0.5216     H
C       0.7784   0.1525   0.8778     C
H       0.7796    0.387   0.1057     H
C       0.7799   0.2328   0.8824     C
C       0.7928   0.7686   0.4099     C
C       0.7969   0.7675   0.4903     C
H       0.7983   0.3397   0.0278     H
O       0.8106   0.7693   0.6521     O
C       0.8108   0.8195   0.0284     C
C       0.8169    0.819   0.1152     C
O       0.8181   0.8181   0.8181     O
C        0.819   0.1152   0.8169     C
C       0.8195   0.0284   0.8108     C
C       0.8205   0.6124   0.8429     C
C       0.8214   0.5249   0.8392     C
C       0.8218   0.2765   0.8274     C
C       0.8222   0.3637   0.8322     C
C       0.8274   0.8218   0.2765     C
C       0.8322   0.8222   0.3637     C
C       0.8392   0.8214   0.5249     C
C       0.8409   0.2394   0.1422     C
C       0.8429   0.8205   0.6124     C
C       0.8475   0.1222   0.2216     C
O       0.8511   0.7668   0.9964     O
C       0.8578   0.1591   0.7606     C
C       0.8595   0.2399   0.7654     C
H       0.8658   0.2822   0.1159     H
O       0.8686   0.9947   0.7651     O
O       0.8719   0.6411    0.881     O
C       0.8756   0.8772   0.3988     C
C       0.8766   0.4792   0.8789     C
C       0.8772   0.3988   0.8756     C
H       0.8774   0.0838   0.2505     H
C       0.8778   0.7784   0.1525     C
C       0.8789   0.8766   0.4792     C
O        0.881   0.8719   0.6411     O
C       0.8824   0.7799   0.2328     C
H       0.8841   0.1342   0.7178     H
Zn     0.88425  0.88428  0.75374    Zn
Zn     0.88428  0.75374  0.88425    Zn
C       0.8848   0.1831    0.181     C
H       0.8943   0.2204    0.613     H
O       0.8993   0.2822   0.7103     O
H       0.9086    0.914   0.5033     H
O        0.913    0.929    0.348     O
H        0.914   0.5033   0.9086     H
H       0.9162   0.7495   0.1226     H
H       0.9238   0.7516   0.2581     H
O        0.929    0.348    0.913     O
C       0.9352   0.2433   0.6425     C
H       0.9401    0.397   0.0161     H
H       0.9491   0.0007   0.4277     H
H        0.963   0.2814   0.6087     H
C       0.9716   0.1892   0.1805     C
C        0.972    0.974    0.382     C
H       0.9722   0.2017   0.6603     H
C        0.974    0.382    0.972     C
H       0.9839   0.0599    0.603     H
H       0.9857   0.6572   0.0099     H
H       0.9901   0.0143   0.3428     H
O       0.9947   0.7651   0.8686     O
O       0.9964   0.8511   0.7668     O
H       0.9993   0.5723   0.0509     H
