data_I
_chemical_name_common  '/home/zhangsd/repos/MofS-CGCNN/ML/data/TSD/clean_cifs/FEXCES_clean'
_cell_length_a 11.05000
_cell_length_b 11.05000
_cell_length_c 27.77200
_cell_angle_alpha 90.00000
_cell_angle_beta  90.00000
_cell_angle_gamma 120.00000
_space_group_name_H-M_alt      'P 1'


loop_
_space_group_symop_operation_xyz
  'x, y, z' 

loop_
_atom_site_label
_atom_site_fract_x
_atom_site_fract_y
_atom_site_fract_z
_atom_site_type_symbol
H       0.0028   0.2981  0.49363     H
O       0.0254   0.2461  0.25814     O
H       0.0568   0.5576  0.99927     H
Co     0.07699  0.83077  0.97075    Co
C       0.0897   0.3787  0.49083     C
O       0.0928   0.3746  0.03984     O
H       0.0964   0.4485  0.55853     H
O       0.0964   0.7739   0.6616     O
C       0.0973   0.3172  0.40381     C
C       0.1245   0.5834  0.97545     C
C       0.1468   0.4675  0.53002     C
N       0.1503   0.6878  0.94689     N
H       0.1573   0.6635  0.59353     H
C       0.1633   0.4102  0.44618     C
O       0.1679   0.3492  0.36595     O
C        0.168   0.3923  0.00489     C
Co     0.16923  0.24622  0.30408    Co
O       0.1813   0.8321  0.03262     O
H       0.1933   0.6476   0.0836     H
C       0.1974    0.509  0.97091     C
H       0.2068   0.4604   0.2231     H
C       0.2199   0.9027  0.07048     C
O       0.2207   0.9746  0.92481     O
C       0.2243    0.832  0.67155     C
O       0.2261   0.3225  0.99494     O
C       0.2274   0.7003  0.11163     C
C         0.24   0.7207  0.91023     C
H        0.246   0.5529   0.1493     H
O       0.2461   0.0254  0.07519     O
Co     0.24622  0.16923  0.02925    Co
C       0.2469   0.8367  0.11285     C
C       0.2532   0.7094  0.59859     C
H       0.2536   0.7932  0.88977     H
C       0.2577   0.6421  0.15122     C
C       0.2793   0.5193  0.24356     C
C       0.2818   0.5871  0.52663     C
O       0.2818   0.9072   0.7065     O
C        0.289   0.9103   0.1575     C
C       0.2906   0.5438  0.93193     C
H       0.2953   0.9972   0.1603     H
H       0.2981   0.0028   0.8397     H
C       0.2997   0.5271  0.44496     C
C       0.3053   0.7182   0.1933     C
H       0.3069    0.754  0.81597     H
C       0.3116   0.8026  0.63757     C
N       0.3122   0.4625  0.28022     N
C       0.3142   0.6512  0.90128     C
C       0.3172   0.0973  0.92952     C
C       0.3207   0.8532  0.19669     C
O       0.3225   0.2261   0.3384     O
H       0.3365   0.4938  0.92687     H
C        0.337   0.6858  0.56794     C
C       0.3488    0.663  0.23461     C
O       0.3492   0.1679  0.96738     O
H       0.3521   0.9036   0.2252     H
H       0.3524   0.5457  0.41693     H
C       0.3579   0.6156  0.48455     C
O       0.3746   0.0928   0.2935     O
C       0.3787   0.0897   0.8425     C
C       0.3844   0.7423  0.81789     C
C       0.3923    0.168  0.32845     C
C       0.4102   0.1633  0.88715     C
C       0.4129   0.6947  0.85997     C
C       0.4166   0.5411  0.30878     C
H       0.4424   0.4992   0.3326     H
H       0.4471   0.6931  0.48263     H
H       0.4485   0.0964   0.7748     H
H       0.4543   0.8067  0.75027     H
C       0.4562   0.7468  0.26526     C
C       0.4589   0.8755  0.64211     C
H       0.4604   0.2068  0.11023     H
N       0.4625   0.3122  0.05311     N
C       0.4675   0.1468  0.80331     C
C       0.4729   0.7726   0.7783     C
C       0.4807     0.76  0.57689     C
C        0.491   0.6884  0.30424     C
H       0.4938   0.3365  0.40647     H
H       0.4992   0.4424  0.00073     H
H       0.5008   0.9432  0.66593     H
H       0.5062   0.8427   0.2602     H
C        0.509   0.1974  0.36243     C
C       0.5193   0.2793  0.08977     C
C       0.5271   0.2997  0.88837     C
C       0.5325   0.6793  0.86336     C
N       0.5375   0.8497  0.61355     N
H       0.5396   0.7464  0.55643     H
C       0.5411   0.4166  0.02455     C
C       0.5438   0.2906  0.40141     C
H       0.5457   0.3524   0.9164     H
H       0.5515   0.6479  0.89187     H
H       0.5529    0.246  0.18403     H
H       0.5576   0.0568  0.33407     H
C       0.5834   0.1245  0.35789     C
C       0.5871   0.2818   0.8067     C
C       0.5898   0.7531  0.77952     C
C       0.6077   0.7757  0.33822     C
C       0.6156   0.3579  0.84878     C
C       0.6213    0.711  0.82417     C
O       0.6254   0.7182  0.37317     O
C       0.6421   0.2577  0.18211     C
H       0.6476   0.1933  0.24973     H
H       0.6479   0.5515  0.44147     H
O       0.6508   0.8187  0.69929     O
C       0.6512   0.3142  0.43206     C
C        0.663   0.3488  0.09872     C
H       0.6635   0.1573   0.7398     H
O       0.6775   0.9036  0.32827     O
C       0.6793   0.5325  0.46998     C
C       0.6828   0.7801  0.73715     C
C       0.6858    0.337  0.76539     C
N       0.6878   0.1503  0.38645     N
C       0.6884    0.491  0.02909     C
H       0.6931   0.4471   0.8507     H
C       0.6947   0.4129  0.47337     C
C       0.7003   0.2274   0.2217     C
H       0.7019   0.7047  0.82697     H
H       0.7047   0.7019  0.50637     H
C       0.7094   0.2532  0.73474     C
C        0.711   0.6213  0.50917     C
C       0.7182   0.3053  0.14003     C
O       0.7182   0.6254  0.96016     O
C       0.7207     0.24  0.42311     C
C       0.7423   0.3844  0.51545     C
H       0.7464   0.5396   0.7769     H
C       0.7468   0.4562  0.06807     C
C       0.7531   0.5898  0.55382     C
Co     0.75378  0.92301  0.63742    Co
O       0.7539   0.7793  0.59148     O
H        0.754   0.3069  0.51737     H
C         0.76   0.4807  0.75644     C
C       0.7726   0.4729  0.55504     C
O       0.7739   0.0964  0.67173     O
C       0.7757   0.6077  0.99511     C
O       0.7793   0.7539  0.74186     O
C       0.7801   0.6828  0.59619     C
H       0.7932   0.2536  0.44357     H
C       0.8026   0.3116  0.69576     C
H       0.8067   0.4543  0.58307     H
O       0.8187   0.6508  0.63405     O
Co     0.83077  0.07699  0.36258    Co
C        0.832   0.2243  0.66178     C
O       0.8321   0.1813  0.30071     O
C       0.8367   0.2469  0.22048     C
H       0.8427   0.5062  0.07313     H
N       0.8497   0.5375  0.71978     N
C       0.8532   0.3207  0.13664     C
C       0.8755   0.4589  0.69122     C
C       0.9027   0.2199  0.26285     C
H       0.9036   0.3521  0.10813     H
O       0.9036   0.6775  0.00506     O
O       0.9072   0.2818  0.62683     O
C       0.9103    0.289  0.17583     C
Co     0.92301  0.75378  0.69592    Co
H       0.9432   0.5008   0.6674     H
O       0.9746   0.2207  0.40852     O
H       0.9972   0.2953  0.17303     H
