data_I
_chemical_name_common  '/home/zhangsd/repos/MofS-CGCNN/ML/data/TSD/clean_cifs/FEZQEI_clean'
_cell_length_a 15.97420
_cell_length_b 15.97420
_cell_length_c 19.43830
_cell_angle_alpha 90.00000
_cell_angle_beta  90.00000
_cell_angle_gamma 120.00000
_space_group_name_H-M_alt      'P 1'


loop_
_space_group_symop_operation_xyz
  'x, y, z' 

loop_
_atom_site_label
_atom_site_fract_x
_atom_site_fract_y
_atom_site_fract_z
_atom_site_type_symbol
O          0.0      0.5  0.11077     O
N          0.0      0.5  0.17397     N
Ce         0.0      0.5  0.33333    Ce
N          0.0      0.5   0.4927     N
O          0.0      0.5   0.5559     O
H       0.0078   0.2865   0.7528     H
H       0.0078   0.7213  0.91387     H
H       0.0194   0.2687   0.1707     H
H       0.0194   0.7507  0.49597     H
C       0.0216   0.2968  0.46287     C
C       0.0216   0.7248   0.2038     C
H       0.0327   0.3908   0.6679     H
H       0.0327   0.6419  0.99877     H
O        0.037   0.3489   0.2531     O
O        0.037   0.6881  0.41357     O
H       0.0598   0.2746  0.43947     H
H       0.0598   0.7852   0.2272     H
H       0.0636   0.3566  0.48597     H
H       0.0636    0.707   0.1807     H
C       0.0691   0.3214   0.7334     C
C       0.0691   0.7477  0.93327     C
O       0.0765     0.53     0.46     O
O       0.0765   0.5465  0.20667     O
C       0.0837   0.3836   0.6836     C
C       0.0837   0.7001  0.98307     C
H       0.1099   0.5377  0.89343     H
H       0.1099   0.5722  0.77323     H
C       0.1238   0.3574   0.2705     C
C       0.1238   0.7664  0.39617     C
H       0.1309   0.2621   0.7929     H
H       0.1309   0.8688  0.87377     H
H       0.1312   0.2621   0.2071     H
H       0.1312   0.8691  0.45957     H
O        0.141   0.4823  0.34262     O
O        0.141   0.6587  0.32405     O
H       0.1411   0.5162   0.5887     H
H       0.1411   0.6249  0.07797     H
C        0.143   0.3063   0.7578     C
C        0.143   0.8367  0.90887     C
H        0.161   0.4935  0.84963     H
H        0.161   0.6675  0.81703     H
C       0.1633   0.3063   0.2422     C
C       0.1633    0.857  0.42447     C
C       0.1657   0.5535  0.86483     C
C       0.1657   0.6122  0.80183     C
C       0.1726   0.4274   0.3214     C
C       0.1726   0.7452  0.34527     C
C       0.1773   0.4398   0.6537     C
C       0.1773   0.7375  0.01297     C
C        0.194   0.5112   0.6032     C
C        0.194   0.6828  0.06347     C
H       0.2148   0.2746  0.56053     H
H       0.2148   0.9402  0.10613     H
C       0.2336   0.3574   0.7295     C
C       0.2336   0.8762  0.93717     C
H       0.2358   0.5903  0.14867     H
H       0.2358   0.6455    0.518     H
H        0.245    0.556    0.415     H
H        0.245    0.689  0.25167     H
H       0.2493   0.2687   0.8293     H
H       0.2493   0.9806  0.83737     H
C       0.2523   0.3214   0.2666     C
C       0.2523   0.9309  0.40007     C
C       0.2548   0.4274   0.6786     C
C       0.2548   0.8274  0.98807     C
H       0.2558   0.5904  0.74013     H
H       0.2558   0.6654  0.92653     H
H       0.2562   0.5698  0.94363     H
H       0.2562   0.6864  0.72303     H
C       0.2564   0.6102  0.90633     C
C       0.2564   0.6462  0.76033     C
H       0.2621   0.1309  0.54043     H
H       0.2621   0.1312  0.12623     H
C       0.2625   0.4398   0.3463     C
C       0.2625   0.8227  0.32037     C
H       0.2687   0.0194  0.16263     H
H       0.2687   0.2493  0.50403     H
H       0.2746   0.0598  0.89387     H
H       0.2746   0.2148   0.7728     H
C       0.2752   0.2968  0.53713     C
C       0.2752   0.9784  0.12953     C
N       0.2758   0.5685   0.5764     N
N       0.2758   0.7073  0.09027     N
H       0.2787   0.2865   0.2472     H
H       0.2787   0.9922  0.41947     H
H       0.2865   0.0078  0.58053     H
H       0.2865   0.2787  0.08613     H
N       0.2927   0.5685   0.4236     N
N       0.2927   0.7242  0.24307     N
H        0.293   0.3566  0.51403     H
H        0.293   0.9364  0.15263     H
C       0.2968   0.0216  0.87047     C
C       0.2968   0.2752   0.7962     C
C        0.297   0.6461  0.13407     C
C        0.297   0.6509   0.5326     C
C       0.2999   0.3836   0.3164     C
C       0.2999   0.9163  0.35027     C
C       0.3063    0.143  0.57553     C
C       0.3063   0.1633  0.09113     C
H        0.311    0.556    0.585     H
H        0.311    0.755  0.08167     H
O       0.3119   0.3489   0.7469     O
O       0.3119    0.963  0.91977     O
H       0.3136   0.5698  0.05637     H
H       0.3136   0.7438   0.6103     H
C       0.3172   0.5112   0.3968     C
C       0.3172    0.806  0.26987     C
C       0.3214   0.0691  0.59993     C
C       0.3214   0.2523  0.06673     C
H       0.3325   0.4935  0.15037     H
H       0.3325    0.839   0.5163     H
H       0.3346   0.5904  0.25987     H
H       0.3346   0.7442   0.4068     H
O       0.3413   0.4823  0.65738     O
O       0.3413    0.859  0.00929     O
O       0.3489    0.037  0.08023     O
O       0.3489   0.3119  0.58643     O
C       0.3491   0.6461  0.86593     C
C       0.3491    0.703  0.80073     C
C       0.3538   0.6102  0.09367     C
C       0.3538   0.7436    0.573     C
C       0.3539   0.6509   0.4674     C
C       0.3539    0.703  0.19927     C
H       0.3545   0.5903  0.85133     H
H       0.3545   0.7642  0.81533     H
H       0.3566   0.0636  0.84737     H
H       0.3566    0.293   0.8193     H
C       0.3574   0.1238  0.06283     C
C       0.3574   0.2336  0.60383     C
H       0.3581   0.3908   0.3321     H
H       0.3581   0.9673  0.33457     H
H       0.3751   0.5162   0.4113     H
H       0.3751   0.8589  0.25537     H
C       0.3836   0.0837  0.64973     C
C       0.3836   0.2999  0.01693     C
C       0.3878   0.5535  0.13517     C
C       0.3878   0.8343   0.5315     C
C       0.3898   0.6462  0.23967     C
C       0.3898   0.7436    0.427     C
H       0.3908   0.0327  0.66543     H
H       0.3908   0.3581  0.00123     H
H       0.4096   0.6654  0.07347     H
H       0.4096   0.7442   0.5932     H
H       0.4097   0.6455    0.482     H
H       0.4097   0.7642  0.18467     H
C       0.4274   0.1726  0.01193     C
C       0.4274   0.2548  0.65473     C
H       0.4278   0.5377  0.10657     H
H       0.4278   0.8901   0.5601     H
H       0.4302   0.6864  0.27697     H
H       0.4302   0.7438   0.3897     H
N       0.4315   0.7073  0.90973     N
N       0.4315   0.7242  0.75693     N
C       0.4398   0.1773  0.67963     C
C       0.4398   0.2625  0.98703     C
H        0.444    0.689  0.74833     H
H        0.444    0.755  0.91833     H
C       0.4465   0.6122  0.19817     C
C       0.4465   0.8343   0.4685     C
O       0.4535     0.53     0.54     O
O       0.4535   0.9235  0.12667     O
H       0.4623   0.5722  0.22677     H
H       0.4623   0.8901   0.4399     H
O         0.47   0.5465  0.79333     O
O         0.47   0.9235  0.87333     O
O       0.4823    0.141  0.99071     O
O       0.4823   0.3413  0.67595     O
H       0.4838   0.6249  0.92203     H
H       0.4838   0.8589  0.74463     H
C       0.4888   0.6828  0.93653     C
C       0.4888    0.806  0.73013     C
H       0.4935    0.161   0.4837     H
H       0.4935   0.3325  0.18297     H
Ce         0.5      0.0      0.0    Ce
N          0.5      0.0  0.15937     N
O          0.5      0.0  0.22257     O
O          0.5      0.0  0.77743     O
N          0.5      0.0  0.84063     N
O          0.5      0.5   0.4441     O
N          0.5      0.5   0.5073     N
Ce         0.5      0.5  0.66667    Ce
N          0.5      0.5  0.82603     N
O          0.5      0.5  0.88923     O
H       0.5065   0.6675  0.18297     H
H       0.5065    0.839   0.4837     H
C       0.5112    0.194  0.73013     C
C       0.5112   0.3172  0.93653     C
H       0.5162   0.1411  0.74463     H
H       0.5162   0.3751  0.92203     H
O       0.5177   0.6587  0.67595     O
O       0.5177    0.859  0.99071     O
O         0.53   0.0765  0.87333     O
O         0.53   0.4535  0.79333     O
H       0.5377   0.1099   0.4399     H
H       0.5377   0.4278  0.22677     H
O       0.5465   0.0765  0.12667     O
O       0.5465     0.47     0.54     O
C       0.5535   0.1657   0.4685     C
C       0.5535   0.3878  0.19817     C
H        0.556    0.245  0.91833     H
H        0.556    0.311  0.74833     H
C       0.5602   0.7375  0.98703     C
C       0.5602   0.8227  0.67963     C
N       0.5685   0.2758  0.75693     N
N       0.5685   0.2927  0.90973     N
H       0.5698   0.2562   0.3897     H
H       0.5698   0.3136  0.27697     H
H       0.5722   0.1099   0.5601     H
H       0.5722   0.4623  0.10657     H
C       0.5726   0.7452  0.65473     C
C       0.5726   0.8274  0.01193     C
H       0.5903   0.2358  0.18467     H
H       0.5903   0.3545    0.482     H
H       0.5904   0.2558   0.5932     H
H       0.5904   0.3346  0.07347     H
H       0.6092   0.6419  0.00123     H
H       0.6092   0.9673  0.66543     H
C       0.6102   0.2564    0.427     C
C       0.6102   0.3538  0.23967     C
C       0.6122   0.1657   0.5315     C
C       0.6122   0.4465  0.13517     C
C       0.6164   0.7001  0.01693     C
C       0.6164   0.9163  0.64973     C
H       0.6249   0.1411  0.25537     H
H       0.6249   0.4838   0.4113     H
H       0.6419   0.0327  0.33457     H
H       0.6419   0.6092   0.3321     H
C       0.6426   0.7664  0.60383     C
C       0.6426   0.8762  0.06283     C
H       0.6434    0.707   0.8193     H
H       0.6434   0.9364  0.84737     H
H       0.6455   0.2358  0.81533     H
H       0.6455   0.4097  0.85133     H
C       0.6461    0.297  0.19927     C
C       0.6461   0.3491   0.4674     C
C       0.6462   0.2564    0.573     C
C       0.6462   0.3898  0.09367     C
C       0.6509    0.297  0.80073     C
C       0.6509   0.3539  0.86593     C
O       0.6511   0.6881  0.58643     O
O       0.6511    0.963  0.08023     O
O       0.6587    0.141  0.00929     O
O       0.6587   0.5177  0.65738     O
H       0.6654   0.2558   0.4068     H
H       0.6654   0.4096  0.25987     H
H       0.6675    0.161   0.5163     H
H       0.6675   0.5065  0.15037     H
C       0.6786   0.7477  0.06673     C
C       0.6786   0.9309  0.59993     C
C       0.6828    0.194  0.26987     C
C       0.6828   0.4888   0.3968     C
H       0.6864   0.2562   0.6103     H
H       0.6864   0.4302  0.05637     H
O       0.6881    0.037  0.91977     O
O       0.6881   0.6511   0.7469     O
H        0.689    0.245  0.08167     H
H        0.689    0.444    0.585     H
C       0.6937   0.8367  0.09113     C
C       0.6937    0.857  0.57553     C
C       0.7001   0.0837  0.35027     C
C       0.7001   0.6164   0.3164     C
C        0.703   0.3491   0.5326     C
C        0.703   0.3539  0.13407     C
C       0.7032   0.7248   0.7962     C
C       0.7032   0.9784  0.87047     C
H        0.707   0.0636  0.15263     H
H        0.707   0.6434  0.51403     H
N       0.7073   0.2758  0.24307     N
N       0.7073   0.4315   0.4236     N
H       0.7135   0.7213  0.08613     H
H       0.7135   0.9922  0.58053     H
H       0.7213   0.0078  0.41947     H
H       0.7213   0.7135   0.2472     H
N       0.7242   0.2927  0.09027     N
N       0.7242   0.4315   0.5764     N
C       0.7248   0.0216  0.12953     C
C       0.7248   0.7032  0.53713     C
H       0.7254   0.7852   0.7728     H
H       0.7254   0.9402  0.89387     H
H       0.7313   0.7507  0.50403     H
H       0.7313   0.9806  0.16263     H
C       0.7375   0.1773  0.32037     C
C       0.7375   0.5602   0.3463     C
H       0.7379   0.8688  0.12623     H
H       0.7379   0.8691  0.54043     H
C       0.7436   0.3538  0.76033     C
C       0.7436   0.3898  0.90633     C
H       0.7438   0.3136  0.72303     H
H       0.7438   0.4302  0.94363     H
H       0.7442   0.3346  0.92653     H
H       0.7442   0.4096  0.74013     H
C       0.7452   0.1726  0.98807     C
C       0.7452   0.5726   0.6786     C
C       0.7477   0.0691  0.40007     C
C       0.7477   0.6786   0.2666     C
H       0.7507   0.0194  0.83737     H
H       0.7507   0.7313   0.8293     H
H        0.755    0.311  0.25167     H
H        0.755    0.444    0.415     H
H       0.7642   0.3545    0.518     H
H       0.7642   0.4097  0.14867     H
C       0.7664   0.1238  0.93717     C
C       0.7664   0.6426   0.7295     C
H       0.7852   0.0598  0.10613     H
H       0.7852   0.7254  0.56053     H
C        0.806   0.3172  0.06347     C
C        0.806   0.4888   0.6032     C
C       0.8227   0.2625  0.01297     C
C       0.8227   0.5602   0.6537     C
C       0.8274   0.2548  0.34527     C
C       0.8274   0.5726   0.3214     C
C       0.8343   0.3878  0.80183     C
C       0.8343   0.4465  0.86483     C
C       0.8367    0.143  0.42447     C
C       0.8367   0.6937   0.2422     C
H        0.839   0.3325  0.81703     H
H        0.839   0.5065  0.84963     H
C        0.857   0.1633  0.90887     C
C        0.857   0.6937   0.7578     C
H       0.8589   0.3751  0.07797     H
H       0.8589   0.4838   0.5887     H
O        0.859   0.3413  0.32405     O
O        0.859   0.5177  0.34262     O
H       0.8688   0.1309  0.45957     H
H       0.8688   0.7379   0.2071     H
H       0.8691   0.1312  0.87377     H
H       0.8691   0.7379   0.7929     H
C       0.8762   0.2336  0.39617     C
C       0.8762   0.6426   0.2705     C
H       0.8901   0.4278  0.77323     H
H       0.8901   0.4623  0.89343     H
C       0.9163   0.2999  0.98307     C
C       0.9163   0.6164   0.6836     C
O       0.9235   0.4535  0.20667     O
O       0.9235     0.47     0.46     O
C       0.9309   0.2523  0.93327     C
C       0.9309   0.6786   0.7334     C
H       0.9364    0.293   0.1807     H
H       0.9364   0.6434  0.48597     H
H       0.9402   0.2148   0.2272     H
H       0.9402   0.7254  0.43947     H
O        0.963   0.3119  0.41357     O
O        0.963   0.6511   0.2531     O
H       0.9673   0.3581  0.99877     H
H       0.9673   0.6092   0.6679     H
C       0.9784   0.2752   0.2038     C
C       0.9784   0.7032  0.46287     C
H       0.9806   0.2493  0.49597     H
H       0.9806   0.7313   0.1707     H
H       0.9922   0.2787  0.91387     H
H       0.9922   0.7135   0.7528     H
