data_I
_chemical_name_common  '/home/zhangsd/repos/MofS-CGCNN/ML/data/TSD/clean_cifs/FEZTIP_clean'
_cell_length_a 10.07040
_cell_length_b 14.25210
_cell_length_c 17.56440
_cell_angle_alpha 90.00000
_cell_angle_beta  94.28100
_cell_angle_gamma 90.00000
_space_group_name_H-M_alt      'P 1'


loop_
_space_group_symop_operation_xyz
  'x, y, z' 

loop_
_atom_site_label
_atom_site_fract_x
_atom_site_fract_y
_atom_site_fract_z
_atom_site_type_symbol
Ca     0.02837  0.39441  0.05831    Ca
O       0.0568  0.09607  0.95181     O
O       0.0731  0.55209  0.06466     O
O       0.0747  0.23231  0.10502     O
O       0.0843  0.70431  0.04527     O
C       0.0907   0.0558  0.89355     C
Ca     0.09172  0.84702  0.96991    Ca
O       0.0965  0.96937  0.88455     O
C       0.1095  0.63302   0.0859     C
H       0.1181   0.2495   0.8673     H
C       0.1324   0.2667  0.16487     C
C       0.1338   0.1158  0.83039     C
C       0.1407   0.2106   0.8277     C
H       0.1427   0.0703   0.1918     H
O        0.143  0.35331  0.17565     O
O       0.1734  0.60932  0.88928     O
C       0.1852  0.64308  0.16025     C
C       0.1858   0.2442   0.7586     C
S      0.18623  0.06599  0.74929     S
C       0.1875    0.108  0.22855     C
C       0.1914   0.2036  0.22468     C
H       0.1934   0.3075   0.7469     H
C       0.2168   0.1741  0.71116     C
S      0.21996  0.75166  0.19792     S
C       0.2233   0.6825  0.86371     C
O       0.2266  0.76155  0.89422     O
H       0.2326   0.5094   0.1943     H
C       0.2411   0.5729  0.20571     C
C       0.2589   0.0729  0.29429     C
H       0.2674   0.0094   0.3057     H
O       0.2734  0.26155  0.60578     O
C       0.2767   0.1825  0.63629     C
S      0.28004  0.25166  0.30208     S
C       0.2832   0.6741  0.78884     C
H       0.3066   0.8075   0.7531     H
C       0.3086   0.7036  0.27532     C
C       0.3125    0.608  0.27145     C
S      0.31377  0.56599  0.75071     S
C       0.3142   0.7442   0.7414     C
C       0.3148  0.14308  0.33975     C
O       0.3266  0.10932  0.61072     O
O        0.357  0.85331  0.32435     O
H       0.3573   0.5703   0.3082     H
C       0.3593   0.7106   0.6723     C
C       0.3662   0.6158  0.66961     C
C       0.3676   0.7667  0.33513     C
H       0.3819   0.7495   0.6327     H
C       0.3905  0.13302   0.4141     C
O       0.4035  0.46937  0.61545     O
Ca     0.40828  0.34702  0.53009    Ca
C       0.4093   0.5558  0.60645     C
O       0.4157  0.20431  0.45473     O
O       0.4253  0.73231  0.39498     O
O       0.4269  0.05209  0.43534     O
O       0.4432  0.59607  0.54819     O
Ca     0.47163  0.89441  0.44169    Ca
Ca     0.52837  0.10559  0.55831    Ca
O       0.5568  0.40393  0.45181     O
O       0.5731  0.94791  0.56466     O
O       0.5747  0.26769  0.60502     O
O       0.5843  0.79569  0.54527     O
C       0.5907   0.4442  0.39355     C
Ca     0.59172  0.65298  0.46991    Ca
O       0.5965  0.53063  0.38455     O
C       0.6095  0.86698   0.5859     C
H       0.6181   0.2505   0.3673     H
C       0.6324   0.2333  0.66487     C
C       0.6338   0.3842  0.33039     C
C       0.6407   0.2894   0.3277     C
H       0.6427   0.4297   0.6918     H
O        0.643  0.14669  0.67565     O
O       0.6734  0.89068  0.38928     O
C       0.6852  0.85692  0.66025     C
C       0.6858   0.2558   0.2586     C
S      0.68623  0.43401  0.24929     S
C       0.6875    0.392  0.72855     C
C       0.6914   0.2964  0.72468     C
H       0.6934   0.1925   0.2469     H
C       0.7168   0.3259  0.21116     C
S      0.71996  0.74834  0.69792     S
C       0.7233   0.8175  0.36371     C
O       0.7266  0.73845  0.39422     O
H       0.7326   0.9906   0.6943     H
C       0.7411   0.9271  0.70571     C
C       0.7589   0.4271  0.79429     C
H       0.7674   0.4906   0.8057     H
O       0.7734  0.23845  0.10578     O
C       0.7767   0.3175  0.13629     C
S      0.78004  0.24834  0.80208     S
C       0.7832   0.8259  0.28884     C
H       0.8066   0.6925   0.2531     H
C       0.8086   0.7964  0.77532     C
C       0.8125    0.892  0.77145     C
S      0.81377  0.93401  0.25071     S
C       0.8142   0.7558   0.2414     C
C       0.8148  0.35692  0.83975     C
O       0.8266  0.39068  0.11072     O
O        0.857  0.64669  0.82435     O
H       0.8573   0.9297   0.8082     H
C       0.8593   0.7894   0.1723     C
C       0.8662   0.8842  0.16961     C
C       0.8676   0.7333  0.83513     C
H       0.8819   0.7505   0.1327     H
C       0.8905  0.36698   0.9141     C
O       0.9035  0.03063  0.11545     O
Ca     0.90828  0.15298  0.03009    Ca
C       0.9093   0.9442  0.10645     C
O       0.9157  0.29569  0.95473     O
O       0.9253  0.76769  0.89498     O
O       0.9269  0.44791  0.93534     O
O       0.9432  0.90393  0.04819     O
Ca     0.97163  0.60559  0.94169    Ca
