data_I
_chemical_name_common  '/home/zhangsd/repos/MofS-CGCNN/ML/data/TSD/clean_cifs/FIHRIZ_clean'
_cell_length_a 13.21460
_cell_length_b 14.42650
_cell_length_c 14.42650
_cell_angle_alpha 100.82000
_cell_angle_beta  92.28060
_cell_angle_gamma 92.28060
_space_group_name_H-M_alt      'P 1'


loop_
_space_group_symop_operation_xyz
  'x, y, z' 

loop_
_atom_site_label
_atom_site_fract_x
_atom_site_fract_y
_atom_site_fract_z
_atom_site_type_symbol
Ni         0.0      0.0      0.5    Ni
C       0.0476   0.5278   0.9298     C
C       0.0486    0.517    0.084     C
H       0.0646   0.8333   0.7015     H
H        0.077   0.2555   0.6853     H
H       0.0785   0.5461   0.8789     H
O       0.0802   0.1188    0.557     O
H       0.0802   0.5275   0.1441     H
O       0.0882   0.9768   0.3796     O
O       0.0883   0.9238   0.5736     O
N       0.0965    0.545   0.0148     N
H       0.1106   0.7583   0.8243     H
H       0.1126   0.2782    0.274     H
O       0.1181   0.1293   0.3265     O
C         0.13   0.8125   0.7061     C
H       0.1387   0.3776   0.8056     H
C       0.1465   0.2669   0.6973     C
C       0.1574   0.7677   0.7801     C
H       0.1602   0.4027   0.2015     H
C       0.1693   0.8809   0.5635     C
C       0.1744   0.1309   0.5665     C
C       0.1775   0.2819   0.2517     C
C       0.1837   0.3398   0.7696     C
C       0.1978   0.8266   0.6394     C
C       0.2055   0.3564   0.2078     C
C       0.2097   0.1316   0.3082     C
C       0.2139   0.2117   0.6437     C
O       0.2257   0.6759   0.9267     O
O       0.2283   0.8789   0.4965     O
O       0.2387   0.0852    0.521     O
H       0.2405   0.6361   0.2415     H
N        0.244    0.707   0.1382     N
C       0.2448   0.2128   0.2626     C
Ni     0.24501  0.97512  0.41056    Ni
C       0.2456   0.6969   0.2287     C
H       0.2461   0.8095   0.0665     H
C       0.2474   0.7969   0.1275     C
C       0.2526   0.8725   0.2031     C
H       0.2539   0.9335   0.1905     H
C       0.2544   0.7713   0.3031     C
Ni     0.25499  0.58944  0.02488    Ni
C       0.2552   0.7374   0.7872     C
N        0.256   0.8618    0.293     N
H       0.2595   0.7585   0.3639     H
O       0.2613    0.479   0.9148     O
O       0.2717   0.5035   0.1211     O
O       0.2743   0.0733   0.3241     O
C       0.2861   0.3563   0.7883     C
C       0.2903   0.6918   0.8684     C
C       0.2945   0.7922   0.6436     C
C       0.3022   0.3606   0.1734     C
C       0.3163   0.2304   0.6602     C
C       0.3225   0.7483   0.7181     C
C       0.3256   0.4335   0.8691     C
C       0.3307   0.4365   0.1191     C
H       0.3398   0.7985   0.5973     H
C       0.3426   0.2199   0.2323     C
C       0.3535   0.3027   0.7331     C
H       0.3613   0.1944   0.6224     H
C         0.37   0.2939   0.1875     C
O       0.3819   0.6735   0.8707     O
H       0.3874    0.726   0.7218     H
H       0.3894   0.1757   0.2417     H
N       0.4035   0.9852    0.455     N
O       0.4117   0.4264   0.0762     O
O       0.4118   0.6204   0.0232     O
O       0.4198    0.443   0.8812     O
H       0.4198   0.8559   0.4725     H
H       0.4215   0.1211   0.4539     H
H        0.423   0.3147   0.7445     H
H       0.4354   0.2985   0.1667     H
C       0.4514    0.916    0.483     C
C       0.4524   0.0702   0.4722     C
Ni         0.5      0.5     -0.0    Ni
C       0.5476   0.9298   0.5278     C
C       0.5486    0.084    0.517     C
H       0.5646   0.7015   0.8333     H
H        0.577   0.6853   0.2555     H
H       0.5785   0.8789   0.5461     H
H       0.5802   0.1441   0.5275     H
O       0.5802    0.557   0.1188     O
O       0.5882   0.3796   0.9768     O
O       0.5883   0.5736   0.9238     O
N       0.5965   0.0148    0.545     N
H       0.6106   0.8243   0.7583     H
H       0.6126    0.274   0.2782     H
O       0.6181   0.3265   0.1293     O
C         0.63   0.7061   0.8125     C
H       0.6387   0.8056   0.3776     H
C       0.6465   0.6973   0.2669     C
C       0.6574   0.7801   0.7677     C
H       0.6602   0.2015   0.4027     H
C       0.6693   0.5635   0.8809     C
C       0.6744   0.5665   0.1309     C
C       0.6775   0.2517   0.2819     C
C       0.6837   0.7696   0.3398     C
C       0.6978   0.6394   0.8266     C
C       0.7055   0.2078   0.3564     C
C       0.7097   0.3082   0.1316     C
C       0.7139   0.6437   0.2117     C
O       0.7257   0.9267   0.6759     O
O       0.7283   0.4965   0.8789     O
O       0.7387    0.521   0.0852     O
H       0.7405   0.2415   0.6361     H
N        0.744   0.1382    0.707     N
C       0.7448   0.2626   0.2128     C
Ni     0.74501  0.41056  0.97512    Ni
C       0.7456   0.2287   0.6969     C
H       0.7461   0.0665   0.8095     H
C       0.7474   0.1275   0.7969     C
C       0.7526   0.2031   0.8725     C
H       0.7539   0.1905   0.9335     H
C       0.7544   0.3031   0.7713     C
Ni     0.75499  0.02488  0.58944    Ni
C       0.7552   0.7872   0.7374     C
N        0.756    0.293   0.8618     N
H       0.7595   0.3639   0.7585     H
O       0.7613   0.9148    0.479     O
O       0.7717   0.1211   0.5035     O
O       0.7743   0.3241   0.0733     O
C       0.7861   0.7883   0.3563     C
C       0.7903   0.8684   0.6918     C
C       0.7945   0.6436   0.7922     C
C       0.8022   0.1734   0.3606     C
C       0.8163   0.6602   0.2304     C
C       0.8225   0.7181   0.7483     C
C       0.8256   0.8691   0.4335     C
C       0.8307   0.1191   0.4365     C
H       0.8398   0.5973   0.7985     H
C       0.8426   0.2323   0.2199     C
C       0.8535   0.7331   0.3027     C
H       0.8613   0.6224   0.1944     H
C         0.87   0.1875   0.2939     C
O       0.8819   0.8707   0.6735     O
H       0.8874   0.7218    0.726     H
H       0.8894   0.2417   0.1757     H
N       0.9035    0.455   0.9852     N
O       0.9117   0.0762   0.4264     O
O       0.9118   0.0232   0.6204     O
H       0.9198   0.4725   0.8559     H
O       0.9198   0.8812    0.443     O
H       0.9215   0.4539   0.1211     H
H        0.923   0.7445   0.3147     H
H       0.9354   0.1667   0.2985     H
C       0.9514    0.483    0.916     C
C       0.9524   0.4722   0.0702     C
