data_I
_chemical_name_common  '/home/zhangsd/repos/MofS-CGCNN/ML/data/TSD/clean_cifs/FIJDIM10_clean'
_cell_length_a 10.65270
_cell_length_b 13.53390
_cell_length_c 14.39940
_cell_angle_alpha 76.94040
_cell_angle_beta  68.29040
_cell_angle_gamma 66.82400
_space_group_name_H-M_alt      'P 1'


loop_
_space_group_symop_operation_xyz
  'x, y, z' 

loop_
_atom_site_label
_atom_site_fract_x
_atom_site_fract_y
_atom_site_fract_z
_atom_site_type_symbol
Mn     0.00328  0.96031  0.89137    Mn
C      0.00414  0.02175  0.39969     C
C       0.0058  0.04418   0.2925     C
C      0.02563  0.59764  0.96828     C
H      0.04433  0.67387  0.94317     H
C      0.04865  0.42421  0.93125     C
C      0.07442  0.52175  0.89969     C
O      0.07564   0.8659  0.73626     O
H      0.08708  0.36516   0.8783     H
O      0.08863  0.97285  0.23271     O
C      0.09155  0.90236  0.53172     C
C      0.09589  0.92421  0.43125     C
O      0.09632  0.89862    0.024     O
C      0.15752  0.54418   0.7925     C
H      0.16137  0.82613  0.55683     H
C      0.16735  0.80449  0.99555     C
H      0.16946  0.86516   0.3783     H
O      0.17002    0.783   0.9135     O
O       0.1778   0.6341  0.76374     O
O      0.18059  0.00815  0.80751     O
H      0.18816  0.18948  0.75656     H
O      0.20581  0.47285  0.73271     O
H      0.22436  0.83002  0.15566     H
C      0.24507  0.71811  0.06065     C
C      0.26771  0.74644   0.1395     C
H      0.27921   0.5872  0.98172     H
Mn     0.27979     0.75     0.75    Mn
H      0.28996  0.33002  0.65566     H
C      0.29011  0.16691  0.69707     C
C      0.29618  0.60966  0.04262     C
C      0.29826  0.97432  0.73944     C
C      0.34591  0.66691  0.19707     C
C      0.34635  0.24644   0.6395     C
H      0.34813   0.9128  0.51828     H
Mn     0.35496  0.53969  0.60863    Mn
O      0.36281  0.87827  0.71543     O
C      0.36506   0.0582   0.6793     C
H       0.3658  0.68948  0.25656     H
O      0.36652    0.717   0.5865     O
C      0.36966  0.52992  0.10308     C
C      0.39744   0.5582   0.1793     C
H      0.40577  0.44573  0.09061     H
H      0.44211  0.05427  0.40939     H
C      0.44846  0.89034  0.45738     C
O      0.45651  0.62173  0.78457     O
C      0.46739  0.69551  0.50445     C
C      0.47617  0.21811  0.56065     C
O      0.48106  0.39862    0.524     O
C      0.48798  0.47432  0.23944     C
O      0.49625  0.49185  0.69249     O
C      0.49734  0.02992  0.60308     C
C      0.50266  0.97008  0.39692     C
O      0.50375  0.50815  0.30751     O
C      0.51202  0.52568  0.76056     C
O      0.51894  0.60138    0.476     O
C      0.52383  0.78189  0.43935     C
C      0.53261  0.30449  0.49555     C
O      0.54349  0.37827  0.21543     O
C      0.55154  0.10966  0.54262     C
H      0.55789  0.94573  0.59061     H
H      0.59423  0.55427  0.90939     H
C      0.60256   0.4418   0.8207     C
C      0.63034  0.47008  0.89692     C
O      0.63348    0.283   0.4135     O
H       0.6342  0.31052  0.74344     H
C      0.63494   0.9418   0.3207     C
O      0.63719  0.12173  0.28457     O
Mn     0.64504  0.46031  0.39137    Mn
H      0.65187   0.0872  0.48172     H
C      0.65365  0.75356   0.3605     C
C      0.65409  0.33309  0.80293     C
C      0.70174  0.02568  0.26056     C
C      0.70382  0.39034  0.95738     C
C      0.70989  0.83309  0.30293     C
H      0.71004  0.66998  0.34434     H
Mn     0.72021     0.25     0.25    Mn
H      0.72079   0.4128  0.01828     H
C      0.73229  0.25356   0.8605     C
C      0.75493  0.28189  0.93935     C
H      0.77564  0.16998  0.84434     H
O      0.79419  0.52715  0.26729     O
H      0.81184  0.81052  0.24344     H
O      0.81941  0.99185  0.19249     O
O       0.8222   0.3659  0.23626     O
O      0.82998    0.217   0.0865     O
H      0.83054  0.13484   0.6217     H
C      0.83265  0.19551  0.00445     C
H      0.83863  0.17387  0.44317     H
C      0.84248  0.45582   0.2075     C
O      0.90368  0.10138    0.976     O
C      0.90411  0.07579  0.56875     C
C      0.90845  0.09764  0.46828     C
O      0.91137  0.02715  0.76729     O
H      0.91292  0.63484   0.1217     H
O      0.92436   0.1341  0.26374     O
C      0.92558  0.47825  0.10031     C
C      0.95135  0.57579  0.06875     C
H      0.95567  0.32613  0.05683     H
C      0.97437  0.40236  0.03172     C
C       0.9942  0.95582   0.7075     C
C      0.99586  0.97825  0.60031     C
Mn     0.99672  0.03969  0.10863    Mn
