data_I
_chemical_name_common  '/home/zhangsd/repos/MofS-CGCNN/ML/data/TSD/clean_cifs/FIJDIM07_clean'
_cell_length_a 10.79640
_cell_length_b 13.49960
_cell_length_c 14.42740
_cell_angle_alpha 76.52630
_cell_angle_beta  68.02750
_cell_angle_gamma 66.42950
_space_group_name_H-M_alt      'P 1'


loop_
_space_group_symop_operation_xyz
  'x, y, z' 

loop_
_atom_site_label
_atom_site_fract_x
_atom_site_fract_y
_atom_site_fract_z
_atom_site_type_symbol
O      0.00271  0.99133  0.19145     O
C      0.00605  0.46842  0.89668     C
C      0.01572  0.02496   0.2596     C
O      0.01783  0.10129  0.97569     O
C      0.02569  0.28102   0.9392     C
C      0.03114  0.80505  0.99607     C
O      0.03978  0.87915  0.71721     O
H        0.045    0.459   0.0924     H
C      0.04759  0.61138  0.04304     C
H       0.0964    0.041   0.4076     H
C      0.10434  0.94017  0.32055     C
C      0.12885  0.96842  0.39668     C
O      0.12935  0.78409  0.91369     O
H       0.1329   0.5922   0.9908     H
C      0.13494  0.44017  0.82055     C
O      0.13614  0.62085  0.78279     O
H       0.1385   0.8126    0.253     H
Mn     0.14032  0.96166   0.8893    Mn
C      0.15318   0.2525  0.86114     C
C       0.1558  0.83212  0.30348     C
C      0.19972  0.52496   0.7596     C
H       0.2013   0.1803   0.8475     H
C      0.20201  0.88862  0.45696     C
C       0.2086  0.33212  0.80348     C
Mn     0.21512     0.75     0.75    Mn
H       0.2159   0.9078   0.5092     H
C      0.23318   0.7525  0.36114     C
C      0.25409  0.78102   0.4392     C
H       0.2709   0.6803   0.3475     H
O      0.28552  0.02753  0.76343     O
H       0.2959   0.3126    0.753     H
O      0.31451  0.49133  0.69145     O
O      0.31569  0.86669  0.73231     O
O      0.32713  0.71591  0.58631     O
C      0.33226  0.69495  0.50393     C
C      0.33587  0.95594  0.70452     C
H         0.34   0.6227   0.1159     H
H       0.3414   0.6602   0.9504     H
C       0.4047  0.57352  0.06928     C
C      0.40487  0.59568  0.97038     C
O      0.40519  0.60129  0.47569     O
O      0.41469  0.63331  0.76769     O
H       0.4214   0.1227   0.6159     H
C      0.42239  0.97827  0.59875     C
O      0.42352  0.52753  0.26343     O
H        0.452   0.8398   0.5496     H
C       0.4525  0.07352  0.56928     C
C      0.47093  0.90432  0.52962     C
Mn     0.49128  0.53834   0.6107    Mn
C      0.49633  0.54406  0.79548     C
C      0.49941  0.52173  0.90125     C
C      0.50059  0.47827  0.09875     C
C      0.50367  0.45594  0.20452     C
Mn     0.50872  0.46166   0.3893    Mn
C      0.52907  0.09568  0.47038     C
C       0.5475  0.92648  0.43072     C
H        0.548   0.1602   0.4504     H
O      0.57648  0.47247  0.73657     O
C      0.57761  0.02173  0.40125     C
H       0.5786   0.8773   0.3841     H
O      0.58531  0.36669  0.23231     O
O      0.59481  0.39871  0.52431     O
C      0.59513  0.40432  0.02962     C
C       0.5953  0.42648  0.93072     C
H       0.6586   0.3398   0.0496     H
H         0.66   0.3773   0.8841     H
C      0.66413  0.04406  0.29548     C
C      0.66774  0.30505  0.49607     C
O      0.67287  0.28409  0.41369     O
O      0.68431  0.13331  0.26769     O
O      0.68549  0.50867  0.30855     O
H       0.7041   0.6874    0.247     H
O      0.71448  0.97247  0.23657     O
H       0.7291   0.3197   0.6525     H
C      0.74591  0.21898   0.5608     C
C      0.76682   0.2475  0.63886     C
H       0.7841   0.0922   0.4908     H
Mn     0.78488     0.25     0.25    Mn
C       0.7914  0.66788  0.19652     C
C      0.79799  0.11138  0.54304     C
H       0.7987   0.8197   0.1525     H
C      0.80028  0.47504   0.2404     C
C       0.8442  0.16788  0.69652     C
C      0.84682   0.7475  0.13886     C
Mn     0.85968  0.03834   0.1107    Mn
H       0.8615   0.1874    0.747     H
O      0.86386  0.37915  0.21721     O
C      0.86506  0.55983  0.17945     C
H       0.8671   0.4078   0.0092     H
O      0.87065  0.21591  0.08631     O
C      0.87115  0.03158  0.60332     C
C      0.89566  0.05983  0.67945     C
H       0.9036    0.959   0.5924     H
C      0.95241  0.38862  0.95696     C
H        0.955    0.541   0.9076     H
O      0.96022  0.12085  0.28279     O
C      0.96886  0.19495  0.00393     C
C      0.97431  0.71898   0.0608     C
O      0.98217  0.89871  0.02431     O
C      0.98428  0.97504   0.7404     C
C      0.99395  0.53158  0.10332     C
O      0.99729  0.00867  0.80855     O
