data_I
_chemical_name_common  '/home/zhangsd/repos/MofS-CGCNN/ML/data/TSD/clean_cifs/FIJDIM06_clean'
_cell_length_a 10.77680
_cell_length_b 13.50570
_cell_length_c 14.42480
_cell_angle_alpha 76.58720
_cell_angle_beta  68.06520
_cell_angle_gamma 66.48610
_space_group_name_H-M_alt      'P 1'


loop_
_space_group_symop_operation_xyz
  'x, y, z' 

loop_
_atom_site_label
_atom_site_fract_x
_atom_site_fract_y
_atom_site_fract_z
_atom_site_type_symbol
O       0.0017  0.99143  0.19157     O
C      0.00593  0.46865  0.89669     C
C       0.0151  0.02516  0.25984     C
O      0.01785  0.10123  0.97585     O
C      0.02563  0.28097  0.93917     C
C      0.03117  0.80499  0.99607     C
O      0.04034  0.87909  0.71703     O
H        0.045   0.4588   0.0922     H
C      0.04801  0.61125  0.04313     C
H        0.096   0.0412   0.4078     H
C      0.10383  0.94046  0.32048     C
C      0.12873  0.96865  0.39669     C
O      0.12996  0.78377  0.91373     O
H       0.1336    0.592    0.991     H
C      0.13523  0.44046  0.82048     C
O      0.13646  0.62091  0.78297     O
H       0.1381   0.8129   0.2529     H
Mn     0.14101  0.96144  0.88962    Mn
C      0.15329  0.25266  0.86096     C
C      0.15548   0.8324  0.30344     C
C       0.1999  0.52516  0.75984     C
H       0.2015   0.1806   0.8472     H
C      0.20239  0.88875  0.45687     C
C      0.20868   0.3324  0.80344     C
Mn     0.21584     0.75     0.75    Mn
H       0.2166    0.908    0.509     H
C      0.23309  0.75266  0.36096     C
C      0.25423  0.78097  0.43917     C
H       0.2707   0.6806   0.3472     H
O      0.28705  0.02737  0.76393     O
H       0.2961   0.3129   0.7529     H
O       0.3153  0.49143  0.69157     O
O       0.3167  0.86654  0.73286     O
O      0.32746  0.71623  0.58627     O
C      0.33223  0.69501  0.50393     C
C      0.33689  0.95594  0.70508     C
H       0.3399   0.6229   0.1157     H
H       0.3419   0.6603   0.9501     H
C      0.40452  0.57365  0.06931     C
O      0.40507  0.60123  0.47585     O
C      0.40519  0.59573  0.97009     C
O       0.4161  0.63346  0.76714     O
H       0.4215   0.1229   0.6157     H
O      0.42165  0.52737  0.26393     O
C      0.42278  0.97808  0.59896     C
H       0.4523   0.8397   0.5499     H
C      0.45252  0.07365  0.56931     C
C      0.47101  0.90427  0.52991     C
Mn     0.49207  0.53856  0.61038    Mn
C      0.49791  0.54406  0.79492     C
C      0.49982  0.52192  0.90104     C
C      0.50018  0.47808  0.09896     C
C      0.50209  0.45594  0.20508     C
Mn     0.50793  0.46144  0.38962    Mn
C      0.52899  0.09573  0.47009     C
C      0.54748  0.92635  0.43069     C
H       0.5477   0.1603   0.4501     H
C      0.57722  0.02192  0.40104     C
O      0.57835  0.47263  0.73607     O
H       0.5785   0.8771   0.3843     H
O       0.5839  0.36654  0.23286     O
C      0.59481  0.40427  0.02991     C
O      0.59493  0.39877  0.52415     O
C      0.59548  0.42635  0.93069     C
H       0.6581   0.3397   0.0499     H
H       0.6601   0.3771   0.8843     H
C      0.66311  0.04406  0.29492     C
C      0.66777  0.30499  0.49607     C
O      0.67254  0.28377  0.41373     O
O       0.6833  0.13346  0.26714     O
O       0.6847  0.50857  0.30843     O
H       0.7039   0.6871   0.2471     H
O      0.71295  0.97263  0.23607     O
H       0.7293   0.3194   0.6528     H
C      0.74577  0.21903  0.56083     C
C      0.76691  0.24734  0.63904     C
H       0.7834    0.092    0.491     H
Mn     0.78416     0.25     0.25    Mn
C      0.79132   0.6676  0.19656     C
C      0.79761  0.11125  0.54313     C
H       0.7985   0.8194   0.1528     H
C       0.8001  0.47484  0.24016     C
C      0.84452   0.1676  0.69656     C
C      0.84671  0.74734  0.13904     C
Mn     0.85899  0.03856  0.11038    Mn
H       0.8619   0.1871   0.7471     H
O      0.86354  0.37909  0.21703     O
C      0.86477  0.55954  0.17952     C
H       0.8664    0.408    0.009     H
O      0.87004  0.21623  0.08627     O
C      0.87127  0.03135  0.60331     C
C      0.89617  0.05954  0.67952     C
H        0.904   0.9588   0.5922     H
C      0.95199  0.38875  0.95687     C
H        0.955   0.5412   0.9078     H
O      0.95966  0.12091  0.28297     O
C      0.96883  0.19501  0.00393     C
C      0.97437  0.71903  0.06083     C
O      0.98215  0.89877  0.02415     O
C       0.9849  0.97484  0.74016     C
C      0.99407  0.53135  0.10331     C
O       0.9983  0.00857  0.80843     O
