data_I
_chemical_name_common  '/home/zhangsd/repos/MofS-CGCNN/ML/data/TSD/clean_cifs/FILYEG_clean'
_cell_length_a 10.80600
_cell_length_b 24.32900
_cell_length_c 28.55400
_cell_angle_alpha 90.00000
_cell_angle_beta  90.00000
_cell_angle_gamma 93.65800
_space_group_name_H-M_alt      'P 1'


loop_
_space_group_symop_operation_xyz
  'x, y, z' 

loop_
_atom_site_label
_atom_site_fract_x
_atom_site_fract_y
_atom_site_fract_z
_atom_site_type_symbol
C       0.0164   0.4018   0.9802     C
C       0.0164   0.9018   0.5198     C
C       0.0272   0.4483   0.9525     C
C       0.0272   0.9483   0.5475     C
C       0.0478   0.0518   0.9534     C
C       0.0478   0.5518   0.5466     C
C       0.0484   0.0973   0.9818     C
C       0.0484   0.5973   0.5182     C
H       0.0595   0.4898   0.0747     H
H       0.0595   0.9898   0.4253     H
C        0.067   0.4773   0.4436     C
C        0.067   0.9773   0.0564     C
H       0.0671   0.0082   0.0756     H
H       0.0671   0.5082   0.4244     H
C       0.0714   0.3849   0.4966     C
C       0.0714   0.8849   0.0034     C
C       0.0716   0.0215   0.4434     C
C       0.0716   0.5215   0.0566     C
H       0.0724   0.3525   0.5138     H
H       0.0724   0.8525   0.9862     H
H        0.085   0.3829   0.9886     H
H        0.085   0.8829   0.5114     H
C       0.1074   0.1157   0.4952     C
C       0.1074   0.6157   0.0048     C
H       0.1187   0.1478   0.5127     H
H       0.1187   0.6478   0.9873     H
H       0.1221   0.1159   0.9911     H
H       0.1221   0.6159   0.5089     H
C       0.1573   0.4677   0.9387     C
C       0.1573   0.9677   0.5613     C
O       0.1582   0.4934   0.5923     O
O       0.1582   0.9934   0.9077     O
O       0.1612   0.0084   0.5929     O
O       0.1612   0.5084   0.9071     O
C       0.1633   0.0328   0.9416     C
C       0.1633   0.5328   0.5584     C
C       0.1763   0.4623   0.4609     C
C       0.1763   0.9623   0.0391     C
C       0.1816   0.4122   0.4872     C
C       0.1816   0.9122   0.0128     C
C       0.1909   0.0363   0.4602     C
C       0.1909   0.5363   0.0398     C
C        0.207   0.0877    0.485     C
C        0.207   0.5877    0.015     C
H        0.237   0.3175   0.2956     H
H        0.237   0.8175   0.2044     H
O       0.2476   0.4457   0.9521     O
O       0.2476   0.9457   0.5479     O
H       0.2564   0.3993   0.4971     H
H       0.2564   0.8993   0.0029     H
O       0.2634   0.0562   0.9526     O
O       0.2634   0.5562   0.5474     O
H       0.2656   0.1704   0.2948     H
H       0.2656   0.6704   0.2052     H
H       0.2818   0.3442    0.219     H
H       0.2818   0.8442    0.281     H
O       0.2839   0.4649   0.0768     O
O       0.2839   0.9649   0.4232     O
H       0.2858   0.1014    0.494     H
H       0.2858   0.6014    0.006     H
Co      0.2902  0.46327  0.63391    Co
Co      0.2902  0.96327  0.86609    Co
C       0.2917   0.4946   0.4529     C
C       0.2917   0.9946   0.0471     C
O       0.2923   0.0328   0.0783     O
O       0.2923   0.5328   0.4217     O
C       0.2931   0.0041   0.4525     C
C       0.2931   0.5041   0.0475     C
C       0.3008   0.3441   0.2899     C
C       0.3008   0.8441   0.2101     C
Co     0.30214  0.03656  0.63449    Co
Co     0.30214  0.53656  0.86551    Co
H       0.3186   0.1518   0.2201     H
H       0.3186   0.6518   0.2799     H
C       0.3301   0.1478   0.2892     C
C       0.3301   0.6478   0.2108     C
C       0.3303   0.3587   0.2435     C
C       0.3303   0.8587   0.2565     C
H       0.3419   0.3574   0.3569     H
H       0.3419   0.8574   0.1431     H
O       0.3605   0.4596   0.8466     O
O       0.3605   0.9596   0.6534     O
C       0.3622    0.137   0.2446     C
C       0.3622    0.637   0.2554     C
C       0.3626   0.3678   0.3264     C
C       0.3626   0.8678   0.1736     C
H       0.3687   0.1352   0.3561     H
H       0.3687   0.6352   0.1439     H
O       0.3779   0.0386   0.8461     O
O       0.3779   0.5386   0.6539     O
O       0.3854   0.4875   0.4789     O
O       0.3854   0.9875   0.0211     O
O       0.3894   0.0113   0.4786     O
O       0.3894   0.5113   0.0214     O
C       0.3901   0.1262   0.3256     C
C       0.3901   0.6262   0.1744     C
O       0.3941   0.3962   0.1541     O
O       0.3941   0.8962   0.3459     O
O       0.4042   0.4285   0.6811     O
O       0.4042   0.9285   0.8189     O
O       0.4066   0.3466   0.0558     O
O       0.4066   0.8466   0.4442     O
O       0.4084   0.4576   0.5766     O
O       0.4084   0.9576   0.9234     O
H       0.4165   0.4408   0.7654     H
H       0.4165   0.9408   0.7346     H
O       0.4186   0.0433   0.5763     O
O       0.4186   0.5433   0.9237     O
Co      0.4193  0.41781   0.0887    Co
Co      0.4193  0.91781   0.4113    Co
O       0.4219   0.0996   0.1555     O
O       0.4219   0.5996   0.3445     O
C       0.4271   0.3932   0.2345     C
C       0.4271   0.8932   0.2655     C
Co     0.42827  0.46651  0.95483    Co
Co     0.42827  0.96651  0.54517    Co
H        0.429   0.2488   0.0427     H
H        0.429   0.7488   0.4573     H
O       0.4328   0.0672   0.6815     O
O       0.4328   0.5672   0.8185     O
C       0.4342   0.3513    0.013     C
C       0.4342   0.8513    0.487     C
Co     0.43782  0.03438  0.95492    Co
Co     0.43782  0.53438  0.54508    Co
H       0.4387   0.0574   0.7652     H
H       0.4387   0.5574   0.7348     H
O       0.4392   0.1514   0.0569     O
O       0.4392   0.6514   0.4431     O
Co     0.44155  0.08015  0.08935    Co
Co     0.44155  0.58015  0.41065    Co
C       0.4431   0.2492   0.0106     C
C       0.4431   0.7492   0.4894     C
C       0.4459   0.2992   0.9866     C
C       0.4459   0.7992   0.5134     C
C       0.4518   0.4361    0.857     C
C       0.4518   0.9361    0.643     C
O        0.452    0.394   0.9924     O
O        0.452    0.894   0.5076     O
C        0.457   0.4078   0.3184     C
C        0.457   0.9078   0.1816     C
C       0.4571   0.1048    0.235     C
C       0.4571   0.6048    0.265     C
C       0.4609   0.2002   0.9878     C
C       0.4609   0.7002   0.5122     C
C        0.462    0.148   0.0141     C
C        0.462    0.648   0.4859     C
C       0.4636   0.4083   0.1863     C
C       0.4636   0.9083   0.3137     C
C       0.4718   0.0635   0.8565     C
C       0.4718   0.5635   0.6435     C
C        0.472   0.2997   0.9388     C
H        0.472   0.3289   0.4279     H
C        0.472   0.7997   0.5612     C
H        0.472   0.8289   0.0721     H
H       0.4724   0.2488   0.8823     H
H       0.4724   0.7488   0.6177     H
C       0.4784   0.2502   0.9148     C
C       0.4784   0.7502   0.5852     C
O       0.4816    0.105   0.9936     O
C       0.4816   0.4187   0.7716     C
O       0.4816    0.605   0.5064     O
C       0.4816   0.9187   0.7284     C
O        0.483   0.4317   0.3971     O
O        0.483   0.9317   0.1029     O
C       0.4833   0.0907   0.3178     C
C       0.4833   0.5907   0.1822     C
H       0.4846    0.333   0.9231     H
H       0.4846    0.833   0.5769     H
C        0.493   0.4185   0.2714     C
C        0.493   0.9185   0.2286     C
C       0.4946   0.0928   0.1865     C
C       0.4946   0.5928   0.3135     C
C       0.4947   0.2015   0.9416     C
C       0.4947   0.7015   0.5584     C
O        0.499   0.4337    0.897     O
O        0.499   0.9337    0.603     O
O        0.501   0.0663    0.397     O
O        0.501   0.5663    0.103     O
C       0.5053   0.2985   0.4416     C
C       0.5053   0.7985   0.0584     C
C       0.5054   0.4072   0.6865     C
C       0.5054   0.9072   0.8135     C
C        0.507   0.0815   0.7714     C
C        0.507   0.5815   0.7286     C
H       0.5154    0.167   0.4231     H
H       0.5154    0.667   0.0769     H
C       0.5167   0.4093   0.8178     C
C       0.5167   0.9093   0.6822     C
O        0.517   0.0683   0.8971     O
O        0.517   0.5683   0.6029     O
C       0.5184   0.0813   0.2716     C
O       0.5184    0.395   0.4936     O
C       0.5184   0.5813   0.2284     C
O       0.5184    0.895   0.0064     O
C       0.5216   0.2498   0.4148     C
C       0.5216   0.7498   0.0852     C
H       0.5276   0.2512   0.3823     H
H       0.5276   0.7512   0.1177     H
H        0.528   0.1711   0.9279     H
C        0.528   0.2003   0.4388     C
H        0.528   0.6711   0.5721     H
C        0.528   0.7003   0.0612     C
C       0.5282   0.4365   0.3565     C
C       0.5282   0.9365   0.1435     C
C       0.5364   0.0917   0.6863     C
C       0.5364   0.5917   0.8137     C
C        0.538    0.352   0.5141     C
C        0.538    0.852   0.9859     C
C       0.5391   0.2998   0.4878     C
C       0.5391   0.7998   0.0122     C
C       0.5429   0.3952    0.735     C
C       0.5429   0.8952    0.765     C
C        0.543   0.0922   0.8184     C
C        0.543   0.5922   0.6816     C
O        0.548    0.106   0.4924     O
O        0.548    0.606   0.0076     O
C       0.5482   0.0639    0.357     C
C       0.5482   0.5639    0.143     C
C       0.5541   0.2008   0.4866     C
C       0.5541   0.7008   0.0134     C
C       0.5569   0.2508   0.5106     C
C       0.5569   0.7508   0.9894     C
Co     0.55845  0.41985  0.58935    Co
Co     0.55845  0.91985  0.91065    Co
O       0.5608   0.3486   0.5569     O
O       0.5608   0.8486   0.9431     O
H       0.5613   0.4426   0.2652     H
H       0.5613   0.9426   0.2348     H
Co     0.56218  0.46562  0.45492    Co
Co     0.56218  0.96562  0.04508    Co
C       0.5658   0.1487    0.513     C
C       0.5658   0.6487    0.987     C
O       0.5672   0.4328   0.1815     O
O       0.5672   0.9328   0.3185     O
H        0.571   0.2512   0.5427     H
H        0.571   0.7512   0.9573     H
Co     0.57173  0.03349  0.45483    Co
Co     0.57173  0.53349  0.04517    Co
C       0.5729   0.1068   0.7345     C
C       0.5729   0.6068   0.7655     C
O       0.5781   0.4004   0.6555     O
O       0.5781   0.9004   0.8445     O
Co      0.5807  0.08219   0.5887    Co
Co      0.5807  0.58219   0.9113    Co
O       0.5814   0.4567   0.0763     O
O       0.5814   0.9567   0.4237     O
H       0.5835   0.0592   0.2654     H
H       0.5835   0.5592   0.2346     H
O       0.5916   0.0424   0.0766     O
O       0.5916   0.5424   0.4234     O
O       0.5934   0.1534   0.5558     O
O       0.5934   0.6534   0.9442     O
O       0.5958   0.0715   0.1811     O
O       0.5958   0.5715   0.3189     O
O       0.6059   0.1038   0.6541     O
O       0.6059   0.6038   0.8459     O
C       0.6099   0.3738   0.8256     C
C       0.6099   0.8738   0.6744     C
O       0.6106   0.4887   0.9786     O
O       0.6106   0.9887   0.5214     O
O       0.6146   0.0125   0.9789     O
O       0.6146   0.5125   0.5211     O
O       0.6221   0.4614   0.3461     O
O       0.6221   0.9614   0.1539     O
H       0.6313   0.3648   0.8561     H
H       0.6313   0.8648   0.6439     H
C       0.6374   0.1322   0.8264     C
C       0.6374   0.6322   0.6736     C
C       0.6378    0.363   0.7446     C
C       0.6378    0.863   0.7554     C
O       0.6395   0.0404   0.3466     O
O       0.6395   0.5404   0.1534     O
H       0.6581   0.1426   0.8569     H
H       0.6581   0.6426   0.6431     H
C       0.6697   0.1413   0.7435     C
C       0.6697   0.6413   0.7565     C
C       0.6699   0.3522   0.7892     C
C       0.6699   0.8522   0.7108     C
H       0.6814   0.3482   0.7201     H
H       0.6814   0.8482   0.7799     H
Co     0.69786  0.46344  0.13449    Co
Co     0.69786  0.96344  0.36551    Co
C       0.6992   0.1559   0.7899     C
C       0.6992   0.6559   0.7101     C
C       0.7069   0.4959   0.9525     C
C       0.7069   0.9959   0.5475     C
O       0.7077   0.4672   0.5783     O
O       0.7077   0.9672   0.9217     O
C       0.7083   0.0054   0.9529     C
C       0.7083   0.5054   0.5471     C
Co      0.7098  0.03673  0.13391    Co
Co      0.7098  0.53673  0.36609    Co
H       0.7142   0.3986    0.994     H
H       0.7142   0.8986    0.506     H
O       0.7161   0.0351   0.5768     O
O       0.7161   0.5351   0.9232     O
H       0.7182   0.1558    0.719     H
H       0.7182   0.6558    0.781     H
H       0.7344   0.3296   0.7948     H
H       0.7344   0.8296   0.7052     H
O       0.7366   0.4438   0.4526     O
O       0.7366   0.9438   0.0474     O
H       0.7436   0.1007   0.9971     H
H       0.7436   0.6007   0.5029     H
O       0.7524   0.0543   0.4521     O
O       0.7524   0.5543   0.0479     O
H        0.763   0.1825   0.7956     H
H        0.763   0.6825   0.7044     H
C        0.793   0.4123    0.985     C
C        0.793   0.9123    0.515     C
C       0.8091   0.4637   0.9602     C
C       0.8091   0.9637   0.5398     C
C       0.8184   0.0878   0.9872     C
C       0.8184   0.5878   0.5128     C
C       0.8237   0.0377   0.9609     C
C       0.8237   0.5377   0.5391     C
C       0.8367   0.4672   0.4416     C
C       0.8367   0.9672   0.0584     C
O       0.8388   0.4916   0.0929     O
O       0.8388   0.9916   0.4071     O
O       0.8418   0.0066   0.0923     O
O       0.8418   0.5066   0.4077     O
C       0.8427   0.0323   0.4387     C
C       0.8427   0.5323   0.0613     C
H       0.8779   0.3841   0.4911     H
H       0.8779   0.8841   0.0089     H
H       0.8813   0.3522   0.0127     H
H       0.8813   0.8522   0.4873     H
C       0.8926   0.3843   0.9952     C
C       0.8926   0.8843   0.5048     C
H        0.915   0.1171   0.4886     H
H        0.915   0.6171   0.0114     H
H       0.9276   0.1475   0.0138     H
H       0.9276   0.6475   0.4862     H
C       0.9284   0.4785   0.9434     C
C       0.9284   0.9785   0.5566     C
C       0.9286   0.1151   0.9966     C
C       0.9286   0.6151   0.5034     C
H       0.9329   0.4918   0.5756     H
H       0.9329   0.9918   0.9244     H
C        0.933   0.0227   0.9436     C
C        0.933   0.5227   0.5564     C
H       0.9405   0.0102   0.5747     H
H       0.9405   0.5102   0.9253     H
C       0.9516   0.4027   0.4818     C
C       0.9516   0.9027   0.0182     C
C       0.9522   0.4482   0.4534     C
C       0.9522   0.9482   0.0466     C
C       0.9728   0.0517   0.4525     C
C       0.9728   0.5517   0.0475     C
C       0.9836   0.0982   0.4802     C
C       0.9836   0.5982   0.0198     C
