data_I
_chemical_name_common  '/home/zhangsd/repos/MofS-CGCNN/ML/data/TSD/clean_cifs/FIZPOV_clean'
_cell_length_a 11.07800
_cell_length_b 16.01200
_cell_length_c 23.80400
_cell_angle_alpha 90.00000
_cell_angle_beta  95.33300
_cell_angle_gamma 90.00000
_space_group_name_H-M_alt      'P 1'


loop_
_space_group_symop_operation_xyz
  'x, y, z' 

loop_
_atom_site_label
_atom_site_fract_x
_atom_site_fract_y
_atom_site_fract_z
_atom_site_type_symbol
O       0.0364   0.6536  0.76529     O
O       0.0364   0.8464  0.26529     O
O       0.0381   0.5519  0.20811     O
O       0.0381   0.9481  0.70811     O
Zn      0.0473  0.51772  0.84704    Zn
Zn      0.0473  0.98228  0.34704    Zn
H       0.0698   0.6964   0.2464     H
H       0.0698   0.8036   0.7464     H
O       0.0752   0.0616  0.60483     O
O       0.0752   0.4384  0.10483     O
H       0.1116   0.0796   0.5048     H
H       0.1116   0.4204   0.0048     H
C       0.1148    0.668   0.8054     C
C       0.1148    0.832   0.3054     C
C       0.1289   0.5349   0.2422     C
C       0.1289   0.9651   0.7422     C
C       0.1294   0.6847   0.2755     C
C       0.1294   0.8153   0.7755     C
O       0.1314   0.0521  0.40342     O
O       0.1314   0.4479  0.90342     O
C       0.1361   0.1278   0.6118     C
C       0.1361   0.3722   0.1118     C
O         0.15    0.614   0.8418     O
O         0.15    0.886   0.3418     O
O       0.1526   0.1686  0.65738     O
O       0.1526   0.3314  0.15738     O
Zn     0.15349  0.15789  0.74084    Zn
Zn     0.15349  0.34211  0.24084    Zn
C       0.1663   0.1237   0.5094     C
C       0.1663   0.3763   0.0094     C
C       0.1678   0.7456   0.3116     C
C       0.1678   0.7544   0.8116     C
C       0.1765    0.605   0.2807     C
C       0.1765    0.895   0.7807     C
O       0.1801   0.0329  0.74693     O
O       0.1801   0.4671  0.24693     O
C       0.1844   0.1205   0.4044     C
C       0.1844   0.3795   0.9044     C
C       0.1954   0.1568   0.5615     C
C       0.1954   0.3432   0.0615     C
O       0.1999   0.1604   0.3622     O
O       0.1999   0.3396   0.8622     O
C        0.218   0.1555    0.463     C
C        0.218   0.3445    0.963     C
H       0.2311   0.5049   0.4147     H
H       0.2311   0.9951   0.9147     H
H       0.2442    0.116     0.96     H
H       0.2442    0.384     0.46     H
C       0.2525   0.7268    0.358     C
C       0.2525   0.7732    0.858     C
C        0.266   0.5872   0.3248     C
C        0.266   0.9128   0.8248     C
H       0.2762   0.7318   0.8841     H
H       0.2762   0.7682   0.3841     H
C        0.277   0.2232   0.5683     C
C        0.277   0.2768   0.0683     C
H       0.2963   0.2456   0.6041     H
H       0.2963   0.2544   0.1041     H
C       0.2975   0.2237   0.4702     C
C       0.2975   0.2763   0.9702     C
C          0.3   0.6476   0.3648     C
C          0.3   0.8524   0.8648     C
C        0.301   0.0068   0.9381     C
C        0.301   0.4932   0.4381     C
H       0.3026   0.5349   0.3271     H
H       0.3026   0.9651   0.8271     H
C        0.308   0.0784   0.9657     C
C        0.308   0.4216   0.4657     C
H       0.3289   0.2472   0.4389     H
H       0.3289   0.2528   0.9389     H
C       0.3294   0.2438   0.0232     C
C       0.3294   0.2562   0.5232     C
C       0.3959   0.6294   0.4121     C
C       0.3959   0.8706   0.9121     C
C       0.3986   0.5547  0.44289     C
C       0.3986   0.9453  0.94289     C
C       0.4103   0.1002   0.0041     C
C       0.4103   0.3998   0.5041     C
C        0.418   0.1752   0.0329     C
C        0.418   0.3248   0.5329     C
H       0.4859   0.7359   0.4041     H
H       0.4859   0.7641   0.9041     H
C       0.4874   0.6866   0.4249     C
C       0.4874   0.8134   0.9249     C
C       0.4974   0.5393   0.4841     C
C       0.4974   0.9607   0.9841     C
C       0.5026   0.0393   0.0159     C
C       0.5026   0.4607   0.5159     C
C       0.5126   0.1866   0.0751     C
C       0.5126   0.3134   0.5751     C
H       0.5141   0.2359   0.0959     H
H       0.5141   0.2641   0.5959     H
C        0.582   0.6752   0.4671     C
C        0.582   0.8248   0.9671     C
C       0.5897   0.6002   0.4959     C
C       0.5897   0.8998   0.9959     C
C       0.6014   0.0547  0.05711     C
C       0.6014   0.4453  0.55711     C
C       0.6041   0.1294   0.0879     C
C       0.6041   0.3706   0.5879     C
C       0.6706   0.7438   0.4768     C
C       0.6706   0.7562   0.9768     C
H       0.6711   0.7472   0.0611     H
H       0.6711   0.7528   0.5611     H
C        0.692   0.5784   0.5343     C
C        0.692   0.9216   0.0343     C
H       0.6974   0.0349   0.1729     H
H       0.6974   0.4651   0.6729     H
C        0.699   0.5068   0.5619     C
C        0.699   0.9932   0.0619     C
C          0.7   0.1476   0.1352     C
C          0.7   0.3524   0.6352     C
C       0.7025   0.7237   0.0298     C
C       0.7025   0.7763   0.5298     C
H       0.7037   0.7456   0.8959     H
H       0.7037   0.7544   0.3959     H
C        0.723   0.7232   0.9317     C
C        0.723   0.7768   0.4317     C
H       0.7238   0.2318   0.6159     H
H       0.7238   0.2682   0.1159     H
C        0.734   0.0872   0.1752     C
C        0.734   0.4128   0.6752     C
C       0.7475   0.2268    0.142     C
C       0.7475   0.2732    0.642     C
H       0.7558    0.616     0.54     H
H       0.7558    0.884     0.04     H
H       0.7689   0.0049   0.0853     H
H       0.7689   0.4951   0.5853     H
C        0.782   0.6555    0.037     C
C        0.782   0.8445    0.537     C
O       0.8001   0.6604   0.1378     O
O       0.8001   0.8396   0.6378     O
C       0.8046   0.6568   0.9385     C
C       0.8046   0.8432   0.4385     C
C       0.8156   0.6205   0.0956     C
C       0.8156   0.8795   0.5956     C
O       0.8199   0.5329  0.75307     O
O       0.8199   0.9671  0.25307     O
C       0.8235    0.105   0.2193     C
C       0.8235    0.395   0.7193     C
C       0.8322   0.2456   0.1884     C
C       0.8322   0.2544   0.6884     C
C       0.8337   0.6237   0.9906     C
C       0.8337   0.8763   0.4906     C
Zn     0.84651  0.65789  0.75916    Zn
Zn     0.84651  0.84211  0.25916    Zn
O       0.8474   0.6686  0.84262     O
O       0.8474   0.8314  0.34262     O
O         0.85    0.114   0.6582     O
O         0.85    0.386   0.1582     O
C       0.8639   0.6278   0.8882     C
C       0.8639   0.8722   0.3882     C
O       0.8686   0.5521  0.09658     O
O       0.8686   0.9479  0.59658     O
C       0.8706   0.1847   0.2245     C
C       0.8706   0.3153   0.7245     C
C       0.8711   0.0349   0.2578     C
C       0.8711   0.4651   0.7578     C
C       0.8852    0.168   0.6946     C
C       0.8852    0.332   0.1946     C
H       0.8884   0.5796   0.9952     H
H       0.8884   0.9204   0.4952     H
O       0.9248   0.5616  0.89517     O
O       0.9248   0.9384  0.39517     O
H       0.9302   0.1964   0.2536     H
H       0.9302   0.3036   0.7536     H
Zn      0.9527  0.01772  0.65296    Zn
Zn      0.9527  0.48228  0.15296    Zn
O       0.9619   0.0519  0.29189     O
O       0.9619   0.4481  0.79189     O
O       0.9636   0.1536  0.73471     O
O       0.9636   0.3464  0.23471     O
