data_I
_chemical_name_common  '/home/zhangsd/repos/MofS-CGCNN/ML/data/TSD/clean_cifs/FOFHUE_clean'
_cell_length_a  9.52860
_cell_length_b 10.14510
_cell_length_c 12.57960
_cell_angle_alpha 86.42900
_cell_angle_beta  69.60600
_cell_angle_gamma 62.33800
_space_group_name_H-M_alt      'P 1'


loop_
_space_group_symop_operation_xyz
  'x, y, z' 

loop_
_atom_site_label
_atom_site_fract_x
_atom_site_fract_y
_atom_site_fract_z
_atom_site_type_symbol
P      0.00442  0.15739  0.11276     P
O       0.0062   0.5756   0.3715     O
C       0.0145    0.451   0.3635     C
C       0.0214   0.6045   0.1302     C
O       0.0445   0.9847   0.3593     O
O       0.0623   0.4717   0.1102     O
H       0.0847   0.6026   0.8891     H
O       0.0939   0.1485   0.4976     O
Ga     0.10299  0.14605  0.33679    Ga
O       0.1114   0.6693   0.8889     O
P      0.11161  0.03463  0.58446     P
O       0.1164   0.0775    0.993     O
O       0.1168   0.7863   0.1262     O
O       0.1184   0.1442   0.1776     O
O        0.125   0.8972   0.8261     O
O       0.1265   0.2856   0.8368     O
Ga     0.13341   0.0821  0.83626    Ga
O       0.1401   0.6849   0.6116     O
O       0.1472   0.3267   0.3247     O
C       0.1537   0.5564   0.5969     C
O       0.1564   0.0953   0.6705     O
C       0.1639   0.6464   0.1159     C
Mn     0.25326  0.23574  0.56586    Mn
O       0.2651   0.8777   0.5242     O
O       0.2898   0.4382   0.5576     O
O       0.3102   0.5464   0.0995     O
O       0.3441   0.0202   0.2797     O
H       0.3606   0.8812   0.4827     H
O       0.3764   0.9864    0.792     O
O       0.4234   0.1504   0.3994     O
O       0.4543   0.1314   0.6269     O
P       0.4856  0.01369  0.31756     P
P       0.5144  0.98631  0.68244     P
O       0.5457   0.8686   0.3731     O
O       0.5766   0.8496   0.6006     O
O       0.6236   0.0136    0.208     O
H       0.6394   0.1188   0.5173     H
O       0.6559   0.9798   0.7203     O
O       0.6898   0.4536   0.9005     O
O       0.7102   0.5618   0.4424     O
O       0.7349   0.1223   0.4758     O
Mn     0.74674  0.76426  0.43414    Mn
C       0.8361   0.3536   0.8841     C
O       0.8436   0.9047   0.3295     O
C       0.8463   0.4436   0.4031     C
O       0.8528   0.6733   0.6753     O
O       0.8599   0.3151   0.3884     O
Ga     0.86659   0.9179  0.16374    Ga
O       0.8735   0.7144   0.1632     O
O        0.875   0.1028   0.1739     O
O       0.8816   0.8558   0.8224     O
O       0.8832   0.2137   0.8738     O
O       0.8836   0.9225    0.007     O
P      0.88839  0.96537  0.41554     P
O       0.8886   0.3307   0.1111     O
Ga     0.89701  0.85395  0.66321    Ga
O       0.9061   0.8515   0.5024     O
H       0.9153   0.3974   0.1109     H
O       0.9377   0.5283   0.8898     O
O       0.9555   0.0153   0.6407     O
C       0.9786   0.3955   0.8698     C
C       0.9855    0.549   0.6365     C
O       0.9938   0.4244   0.6285     O
P      0.99558  0.84261  0.88724     P
