data_I
_chemical_name_common  '/home/zhangsd/repos/MofS-CGCNN/ML/data/TSD/clean_cifs/FOFHAK_clean'
_cell_length_a  8.14520
_cell_length_b  8.90290
_cell_length_c 10.44520
_cell_angle_alpha 111.43700
_cell_angle_beta  103.73400
_cell_angle_gamma 102.09600
_space_group_name_H-M_alt      'P 1'


loop_
_space_group_symop_operation_xyz
  'x, y, z' 

loop_
_atom_site_label
_atom_site_fract_x
_atom_site_fract_y
_atom_site_fract_z
_atom_site_type_symbol
C       0.0038   0.4379   0.9271     C
O       0.0314   0.9076   0.8009     O
O       0.1317   0.6135   0.1844     O
O       0.1441   0.3974   0.9326     O
O       0.1535   0.3028   0.1465     O
P      0.16393  0.18126  0.21716     P
Ga     0.23199  0.94593  0.94719    Ga
O       0.2335   0.0403   0.1334     O
O       0.2772   0.2648   0.3774     O
O       0.2834   0.7488   0.9253     O
Ga     0.31196  0.49083  0.14081    Ga
O       0.4017   0.0764   0.9097     O
F       0.4332   0.5952   0.3439     F
O       0.4459   0.6847    0.127     O
P      0.46296  0.74204  0.00981     P
O       0.4811   0.3746   0.1055     O
Mn         0.5      0.5      0.5    Mn
O       0.5189   0.6254   0.8945     O
P      0.53704  0.25796  0.99019     P
O       0.5541   0.3153    0.873     O
F       0.5668   0.4048   0.6561     F
O       0.5983   0.9236   0.0903     O
Ga     0.68804  0.50917  0.85919    Ga
O       0.7166   0.2512   0.0747     O
O       0.7228   0.7352   0.6226     O
O       0.7665   0.9597   0.8666     O
Ga     0.76801  0.05407  0.05281    Ga
P      0.83607  0.81874  0.78284     P
O       0.8465   0.6972   0.8535     O
O       0.8559   0.6026   0.0674     O
O       0.8683   0.3865   0.8156     O
O       0.9686   0.0924   0.1991     O
C       0.9962   0.5621   0.0729     C
