data_I
_chemical_name_common  '/home/zhangsd/repos/MofS-CGCNN/ML/data/TSD/clean_cifs/FONPUV_clean'
_cell_length_a  6.57160
_cell_length_b 20.21930
_cell_length_c 27.93500
_cell_angle_alpha 90.00000
_cell_angle_beta  90.00000
_cell_angle_gamma 90.00000
_space_group_name_H-M_alt      'P 1'


loop_
_space_group_symop_operation_xyz
  'x, y, z' 

loop_
_atom_site_label
_atom_site_fract_x
_atom_site_fract_y
_atom_site_fract_z
_atom_site_type_symbol
C       0.0053   0.4092   0.3094     C
C       0.0053   0.9092   0.1906     C
O       0.0083  0.34182  0.22201     O
O       0.0083  0.84182  0.27799     O
Zn     0.01403  0.22132  0.66775    Zn
Zn     0.01403  0.72132  0.83225    Zn
C       0.0282   0.4347  0.35492     C
C       0.0282   0.9347  0.14508     C
H       0.0349   0.0055   0.6591     H
H       0.0349   0.5055   0.8409     H
O       0.0608   0.1455  0.61791     O
O       0.0608   0.6455  0.88209     O
H        0.072    0.073   0.8778     H
H        0.072    0.573   0.6222     H
H       0.0731   0.4633   0.7636     H
H       0.0731   0.9633   0.7364     H
H       0.1109   0.1148   0.8016     H
H       0.1109   0.6148   0.6984     H
O       0.1199  0.12538  0.13777     O
O       0.1199  0.62538  0.36223     O
C       0.1376   0.3875  0.22648     C
C       0.1376   0.8875  0.27352     C
C        0.151   0.4816  0.83293     C
C        0.151   0.9816  0.66707     C
C       0.1566   0.4194  0.27499     C
C       0.1566   0.9194  0.22501     C
C       0.1734   0.4557  0.78664     C
C       0.1734   0.9557  0.71336     C
H       0.1737    0.128     0.52     H
H       0.1737    0.628     0.98     H
H       0.1799   0.4081   0.4495     H
H       0.1799   0.9081   0.0505     H
O       0.1879   0.3653  0.53492     O
O       0.1879   0.8653  0.96508     O
Zn     0.18965  0.37669  0.62851    Zn
Zn     0.18965  0.87669  0.87149    Zn
C       0.1975   0.4715  0.36704     C
C       0.1975   0.9715  0.13296     C
H       0.2015   0.0528   0.4579     H
H       0.2015   0.5528   0.0421     H
C       0.2037    0.084   0.5264     C
C       0.2037    0.584   0.9736     C
C       0.2089   0.4524  0.45553     C
C       0.2089   0.9524  0.04447     C
H       0.2136   0.2563   0.1084     H
H       0.2136   0.7563   0.3916     H
C       0.2168   0.4251  0.54246     C
C       0.2168   0.9251  0.95754     C
C       0.2205   0.0387  0.48928     C
C       0.2205   0.5387  0.01072     C
C       0.2225    0.114  0.61248     C
C       0.2225    0.614  0.88752     C
C       0.2249   0.4965  0.41737     C
C       0.2249   0.9965  0.08263     C
O       0.2262  0.27828  0.63696     O
O       0.2262  0.77828  0.86304     O
O       0.2318   0.4491  0.58452     O
O       0.2318   0.9491  0.91548     O
C       0.2325   0.0625  0.57368     C
C       0.2325   0.5625  0.92632     C
C       0.2353   0.4734  0.50213     C
C       0.2353   0.9734  0.99787     C
O       0.2445  0.40807  0.69413     O
O       0.2445  0.90807  0.80587     O
O       0.2555  0.40807  0.19413     O
O       0.2555  0.90807  0.30587     O
C       0.2647   0.4734  0.00213     C
C       0.2647   0.9734  0.49787     C
C       0.2675   0.0625  0.07368     C
C       0.2675   0.5625  0.42632     C
O       0.2682   0.4491  0.08452     O
O       0.2682   0.9491  0.41548     O
O       0.2738  0.27828  0.13696     O
O       0.2738  0.77828  0.36304     O
C       0.2751   0.4965  0.91737     C
C       0.2751   0.9965  0.58263     C
C       0.2775    0.114  0.11248     C
C       0.2775    0.614  0.38752     C
C       0.2795   0.0387  0.98928     C
C       0.2795   0.5387  0.51072     C
C       0.2832   0.4251  0.04246     C
C       0.2832   0.9251  0.45754     C
H       0.2864   0.2563   0.6084     H
H       0.2864   0.7563   0.8916     H
C       0.2911   0.4524  0.95553     C
C       0.2911   0.9524  0.54447     C
C       0.2963    0.084   0.0264     C
C       0.2963    0.584   0.4736     C
H       0.2985   0.0528   0.9579     H
H       0.2985   0.5528   0.5421     H
C       0.3025   0.4715  0.86704     C
C       0.3025   0.9715  0.63296     C
Zn     0.31035  0.37669  0.12851    Zn
Zn     0.31035  0.87669  0.37149    Zn
O       0.3121   0.3653  0.03492     O
O       0.3121   0.8653  0.46508     O
H       0.3201   0.4081   0.9495     H
H       0.3201   0.9081   0.5505     H
H       0.3263    0.128     0.02     H
H       0.3263    0.628     0.48     H
C       0.3266   0.4557  0.28664     C
C       0.3266   0.9557  0.21336     C
C       0.3434   0.4194  0.77499     C
C       0.3434   0.9194  0.72501     C
C        0.349   0.4816  0.33293     C
C        0.349   0.9816  0.16707     C
C       0.3624   0.3875  0.72648     C
C       0.3624   0.8875  0.77352     C
O       0.3801  0.12538  0.63777     O
O       0.3801  0.62538  0.86223     O
H       0.3891   0.1148   0.3016     H
H       0.3891   0.6148   0.1984     H
H       0.4269   0.4633   0.2636     H
H       0.4269   0.9633   0.2364     H
H        0.428    0.073   0.3778     H
H        0.428    0.573   0.1222     H
O       0.4392   0.1455  0.11791     O
O       0.4392   0.6455  0.38209     O
H       0.4651   0.0055   0.1591     H
H       0.4651   0.5055   0.3409     H
C       0.4718   0.4347  0.85492     C
C       0.4718   0.9347  0.64508     C
Zn     0.48597  0.22132  0.16775    Zn
Zn     0.48597  0.72132  0.33225    Zn
O       0.4917  0.34182  0.72201     O
O       0.4917  0.84182  0.77799     O
C       0.4947   0.4092   0.8094     C
C       0.4947   0.9092   0.6906     C
C       0.5053   0.0908   0.3094     C
C       0.5053   0.5908   0.1906     C
O       0.5083  0.15818  0.22201     O
O       0.5083  0.65818  0.27799     O
Zn     0.51403  0.27868  0.66775    Zn
Zn     0.51403  0.77868  0.83225    Zn
C       0.5282   0.0653  0.35492     C
C       0.5282   0.5653  0.14508     C
H       0.5349   0.4945   0.6591     H
H       0.5349   0.9945   0.8409     H
O       0.5608   0.3545  0.61791     O
O       0.5608   0.8545  0.88209     O
H        0.572    0.427   0.8778     H
H        0.572    0.927   0.6222     H
H       0.5731   0.0367   0.7636     H
H       0.5731   0.5367   0.7364     H
H       0.6109   0.3852   0.8016     H
H       0.6109   0.8852   0.6984     H
O       0.6199  0.37462  0.13777     O
O       0.6199  0.87462  0.36223     O
C       0.6376   0.1125  0.22648     C
C       0.6376   0.6125  0.27352     C
C        0.651   0.0184  0.83293     C
C        0.651   0.5184  0.66707     C
C       0.6566   0.0806  0.27499     C
C       0.6566   0.5806  0.22501     C
C       0.6734   0.0443  0.78664     C
C       0.6734   0.5443  0.71336     C
H       0.6737    0.372     0.52     H
H       0.6737    0.872     0.98     H
H       0.6799   0.0919   0.4495     H
H       0.6799   0.5919   0.0505     H
O       0.6879   0.1347  0.53492     O
O       0.6879   0.6347  0.96508     O
Zn     0.68965  0.12331  0.62851    Zn
Zn     0.68965  0.62331  0.87149    Zn
C       0.6975   0.0285  0.36704     C
C       0.6975   0.5285  0.13296     C
H       0.7015   0.4472   0.4579     H
H       0.7015   0.9472   0.0421     H
C       0.7037    0.416   0.5264     C
C       0.7037    0.916   0.9736     C
C       0.7089   0.0476  0.45553     C
C       0.7089   0.5476  0.04447     C
H       0.7136   0.2437   0.1084     H
H       0.7136   0.7437   0.3916     H
C       0.7168   0.0749  0.54246     C
C       0.7168   0.5749  0.95754     C
C       0.7205   0.4613  0.48928     C
C       0.7205   0.9613  0.01072     C
C       0.7225    0.386  0.61248     C
C       0.7225    0.886  0.88752     C
C       0.7249   0.0035  0.41737     C
C       0.7249   0.5035  0.08263     C
O       0.7262  0.22172  0.63696     O
O       0.7262  0.72172  0.86304     O
O       0.7318   0.0509  0.58452     O
O       0.7318   0.5509  0.91548     O
C       0.7325   0.4375  0.57368     C
C       0.7325   0.9375  0.92632     C
C       0.7353   0.0266  0.50213     C
C       0.7353   0.5266  0.99787     C
O       0.7445  0.09193  0.69413     O
O       0.7445  0.59193  0.80587     O
O       0.7555  0.09193  0.19413     O
O       0.7555  0.59193  0.30587     O
C       0.7647   0.0266  0.00213     C
C       0.7647   0.5266  0.49787     C
C       0.7675   0.4375  0.07368     C
C       0.7675   0.9375  0.42632     C
O       0.7682   0.0509  0.08452     O
O       0.7682   0.5509  0.41548     O
O       0.7738  0.22172  0.13696     O
O       0.7738  0.72172  0.36304     O
C       0.7751   0.0035  0.91737     C
C       0.7751   0.5035  0.58263     C
C       0.7775    0.386  0.11248     C
C       0.7775    0.886  0.38752     C
C       0.7795   0.4613  0.98928     C
C       0.7795   0.9613  0.51072     C
C       0.7832   0.0749  0.04246     C
C       0.7832   0.5749  0.45754     C
H       0.7864   0.2437   0.6084     H
H       0.7864   0.7437   0.8916     H
C       0.7911   0.0476  0.95553     C
C       0.7911   0.5476  0.54447     C
C       0.7963    0.416   0.0264     C
C       0.7963    0.916   0.4736     C
H       0.7985   0.4472   0.9579     H
H       0.7985   0.9472   0.5421     H
C       0.8025   0.0285  0.86704     C
C       0.8025   0.5285  0.63296     C
Zn     0.81035  0.12331  0.12851    Zn
Zn     0.81035  0.62331  0.37149    Zn
O       0.8121   0.1347  0.03492     O
O       0.8121   0.6347  0.46508     O
H       0.8201   0.0919   0.9495     H
H       0.8201   0.5919   0.5505     H
H       0.8263    0.372     0.02     H
H       0.8263    0.872     0.48     H
C       0.8266   0.0443  0.28664     C
C       0.8266   0.5443  0.21336     C
C       0.8434   0.0806  0.77499     C
C       0.8434   0.5806  0.72501     C
C        0.849   0.0184  0.33293     C
C        0.849   0.5184  0.16707     C
C       0.8624   0.1125  0.72648     C
C       0.8624   0.6125  0.77352     C
O       0.8801  0.37462  0.63777     O
O       0.8801  0.87462  0.86223     O
H       0.8891   0.3852   0.3016     H
H       0.8891   0.8852   0.1984     H
H       0.9269   0.0367   0.2636     H
H       0.9269   0.5367   0.2364     H
H        0.928    0.427   0.3778     H
H        0.928    0.927   0.1222     H
O       0.9392   0.3545  0.11791     O
O       0.9392   0.8545  0.38209     O
H       0.9651   0.4945   0.1591     H
H       0.9651   0.9945   0.3409     H
C       0.9718   0.0653  0.85492     C
C       0.9718   0.5653  0.64508     C
Zn     0.98597  0.27868  0.16775    Zn
Zn     0.98597  0.77868  0.33225    Zn
O       0.9917  0.15818  0.72201     O
O       0.9917  0.65818  0.77799     O
C       0.9947   0.0908   0.8094     C
C       0.9947   0.5908   0.6906     C
