data_I
_chemical_name_common  '/home/zhangsd/repos/MofS-CGCNN/ML/data/TSD/clean_cifs/FORQEJ_clean'
_cell_length_a 30.72700
_cell_length_b 15.76900
_cell_length_c 22.11000
_cell_angle_alpha 90.00000
_cell_angle_beta  133.08000
_cell_angle_gamma 90.00000
_space_group_name_H-M_alt      'P 1'


loop_
_space_group_symop_operation_xyz
  'x, y, z' 

loop_
_atom_site_label
_atom_site_fract_x
_atom_site_fract_y
_atom_site_fract_z
_atom_site_type_symbol
H       0.0133   0.3607   0.4631     H
H       0.0133   0.6393   0.9631     H
O       0.0192   0.2179   0.1117     O
O       0.0192   0.7821   0.6117     O
C       0.0353   0.2081   0.4307     C
C       0.0353   0.7919   0.9307     C
C        0.054   0.3533   0.4962     C
C        0.054   0.6467   0.9962     C
O       0.0597   0.1464   0.4312     O
O       0.0597   0.8536   0.9312     O
C       0.0759   0.2799   0.4887     C
C       0.0759   0.7201   0.9887     C
H       0.0808   0.4652   0.5585     H
H       0.0808   0.5348   0.0585     H
C       0.0941    0.415   0.5538     C
C       0.0941    0.585   0.0538     C
Ce     0.11003  0.13689  0.17291    Ce
Ce     0.11003  0.86311  0.67291    Ce
O       0.1242   0.1155    0.296     O
O       0.1242   0.8845    0.796     O
N       0.1329   0.2674   0.5356     N
N       0.1329   0.7326   0.0356     N
O       0.1336   0.0286   0.1171     O
O       0.1336   0.9714   0.6171     O
C       0.1501   0.0536   0.3454     C
C       0.1501   0.9464   0.8454     C
C       0.1559   0.3989   0.6051     C
C       0.1559   0.6011   0.1051     C
O        0.159   0.0471   0.4096     O
O        0.159   0.9529   0.9096     O
C       0.1622   0.0402   0.6534     C
C       0.1622   0.9598   0.1534     C
N       0.1625   0.0024   0.7592     N
N       0.1625   0.9976   0.2592     N
Ce     0.16945   0.1282  0.51442    Ce
Ce     0.16945   0.8718  0.01442    Ce
C       0.1736   0.3238   0.5942     C
C       0.1736   0.6762   0.0942     C
O       0.1737   0.0966   0.6268     O
O       0.1737   0.9034   0.1268     O
C       0.1755   0.0124   0.8293     C
C       0.1755   0.9876   0.3293     C
C        0.184    0.056    0.738     C
H        0.184   0.4379   0.6453     H
H        0.184   0.5621   0.1453     H
C        0.184    0.944    0.238     C
C       0.2147   0.0754   0.8844     C
C       0.2147   0.9246   0.3844     C
O       0.2235   0.1503   0.2949     O
O       0.2235   0.8497   0.7949     O
H       0.2236    0.083   0.9335     H
H       0.2236    0.917   0.4335     H
C       0.2259    0.117   0.7929     C
C       0.2259    0.883   0.2929     C
H       0.2327   0.3328   0.0967     H
H       0.2327   0.6672   0.5967     H
C       0.2378   0.3003   0.6473     C
C       0.2378   0.6997   0.1473     C
C         0.24   0.1259   0.8657     C
C         0.24   0.8741   0.3657     C
H       0.2438   0.1505   0.7804     H
H       0.2438   0.8495   0.2804     H
O        0.247   0.2336    0.627     O
O        0.247   0.7664    0.127     O
O        0.253   0.2664    0.373     O
O        0.253   0.7336    0.873     O
H       0.2562   0.3495   0.2196     H
H       0.2562   0.6505   0.7196     H
C         0.26   0.3741   0.1343     C
C         0.26   0.6259   0.6343     C
C       0.2622   0.1997   0.3527     C
C       0.2622   0.8003   0.8527     C
H       0.2673   0.1672   0.9033     H
H       0.2673   0.8328   0.4033     H
C       0.2741    0.383   0.2071     C
C       0.2741    0.617   0.7071     C
H       0.2764    0.417   0.0665     H
H       0.2764    0.583   0.5665     H
O       0.2765   0.3497   0.7051     O
O       0.2765   0.6503   0.2051     O
C       0.2853   0.4246   0.1156     C
C       0.2853   0.5754   0.6156     C
H        0.316   0.0621   0.3547     H
C        0.316    0.444    0.262     C
C        0.316    0.556    0.762     C
H        0.316   0.9379   0.8547     H
C       0.3245   0.4876   0.1707     C
C       0.3245   0.5124   0.6707     C
O       0.3263   0.4034   0.3732     O
O       0.3263   0.5966   0.8732     O
C       0.3264   0.1762   0.4058     C
C       0.3264   0.8238   0.9058     C
Ce     0.33055   0.3718  0.48558    Ce
Ce     0.33055   0.6282  0.98558    Ce
N       0.3375   0.4976   0.2408     N
N       0.3375   0.5024   0.7408     N
C       0.3378   0.4598   0.3466     C
C       0.3378   0.5402   0.8466     C
O        0.341   0.4529   0.5904     O
O        0.341   0.5471   0.0904     O
C       0.3441   0.1011   0.3949     C
C       0.3441   0.8989   0.8949     C
C       0.3499   0.4464   0.6546     C
C       0.3499   0.5536   0.1546     C
O       0.3664   0.4714   0.8829     O
O       0.3664   0.5286   0.3829     O
N       0.3671   0.2326   0.4644     N
N       0.3671   0.7674   0.9644     N
O       0.3758   0.3845    0.704     O
O       0.3758   0.6155    0.204     O
Ce     0.38997  0.36311  0.82709    Ce
Ce     0.38997  0.63689  0.32709    Ce
C       0.4059    0.085   0.4462     C
C       0.4059    0.915   0.9462     C
H       0.4192   0.0348   0.4415     H
H       0.4192   0.9652   0.9415     H
C       0.4241   0.2201   0.5113     C
C       0.4241   0.7799   0.0113     C
O       0.4403   0.3536   0.5688     O
O       0.4403   0.6464   0.0688     O
C        0.446   0.1467   0.5038     C
C        0.446   0.8533   0.0038     C
C       0.4647   0.2919   0.5693     C
C       0.4647   0.7081   0.0693     C
O       0.4808   0.2821   0.8883     O
O       0.4808   0.7179   0.3883     O
H       0.4867   0.1393   0.5369     H
H       0.4867   0.8607   0.0369     H
H       0.5133   0.1393   0.9631     H
H       0.5133   0.8607   0.4631     H
O       0.5192   0.2821   0.6117     O
O       0.5192   0.7179   0.1117     O
C       0.5353   0.2919   0.9307     C
C       0.5353   0.7081   0.4307     C
C        0.554   0.1467   0.9962     C
C        0.554   0.8533   0.4962     C
O       0.5597   0.3536   0.9312     O
O       0.5597   0.6464   0.4312     O
C       0.5759   0.2201   0.9887     C
C       0.5759   0.7799   0.4887     C
H       0.5808   0.0348   0.0585     H
H       0.5808   0.9652   0.5585     H
C       0.5941    0.085   0.0538     C
C       0.5941    0.915   0.5538     C
Ce     0.61003  0.36311  0.67291    Ce
Ce     0.61003  0.63689  0.17291    Ce
O       0.6242   0.3845    0.796     O
O       0.6242   0.6155    0.296     O
N       0.6329   0.2326   0.0356     N
N       0.6329   0.7674   0.5356     N
O       0.6336   0.4714   0.6171     O
O       0.6336   0.5286   0.1171     O
C       0.6501   0.4464   0.8454     C
C       0.6501   0.5536   0.3454     C
C       0.6559   0.1011   0.1051     C
C       0.6559   0.8989   0.6051     C
O        0.659   0.4529   0.9096     O
O        0.659   0.5471   0.4096     O
C       0.6622   0.4598   0.1534     C
C       0.6622   0.5402   0.6534     C
N       0.6625   0.4976   0.2592     N
N       0.6625   0.5024   0.7592     N
Ce     0.66945   0.3718  0.01442    Ce
Ce     0.66945   0.6282  0.51442    Ce
C       0.6736   0.1762   0.0942     C
C       0.6736   0.8238   0.5942     C
O       0.6737   0.4034   0.1268     O
O       0.6737   0.5966   0.6268     O
C       0.6755   0.4876   0.3293     C
C       0.6755   0.5124   0.8293     C
H        0.684   0.0621   0.1453     H
C        0.684    0.444    0.238     C
C        0.684    0.556    0.738     C
H        0.684   0.9379   0.6453     H
C       0.7147   0.4246   0.3844     C
C       0.7147   0.5754   0.8844     C
O       0.7235   0.3497   0.7949     O
O       0.7235   0.6503   0.2949     O
H       0.7236    0.417   0.4335     H
H       0.7236    0.583   0.9335     H
C       0.7259    0.383   0.2929     C
C       0.7259    0.617   0.7929     C
H       0.7327   0.1672   0.5967     H
H       0.7327   0.8328   0.0967     H
C       0.7378   0.1997   0.1473     C
C       0.7378   0.8003   0.6473     C
C         0.74   0.3741   0.3657     C
C         0.74   0.6259   0.8657     C
H       0.7438   0.3495   0.2804     H
H       0.7438   0.6505   0.7804     H
O        0.747   0.2664    0.127     O
O        0.747   0.7336    0.627     O
O        0.753   0.2336    0.873     O
O        0.753   0.7664    0.373     O
H       0.7562   0.1505   0.7196     H
H       0.7562   0.8495   0.2196     H
C         0.76   0.1259   0.6343     C
C         0.76   0.8741   0.1343     C
C       0.7622   0.3003   0.8527     C
C       0.7622   0.6997   0.3527     C
H       0.7673   0.3328   0.4033     H
H       0.7673   0.6672   0.9033     H
C       0.7741    0.117   0.7071     C
C       0.7741    0.883   0.2071     C
H       0.7764    0.083   0.5665     H
H       0.7764    0.917   0.0665     H
O       0.7765   0.1503   0.2051     O
O       0.7765   0.8497   0.7051     O
C       0.7853   0.0754   0.6156     C
C       0.7853   0.9246   0.1156     C
C        0.816    0.056    0.762     C
H        0.816   0.4379   0.8547     H
H        0.816   0.5621   0.3547     H
C        0.816    0.944    0.262     C
C       0.8245   0.0124   0.6707     C
C       0.8245   0.9876   0.1707     C
O       0.8263   0.0966   0.8732     O
O       0.8263   0.9034   0.3732     O
C       0.8264   0.3238   0.9058     C
C       0.8264   0.6762   0.4058     C
Ce     0.83055   0.1282  0.98558    Ce
Ce     0.83055   0.8718  0.48558    Ce
N       0.8375   0.0024   0.7408     N
N       0.8375   0.9976   0.2408     N
C       0.8378   0.0402   0.8466     C
C       0.8378   0.9598   0.3466     C
O        0.841   0.0471   0.0904     O
O        0.841   0.9529   0.5904     O
C       0.8441   0.3989   0.8949     C
C       0.8441   0.6011   0.3949     C
C       0.8499   0.0536   0.1546     C
C       0.8499   0.9464   0.6546     C
O       0.8664   0.0286   0.3829     O
O       0.8664   0.9714   0.8829     O
N       0.8671   0.2674   0.9644     N
N       0.8671   0.7326   0.4644     N
O       0.8758   0.1155    0.204     O
O       0.8758   0.8845    0.704     O
Ce     0.88997  0.13689  0.32709    Ce
Ce     0.88997  0.86311  0.82709    Ce
C       0.9059    0.415   0.9462     C
C       0.9059    0.585   0.4462     C
H       0.9192   0.4652   0.9415     H
H       0.9192   0.5348   0.4415     H
C       0.9241   0.2799   0.0113     C
C       0.9241   0.7201   0.5113     C
O       0.9403   0.1464   0.0688     O
O       0.9403   0.8536   0.5688     O
C        0.946   0.3533   0.0038     C
C        0.946   0.6467   0.5038     C
C       0.9647   0.2081   0.0693     C
C       0.9647   0.7919   0.5693     C
O       0.9808   0.2179   0.3883     O
O       0.9808   0.7821   0.8883     O
H       0.9867   0.3607   0.0369     H
H       0.9867   0.6393   0.5369     H
