data_I
_chemical_name_common  '/home/zhangsd/repos/MofS-CGCNN/ML/data/TSD/clean_cifs/FORQAF_clean'
_cell_length_a 30.84600
_cell_length_b 15.77300
_cell_length_c 22.18900
_cell_angle_alpha 90.00000
_cell_angle_beta  133.13400
_cell_angle_gamma 90.00000
_space_group_name_H-M_alt      'P 1'


loop_
_space_group_symop_operation_xyz
  'x, y, z' 

loop_
_atom_site_label
_atom_site_fract_x
_atom_site_fract_y
_atom_site_fract_z
_atom_site_type_symbol
H       0.0053   0.3646   0.2622     H
H       0.0053   0.6354   0.7622     H
H       0.0317   0.3644   0.6861     H
H       0.0317   0.6356   0.1861     H
O       0.0355   0.2194   0.3317     O
O       0.0355   0.7806   0.8317     O
C       0.0522   0.2121    0.649     C
C       0.0522   0.7879    0.149     C
C       0.0723   0.3562    0.719     C
C       0.0723   0.6438    0.219     C
O       0.0772   0.1485   0.6514     O
O       0.0772   0.8515   0.1514     O
C       0.0934    0.282   0.7088     C
C       0.0934    0.718   0.2088     C
H       0.0993   0.4632   0.7855     H
H       0.0993   0.5368   0.2855     H
C       0.1119   0.4149   0.7772     C
C       0.1119   0.5851   0.2772     C
La      0.1279  0.13636  0.39285    La
La      0.1279  0.86364  0.89285    La
O        0.144   0.1125   0.5205     O
O        0.144   0.8875   0.0205     O
N       0.1504   0.2686   0.7561     N
N       0.1504   0.7314   0.2561     N
O       0.1505    0.024   0.3378     O
O       0.1505    0.976   0.8378     O
C       0.1675   0.0526   0.5662     C
C       0.1675   0.9474   0.0662     C
C       0.1719   0.3996   0.8237     C
C       0.1719   0.6004   0.3237     C
O       0.1761   0.0438   0.6278     O
O       0.1761   0.9562   0.1278     O
N       0.1801    0.005   0.9769     N
N       0.1801    0.995   0.4769     N
C       0.1806    0.043   0.8749     C
C       0.1806    0.957   0.3749     C
La      0.1866  0.12839  0.73405    La
La      0.1866  0.87161  0.23405    La
C        0.189   0.3274   0.8104     C
C        0.189   0.6726   0.3104     C
O       0.1893   0.0962   0.8446     O
O       0.1893   0.9038   0.3446     O
C       0.1938    0.014   0.0486     C
C       0.1938    0.986   0.5486     C
H       0.2003   0.4383   0.8636     H
H       0.2003   0.5617   0.3636     H
C       0.2024   0.0551   0.9599     C
C       0.2024   0.9449   0.4599     C
C       0.2315   0.0784   0.1028     C
C       0.2315   0.9216   0.6028     C
H       0.2366    0.089   0.1485     H
H       0.2366    0.911   0.6485     H
O       0.2401   0.1504    0.513     O
O       0.2401   0.8496    0.013     O
C       0.2421   0.1212   0.0129     C
C       0.2421   0.8788   0.5129     C
C       0.2539   0.3005    0.866     C
C       0.2539   0.6995    0.366     C
H       0.2547     0.16    0.996     H
H       0.2547     0.84    0.496     H
H       0.2592   0.3223   0.3257     H
H       0.2592   0.6777   0.8257     H
C       0.2614   0.1266   0.0897     C
C       0.2614   0.8734   0.5897     C
O       0.2644   0.2343   0.8477     O
O       0.2644   0.7657   0.3477     O
O       0.2702   0.2654   0.5927     O
O       0.2702   0.7346   0.0927     O
H       0.2738   0.3543    0.442     H
H       0.2738   0.6457    0.942     H
C       0.2795    0.196   0.5726     C
C       0.2795    0.804   0.0726     C
C       0.2814   0.3693   0.3582     C
C       0.2814   0.6307   0.8582     C
O       0.2915   0.3489   0.9237     O
O       0.2915   0.6511   0.4237     O
H       0.2924   0.4203   0.2846     H
H       0.2924   0.5797   0.7846     H
H       0.2931   0.1612   0.1308     H
C       0.2931    0.385   0.4305     C
C       0.2931    0.615   0.9305     C
H       0.2931   0.8388   0.6308     H
C       0.3035   0.4254   0.3354     C
C       0.3035   0.5746   0.8354     C
C       0.3324   0.4447   0.4823     C
C       0.3324   0.5553   0.9823     C
H       0.3354   0.0589   0.5752     H
H       0.3354   0.9411   0.0752     H
O       0.3408   0.4012     0.59     O
O       0.3408   0.5988     0.09     O
C       0.3422   0.4881   0.3902     C
C       0.3422   0.5119   0.8902     C
C       0.3434    0.175    0.622     C
C       0.3434    0.825    0.122     C
La     0.34739  0.37058  0.70544    La
La     0.34739  0.62942  0.20544    La
C       0.3549   0.4582   0.5653     C
C       0.3549   0.5418   0.0653     C
N       0.3578    0.497   0.4632     N
N       0.3578    0.503   0.9632     N
O       0.3583   0.4541   0.8092     O
O       0.3583   0.5459   0.3092     O
C       0.3622   0.0993   0.6146     C
C       0.3622   0.9007   0.1146     C
C       0.3679   0.4477   0.8743     C
C       0.3679   0.5523   0.3743     C
N       0.3831   0.2309   0.6827     N
N       0.3831   0.7691   0.1827     N
O       0.3838   0.4743   0.1025     O
O       0.3838   0.5257   0.6025     O
O       0.3967    0.385   0.9277     O
O       0.3967    0.615   0.4277     O
La     0.40824  0.36252  0.04918    La
La     0.40824  0.63748  0.54918    La
C       0.4225   0.0869   0.6681     C
C       0.4225   0.9131   0.1681     C
H       0.4359   0.0361   0.6644     H
H       0.4359   0.9639   0.1644     H
C        0.442   0.2186   0.7309     C
C        0.442   0.7814   0.2309     C
O       0.4574   0.3547   0.7882     O
O       0.4574   0.6453   0.2882     O
H       0.4614   0.4033   0.2057     H
H       0.4614   0.5967   0.7057     H
C       0.4647   0.1451   0.7274     C
C       0.4647   0.8549   0.2274     C
H       0.4812   0.3216   0.2205     H
H       0.4812   0.6784   0.7205     H
C       0.4814   0.2885   0.7873     C
C       0.4814   0.7115   0.2873     C
O       0.4852   0.3709   0.2094     O
O       0.4852   0.6291   0.7094     O
O       0.4977   0.2815   0.1105     O
O       0.4977   0.7185   0.6105     O
H       0.5053   0.1354   0.7622     H
H       0.5053   0.8646   0.2622     H
H       0.5317   0.1356   0.1861     H
H       0.5317   0.8644   0.6861     H
O       0.5355   0.2806   0.8317     O
O       0.5355   0.7194   0.3317     O
C       0.5522   0.2879    0.149     C
C       0.5522   0.7121    0.649     C
C       0.5723   0.1438    0.219     C
C       0.5723   0.8562    0.719     C
O       0.5772   0.3515   0.1514     O
O       0.5772   0.6485   0.6514     O
C       0.5934    0.218   0.2088     C
C       0.5934    0.782   0.7088     C
H       0.5993   0.0368   0.2855     H
H       0.5993   0.9632   0.7855     H
C       0.6119   0.0851   0.2772     C
C       0.6119   0.9149   0.7772     C
La      0.6279  0.36364  0.89285    La
La      0.6279  0.63636  0.39285    La
O        0.644   0.3875   0.0205     O
O        0.644   0.6125   0.5205     O
N       0.6504   0.2314   0.2561     N
N       0.6504   0.7686   0.7561     N
O       0.6505    0.476   0.8378     O
O       0.6505    0.524   0.3378     O
C       0.6675   0.4474   0.0662     C
C       0.6675   0.5526   0.5662     C
C       0.6719   0.1004   0.3237     C
C       0.6719   0.8996   0.8237     C
O       0.6761   0.4562   0.1278     O
O       0.6761   0.5438   0.6278     O
N       0.6801    0.495   0.4769     N
N       0.6801    0.505   0.9769     N
C       0.6806    0.457   0.3749     C
C       0.6806    0.543   0.8749     C
La      0.6866  0.37161  0.23405    La
La      0.6866  0.62839  0.73405    La
C        0.689   0.1726   0.3104     C
C        0.689   0.8274   0.8104     C
O       0.6893   0.4038   0.3446     O
O       0.6893   0.5962   0.8446     O
C       0.6938    0.486   0.5486     C
C       0.6938    0.514   0.0486     C
H       0.7003   0.0617   0.3636     H
H       0.7003   0.9383   0.8636     H
C       0.7024   0.4449   0.4599     C
C       0.7024   0.5551   0.9599     C
C       0.7315   0.4216   0.6028     C
C       0.7315   0.5784   0.1028     C
H       0.7366    0.411   0.6485     H
H       0.7366    0.589   0.1485     H
O       0.7401   0.3496    0.013     O
O       0.7401   0.6504    0.513     O
C       0.7421   0.3788   0.5129     C
C       0.7421   0.6212   0.0129     C
C       0.7539   0.1995    0.366     C
C       0.7539   0.8005    0.866     C
H       0.7547     0.34    0.496     H
H       0.7547     0.66    0.996     H
H       0.7592   0.1777   0.8257     H
H       0.7592   0.8223   0.3257     H
C       0.7614   0.3734   0.5897     C
C       0.7614   0.6266   0.0897     C
O       0.7644   0.2657   0.3477     O
O       0.7644   0.7343   0.8477     O
O       0.7702   0.2346   0.0927     O
O       0.7702   0.7654   0.5927     O
H       0.7738   0.1457    0.942     H
H       0.7738   0.8543    0.442     H
C       0.7795    0.304   0.0726     C
C       0.7795    0.696   0.5726     C
C       0.7814   0.1307   0.8582     C
C       0.7814   0.8693   0.3582     C
O       0.7915   0.1511   0.4237     O
O       0.7915   0.8489   0.9237     O
H       0.7924   0.0797   0.7846     H
H       0.7924   0.9203   0.2846     H
C       0.7931    0.115   0.9305     C
H       0.7931   0.3388   0.6308     H
H       0.7931   0.6612   0.1308     H
C       0.7931    0.885   0.4305     C
C       0.8035   0.0746   0.8354     C
C       0.8035   0.9254   0.3354     C
C       0.8324   0.0553   0.9823     C
C       0.8324   0.9447   0.4823     C
H       0.8354   0.4411   0.0752     H
H       0.8354   0.5589   0.5752     H
O       0.8408   0.0988     0.09     O
O       0.8408   0.9012     0.59     O
C       0.8422   0.0119   0.8902     C
C       0.8422   0.9881   0.3902     C
C       0.8434    0.325    0.122     C
C       0.8434    0.675    0.622     C
La     0.84739  0.12942  0.20544    La
La     0.84739  0.87058  0.70544    La
C       0.8549   0.0418   0.0653     C
C       0.8549   0.9582   0.5653     C
N       0.8578    0.003   0.9632     N
N       0.8578    0.997   0.4632     N
O       0.8583   0.0459   0.3092     O
O       0.8583   0.9541   0.8092     O
C       0.8622   0.4007   0.1146     C
C       0.8622   0.5993   0.6146     C
C       0.8679   0.0523   0.3743     C
C       0.8679   0.9477   0.8743     C
N       0.8831   0.2691   0.1827     N
N       0.8831   0.7309   0.6827     N
O       0.8838   0.0257   0.6025     O
O       0.8838   0.9743   0.1025     O
O       0.8967    0.115   0.4277     O
O       0.8967    0.885   0.9277     O
La     0.90824  0.13748  0.54918    La
La     0.90824  0.86252  0.04918    La
C       0.9225   0.4131   0.1681     C
C       0.9225   0.5869   0.6681     C
H       0.9359   0.4639   0.1644     H
H       0.9359   0.5361   0.6644     H
C        0.942   0.2814   0.2309     C
C        0.942   0.7186   0.7309     C
O       0.9574   0.1453   0.2882     O
O       0.9574   0.8547   0.7882     O
H       0.9614   0.0967   0.7057     H
H       0.9614   0.9033   0.2057     H
C       0.9647   0.3549   0.2274     C
C       0.9647   0.6451   0.7274     C
H       0.9812   0.1784   0.7205     H
H       0.9812   0.8216   0.2205     H
C       0.9814   0.2115   0.2873     C
C       0.9814   0.7885   0.7873     C
O       0.9852   0.1291   0.7094     O
O       0.9852   0.8709   0.2094     O
O       0.9977   0.2185   0.6105     O
O       0.9977   0.7815   0.1105     O
