data_I
_chemical_name_common  '/home/zhangsd/repos/MofS-CGCNN/ML/data/TSD/clean_cifs/FOSTUE_clean'
_cell_length_a 44.12520
_cell_length_b 44.12520
_cell_length_c 42.29610
_cell_angle_alpha 90.00000
_cell_angle_beta  90.00000
_cell_angle_gamma 120.00000
_space_group_name_H-M_alt      'P 1'


loop_
_space_group_symop_operation_xyz
  'x, y, z' 

loop_
_atom_site_label
_atom_site_fract_x
_atom_site_fract_y
_atom_site_fract_z
_atom_site_type_symbol
O      0.00029  0.77852  0.99811     O
O      0.00037   0.7616  0.92634     O
C      0.00055  0.69034  0.74221     C
H       0.0007   0.6935   0.0913     H
H      0.00093  0.63667  0.90497     H
C      0.00114  0.62123  0.54098     C
H      0.00137  0.44963  0.26443     H
C      0.00144  0.67281  0.09171     C
H      0.00263  0.25417  0.46097     H
C      0.00273  0.03247  0.30447     C
H      0.00303  0.59907  0.75857     H
C      0.00304  0.27414  0.83562     C
H       0.0031   0.6447   0.2648     H
H      0.00327  0.76483  0.59043     H
C      0.00347  0.03253  0.69539     C
C      0.00357  0.61091  0.09299     C
H      0.00363  0.39607  0.47397     H
H       0.0043   0.5902   0.0934     H
C      0.00434  0.43317   0.2047     C
C      0.00445  0.31017  0.55814     C
C      0.00456  0.71162  0.91262     C
C       0.0047  0.66523  0.75838     C
C      0.00482  0.72332  0.19603     C
C      0.00489  0.75899  0.11468     C
C      0.00567  0.03337  0.95756     C
H      0.00567  0.05453  0.69523     H
C      0.00576  0.40656  0.22101     C
O      0.00594  0.18214  0.29608     O
C      0.00596  0.88768  0.94391     C
C      0.00614   0.0343  0.04292     C
C      0.00614  0.33804  0.57496     C
C      0.00654  0.68163  0.23467     C
C      0.00691  0.32358  0.08261     C
C      0.00724  0.06888   0.3075     C
H      0.00823  0.29017  0.49987     H
C      0.00842  0.66013  0.90134     C
H       0.0096   0.0561   0.9582     H
C      0.00975  0.34999  0.74928     C
O      0.01057  0.18278  0.05711     O
C       0.0106  0.26998  0.07019     C
C      0.01112  0.54303  0.74808     C
C      0.01122  0.88972   0.7056     C
C      0.01154  0.92077  0.94407     C
C      0.01159   0.0701  0.04149     C
H      0.01177  0.44843  0.11333     H
C      0.01249  0.24068  0.94845     C
C       0.0126  0.31075  0.78696     C
C      0.01283  0.54813  0.78061     C
O      0.01322  0.25553  0.27977     O
C      0.01355  0.75735   0.1492     C
O      0.01495  0.23608   0.3513     O
C      0.01496  0.34176    0.432     C
C      0.01572  0.92314  0.70791     C
C      0.01625  0.13574  0.31214     C
H      0.01657  0.45943  0.16323     H
C      0.01666  0.67357  0.58405     C
C      0.01747  0.44163  0.17411     C
C      0.01828  0.25274  0.41695     C
H      0.01923  0.70787  0.73097     H
H       0.0196   0.2939   0.8463     H
C      0.02027  0.38838  0.20672     C
C      0.02118  0.78143  0.06228     C
H       0.0213   0.8825   0.9334     H
C      0.02156  0.24032  0.98163     C
H      0.02197  0.64743  0.39763     H
H      0.02197  0.69173  0.59813     H
C      0.02206  0.26404  0.44771     C
C      0.02258  0.36852  0.45363     C
C      0.02261   0.3874  0.92382     C
C      0.02306  0.13846  0.04028     C
C      0.02312  0.66611  0.40887     C
C      0.02317  0.36095   0.2248     C
C      0.02345  0.17266  0.31217     C
C      0.02367  0.35645  0.92446     C
H      0.02507  0.33643  0.06853     H
H      0.02517  0.45483  0.06143     H
H      0.02613  0.66597  0.75797     H
C       0.0265  0.72185   0.4425     C
H      0.02657  0.88433  0.71593     H
H      0.02683  0.35947  0.57537     H
H      0.02693  0.52357  0.71247     H
C      0.02762  0.67112  0.10853     C
H      0.02767  0.74053  0.45373     H
C       0.0277  0.99433  0.95756     C
C      0.02804  0.52696  0.73424     C
C      0.02816  0.99386  0.04292     C
C      0.02864  0.44353  0.10579     C
C      0.02869  0.64017  0.10917     C
C      0.02907   0.2626  0.89596     C
C      0.02907  0.99653  0.69539     C
C      0.02913  0.17428  0.04002     C
C      0.02952  0.75332  0.21122     C
C      0.02973  0.99727  0.30447     C
H         0.03   0.6976   0.2383     H
C      0.03011  0.29995  0.50947     C
C      0.03023  0.78122  0.09336     C
C      0.03047  0.72973  0.89079     C
H      0.03093  0.33427  0.42837     H
C      0.03144  0.53715  0.79929     C
C      0.03146  0.31072  0.25715     C
H       0.0315   0.9382   0.9342     H
C      0.03198  0.42345  0.15983     C
C      0.03247  0.02973  0.69553     C
C      0.03253  0.02907  0.30461     C
C      0.03259  0.63619  0.55745     C
H      0.03263  0.54057  0.82107     H
C      0.03337   0.0277  0.04244     C
C      0.03339  0.39683  0.17613     C
H      0.03407  0.94013  0.71983     H
C       0.0343  0.02816  0.95708     C
C       0.0347  0.09433  0.32524     C
C      0.03478  0.31307  0.54006     C
C      0.03518  0.67927  0.87971     C
H       0.0352   0.7519   0.2321     H
H       0.0357   0.9438   0.0164     H
C      0.03611  0.28543  0.27475     C
C      0.03761  0.78757  0.16433     C
C      0.03767  0.44883  0.07533     C
O      0.03796  0.28879  0.05175     O
H       0.0381   0.7968   0.0482     H
H      0.03813  0.75317  0.88697     H
C      0.03815  0.26268  0.92713     C
H      0.03893  0.94997  0.33557     H
C      0.03921  0.12777  0.32756     C
H      0.03943  0.39237  0.51297     H
C      0.04039  0.09697  0.02619     C
C      0.04039   0.6621  0.57928     C
In     0.04043  0.23905  0.04095    In
O      0.04044   0.4404  0.95087     O
H       0.0412   0.3553   0.9357     H
H      0.04317  0.38473  0.16653     H
C       0.0441  0.43083  0.12612     C
C      0.04413  0.25745  0.36327     C
O      0.04454  0.41584  0.71842     O
C      0.04495  0.37372  0.75405     C
In     0.04508  0.23839  0.30449    In
C      0.04543  0.71324  0.87432     C
H       0.0461   0.2774   0.8817     H
C      0.04611  0.78561  0.19592     C
H       0.0462    0.639   0.1204     H
C      0.04631   0.1303  0.02501     C
H       0.0465   0.9904   0.9582     H
C      0.04657  0.33447  0.79235     C
C      0.04666  0.51598  0.75293     C
C      0.04693  0.26788  0.39714     C
C       0.0479  0.41734  0.94142     C
H        0.048   0.8089   0.1538     H
C      0.04836  0.52108  0.78545     C
H      0.04837  0.62853  0.55363     H
H      0.04887  0.99433  0.69523     H
O      0.04907  0.19444    0.328     O
H      0.05003  0.08897  0.33557     H
H      0.05003  0.63147  0.89877     H
H       0.0514   0.6749   0.1668     H
C      0.05183  0.66185   0.8627     C
O      0.05293  0.25975  0.99074     O
H       0.0531   0.7958      0.1     H
C       0.0534  0.28924  0.45946     C
O      0.05389  0.19882  0.02388     O
C      0.05407  0.69812  0.40951     C
H      0.05453  0.04887  0.30477     H
C      0.05505  0.70145  0.12661     C
C      0.05519  0.36202  0.22416     C
C      0.05576  0.72599  0.42632     C
H      0.05593  0.43537  0.54837     H
H       0.0561   0.0465   0.0418     H
H      0.05613  0.45057  0.60047     H
H       0.0562   0.0919   0.0164     H
C      0.05658  0.95961  0.02619     C
C      0.05665  0.38517  0.47064     C
C      0.05713  0.63715  0.87789     C
H      0.05763  0.14487  0.33947     H
O      0.05813  0.48983  0.70844     O
C      0.05814  0.30136  0.49317     C
C      0.05851  0.98841  0.04149     C
H      0.05903  0.68627  0.82037     H
H       0.0591   0.3297   0.8073     H
C      0.05919  0.39557  0.50229     C
C      0.05933   0.3369  0.24034     C
C      0.05962   0.9653  0.32524     C
H      0.05987  0.09393  0.71983     H
H      0.06083  0.51377  0.79797     H
H       0.0611   0.2772   0.9338     H
C      0.06163  0.99276   0.3075     C
H       0.0618   0.0933   0.9342     H
C      0.06223  0.66971  0.83105     C
H      0.06263  0.60297  0.92227     H
H      0.06273  0.72577  0.85937     H
C      0.06306  0.36592  0.77588     C
C      0.06335  0.40728  0.73686     C
C      0.06342  0.49869  0.73733     C
C       0.0635  0.69678   0.1572     C
H       0.0637    0.793   0.2556     H
O      0.06411  0.22802   0.2542     O
O      0.06495  0.46989  0.01384     O
C      0.06546  0.44572   0.0638     C
H       0.0656   0.1475   0.0142     H
O      0.06663  0.29289   0.2842     O
C      0.06747  0.32758  0.55435     C
H       0.0676   0.7373   0.0919     H
C      0.06888  0.06163   0.6925     C
H      0.06903  0.56127  0.95017     H
C       0.0693  0.42469  0.11437     C
C       0.0701  0.05851  0.95851     C
H      0.07063  0.33637  0.57477     H
C      0.07065  0.44214   0.5938     C
C      0.07073  0.43314  0.56263     C
C      0.07097  0.58994  0.91212     C
C      0.07121  0.81749  0.21356     C
O      0.07161  0.26839  0.34718     O
C      0.07283  0.62056  0.86259     C
C      0.07323  0.73414  0.11232     C
O      0.07358  0.45985  0.65741     O
O      0.07384  0.24927  0.08587     O
H      0.07387  0.37953  0.21293     H
C      0.07395  0.67726  0.59647     C
C      0.07483  0.56497  0.92881     C
C      0.07589  0.45335  0.02993     C
H      0.07603  0.61357  0.76667     H
H      0.07647  0.74743  0.42673     H
C      0.07673  0.81437  0.24545     C
C      0.07686  0.09257  0.70791     C
C      0.07713  0.65312  0.81587     C
O       0.0778  0.42435  0.94644     O
C      0.07783  0.29567  0.40867     C
H      0.07917  0.41513  0.12763     H
C      0.07923  0.09077  0.94407     C
C      0.07961  0.59546  0.88023     C
C       0.0806  0.43221  0.08361     C
H      0.08077  0.33763  0.23993     H
O      0.08113  0.51407  0.95957     O
C      0.08156   0.3047  0.43913     C
H       0.0818   0.6693   0.2057     H
H       0.0819   0.9344   0.0142     H
O       0.0825  0.70463  0.61492     O
C      0.08329  0.62906    0.831     C
C      0.08399  0.95369  0.02501     C
C      0.08401  0.70277  0.39191     C
O      0.08406  0.49124  0.75254     O
C      0.08432  0.63644  0.76003     C
H      0.08523  0.38337  0.43457     H
H       0.0865   0.3817   0.7797     H
C      0.08665  0.39047  0.45545     C
H        0.087   0.8516    0.177     H
H      0.08723  0.94237  0.33947     H
C      0.08739   0.5455   0.9136     C
C      0.08743  0.66178  0.78135     C
C      0.08855  0.96079  0.32756     C
H      0.08897  0.03893  0.66443     H
C      0.09012  0.72481   0.1735     C
C      0.09067  0.84948  0.19834     C
C      0.09068  0.41047  0.51747     C
C      0.09077  0.01154  0.05593     C
C      0.09083  0.31587  0.50745     C
O      0.09102  0.67988  0.38689     O
C      0.09103  0.51597  0.93097     C
C      0.09136  0.68873  0.21896     C
C       0.0916   0.2423   0.2643     C
H       0.0919   0.0357   0.9836     H
H      0.09203  0.62857  0.71487     H
C      0.09214    0.576  0.86501     C
C      0.09232  0.42077  0.55199     C
C      0.09257  0.01572  0.29209     C
C      0.09265  0.43848  0.61512     C
C      0.09301  0.44791   0.6483     C
H       0.0933   0.0315   0.0658     H
C      0.09358  0.64549  0.72895     C
H      0.09393  0.03407  0.28017     H
H      0.09423  0.61867  0.82047     H
In     0.09428  0.46805  0.70761    In
C      0.09433  0.05962  0.67476     C
O      0.09456   0.6663  0.59301     O
H       0.0949   0.6634   0.2571     H
O      0.09493   0.4279  0.74033     O
In     0.09495  0.47336  0.97116    In
C       0.0955    0.329  0.53804     C
C      0.09603  0.55102   0.8817     C
H      0.09633  0.30817  0.39477     H
C      0.09697  0.05658  0.97381     C
O      0.09726  0.44554  0.01796     O
C       0.0975  0.72007  0.20721     C
H      0.09793  0.57967  0.84367     H
H      0.09817  0.42823  0.07623     H
O      0.09836   0.2752  0.04177     O
C      0.09888  0.68495  0.24972     C
O       0.0996   0.2522   0.2929     O
C       0.0998  0.69574  0.77071     C
C      0.09984  0.76217  0.12863     C
H       0.1002   0.2289   0.2048     H
C       0.1017   0.8432  0.26214     C
C      0.10193  0.26991  0.07066     C
H      0.10203  0.71277  0.78497     H
H      0.10333  0.32157  0.44667     H
H      0.10443  0.53797  0.87147     H
C      0.10514  0.67916  0.71822     C
O      0.10531  0.50276  0.92087     O
H       0.1054   0.8411   0.2835     H
O      0.10707  0.73329  0.38246     O
C       0.1083   0.7575  0.15922     C
C       0.1088  0.70482  0.73954     C
H      0.10953  0.31677  0.49657     H
C       0.1102  0.74823  0.22754     C
C      0.11028  0.12149   0.7056     C
O      0.11156  0.66638  0.66478     O
O      0.11185   0.4449  0.66856     O
O      0.11221  0.68162  0.31537     O
C      0.11232  0.11828  0.94391     C
C      0.11239   0.7136  0.26953     C
C      0.11455  0.41766  0.57331     C
C      0.11457  0.68823  0.68504     C
C      0.11476  0.42692  0.60439     C
H      0.11493  0.33197  0.59777     H
H       0.1151     0.77     0.22     H
C       0.1154  0.97694  0.04028     C
C       0.1155   0.7445    0.258     C
C      0.11565  0.87835  0.21503     C
H      0.11567  0.14223  0.71593     H
H       0.1163   0.7816   0.0689     H
H      0.11723  0.72777  0.73287     H
H       0.1175   0.1388   0.9334     H
C      0.11828  0.00596  0.05609     C
C      0.11854  0.79804  0.11394     C
C      0.11894  0.40617  0.47075     C
C      0.11948  0.98375  0.31214     C
H       0.1196   0.2725   0.1313     H
C      0.12002   0.7108   0.3034     C
C       0.1209  0.41663  0.50234     C
C      0.12117  0.87523  0.24693     C
C      0.12149  0.01122   0.2944     C
H       0.1215    0.763   0.2719     H
C      0.12165   0.2373  0.21503     C
C      0.12364  0.80143  0.08141     C
C      0.12477  0.24594  0.24693     C
H       0.1261   0.7762   0.1701     H
H       0.1261   0.8254   0.1544     H
H      0.12633  0.39597  0.41107     H
O      0.12651   0.7196  0.67593     O
C      0.12777  0.08855  0.67244     C
H       0.1287   0.8998   0.2048     H
H      0.12913  0.40937  0.56667     H
C      0.12952  0.82763  0.13262     C
H      0.13013  0.42537  0.61847     H
C       0.1303  0.08399  0.97499     C
C      0.13137  0.34617  0.55273     C
O      0.13451  0.52174  0.69055     O
In     0.13471   0.7071  0.62572    In
C      0.13476  0.34446  0.58526     C
C      0.13574  0.11948  0.68786     C
C      0.13598  0.28667  0.08626     C
O      0.13656  0.73828  0.31949     O
C      0.13846   0.1154  0.95972     C
H       0.1388   0.0213   0.0666     H
O       0.1389   0.5213  0.99466     O
C      0.13938  0.28497  0.11878     C
C      0.13971  0.83442  0.06757     C
In     0.14002  0.71174  0.36218    In
H      0.14223  0.02657  0.28407     H
H      0.14223  0.42757  0.51287     H
H       0.1431   0.8367   0.0458     H
H      0.14487  0.08723  0.66053     H
O      0.14493  0.94611  0.02388     O
C      0.14515  0.97087  0.04002     C
O      0.14536  0.95093    0.328     O
C      0.14559  0.86062  0.11878     C
H       0.1475   0.0819   0.9858     H
C       0.1477  0.40431  0.42122     C
H       0.1484   0.2354    0.177     H
C       0.1492  0.97655  0.31217     C
C      0.15052  0.24119  0.19834     C
O      0.15055  0.49446  0.72378     O
C      0.15069  0.86402  0.08626     C
C       0.1507   0.9084   0.2643     C
C      0.15082  0.41295  0.45311     C
O       0.1512  0.49047  0.96274     O
O       0.1526   0.9004   0.2929     O
H       0.1529   0.8804   0.1313     H
O      0.15649  0.76503   0.6249     O
C       0.1568   0.2585  0.26214     C
O      0.15714  0.67261  0.37059     O
O       0.1579  0.74051   0.5808     O
H      0.15873  0.36597  0.51227     H
H       0.1589   0.2643   0.2835     H
C      0.15905  0.52152  0.70669     C
C      0.16068  0.51746  0.97883     C
C      0.16096  0.36478  0.53405     C
O      0.16112  0.67724  0.60956     O
H       0.1633   0.3064   0.0458     H
O      0.16391  0.93589   0.2542     O
C      0.16535   0.7686  0.59601     C
C      0.16558  0.30529  0.06757     C
C      0.16775  0.36138   0.5991     C
C      0.16798  0.89807  0.07066     C
O      0.16942  0.73078  0.41247     O
H      0.17003  0.36027  0.62087     H
O      0.17221  0.98943  0.05711     O
C      0.17237  0.30189  0.13262     C
C      0.17266   0.1492  0.68783     C
C      0.17428  0.14515  0.95998     C
H      0.17443  0.40237  0.38317     H
H       0.1746   0.3007   0.1544     H
O      0.17543  0.92616  0.08587     O
O      0.17619  0.99406  0.29608     O
C      0.17653  0.40817  0.40453     C
O      0.17684  0.90164  0.04177     O
H      0.18043  0.78627  0.53537     H
O      0.18073  0.76627  0.37377     O
O      0.18214  0.17619  0.70392     O
C      0.18251  0.25372  0.21356     C
C      0.18263  0.75827  0.40237     C
C      0.18264  0.80265  0.58041     C
O      0.18278  0.17221  0.94289     O
C      0.18281  0.42548  0.46833     C
C      0.18413  0.69012   0.3545     C
H      0.18493  0.43127  0.48967     H
C      0.18563  0.26236  0.24545     C
H      0.18583  0.58477  0.68087     H
C      0.18774  0.80605  0.54789     C
O      0.18797  0.71574  0.33867     O
C      0.18818   0.6958  0.62665     C
O       0.1884  0.72056  0.64279     O
H      0.18847  0.57943  0.00613     H
H      0.19023  0.82997  0.62087     H
H       0.1911   0.2391   0.1538     H
H       0.1911   0.6401   0.3826     H
In     0.19331  0.95492  0.30449    In
C      0.19362  0.83225   0.5991     C
C      0.19395   0.3817  0.54789     C
O      0.19444  0.14536    0.672     O
H      0.19453  0.64537  0.60007     H
C      0.19487  0.55127  0.70695     C
O      0.19677  0.92839  0.34718     O
C      0.19735     0.38  0.58041     C
C       0.1976  0.54718   0.9788     C
C      0.19857  0.32221  0.08141     C
In     0.19862  0.95957  0.04095    In
O      0.19882  0.14493  0.97612     O
C      0.20196   0.3205  0.11394     C
C      0.20303  0.58268  0.69168     C
H       0.2032   0.2413   0.0482     H
C      0.20381  0.83904  0.53405     C
H       0.2042   0.2573      0.1     H
H      0.20463  0.76687  0.46187     H
C      0.20557  0.57811  0.99422     C
O      0.20682  0.94707  0.99074     O
H        0.207   0.2707   0.2556     H
H      0.20723  0.84127  0.51227     H
H      0.20723  0.89047  0.49657     H
C      0.20856  0.42073  0.41974     C
C      0.20969  0.86524  0.58526     C
C      0.21168  0.42937  0.45164     C
H      0.21183  0.90367  0.39477     H
C      0.21184  0.65545  0.37227     C
C      0.21216  0.79144  0.41974     C
C      0.21243  0.25004  0.16433     C
C      0.21331  0.95587  0.36327     C
H      0.21373  0.39417  0.53537     H
C      0.21385  0.68292  0.35453     C
C      0.21439   0.2605  0.19592     C
C      0.21479  0.86863  0.55273     C
C      0.21505  0.66071  0.61058     C
H      0.21583  0.52787  0.73327     H
H       0.2161   0.9389   0.9338     H
H      0.21703  0.88507  0.59777     H
H      0.21767  0.52443  0.95073     H
C      0.21768  0.78832  0.45164     C
C      0.21783  0.92217  0.40867     C
C      0.21793  0.68973  0.62639     C
H      0.21823  0.89667  0.44667     H
H       0.2184   0.3347   0.0689     H
C      0.21857  0.23975  0.06228     C
C      0.21876  0.97844  0.98163     C
C      0.21878  0.24901  0.09336     C
C      0.22094  0.95307  0.39714     C
C      0.22101  0.54839  0.72276     C
O      0.22112  0.98505   0.3513     O
O      0.22148  0.22177  0.99811     O
O      0.22177  0.00029  0.00189     O
C      0.22306  0.54517  0.96106     C
C      0.22313  0.91844  0.43913     C
H       0.2238   0.3499   0.1701     H
C      0.22453  0.96185  0.92713     C
C      0.22503  0.90917  0.50745     C
O      0.22627  0.93337   0.2842     O
H      0.22793  0.82557  0.38317     H
O      0.22802  0.16391   0.7458     O
C      0.22819  0.98751  0.94845     C
H       0.2289   0.1287   0.7952     H
H         0.23   0.3451     0.22     H
H       0.2313   0.9539   0.8817     H
C       0.2314  0.39676  0.59601     C
C      0.23163  0.82347  0.40453     C
H      0.23313  0.43777  0.46187     H
C      0.23349   0.9045  0.53804     C
C      0.23353  0.97093  0.89596     C
O      0.23373  0.41447  0.37377     O
C      0.23445  0.98172  0.41695     C
O      0.23497  0.39147   0.6249     O
H      0.23517  0.23843  0.59043     H
H       0.2354    0.087    0.823     H
C      0.23583   0.9466  0.45946     C
O      0.23608  0.22112   0.6487     O
C      0.23636  0.61009  0.69286     C
H        0.237   0.3585   0.2719     H
C       0.2373  0.11565  0.78497     C
C      0.23783  0.33767  0.12863     C
In     0.23839  0.19331  0.69551    In
O       0.2384  0.23877  0.92634     O
H      0.23843  0.00327  0.40957     H
O      0.23877  0.00037  0.07366     O
C      0.23901  0.60704   0.9919     C
In     0.23905  0.19862  0.95905    In
H       0.2391    0.048   0.8462     H
H       0.2394   0.6326   0.3865     H
C      0.23975  0.02118  0.93772     C
H      0.24003  0.63517  0.60087     H
C      0.24032  0.21876  0.01837     C
C      0.24068  0.22819  0.05155     C
C      0.24076  0.65095  0.37458     C
C      0.24101   0.2459  0.11468     C
C      0.24119  0.09067  0.80166     C
H       0.2413   0.0381   0.9518     H
H      0.24143  0.63097  0.68307     H
C      0.24173  0.42437  0.40237     C
C      0.24197  0.97794  0.44771     C
C       0.2423   0.1507   0.7357     C
O      0.24232  0.98678  0.27977     O
C       0.2425   0.3508  0.15922     C
C      0.24256  0.65513  0.61074     C
C      0.24265   0.2562   0.1492     C
C      0.24266  0.81719  0.46833     C
C      0.24321  0.94186  0.49317     C
H      0.24437  0.62773  0.00223     H
C      0.24478  0.70588  0.33911     C
C       0.2459  0.00489  0.88532     C
C      0.24594  0.12117  0.75307     C
H       0.2461   0.7243   0.3272     H
H      0.24633  0.81507  0.48967     H
C      0.24668   0.2762  0.21122     C
H      0.24683  0.28497  0.88697     H
H       0.2481   0.2833   0.2321     H
C      0.24901  0.03023  0.90664     C
O      0.24927  0.17543  0.91413     O
C      0.24933  0.96389  0.27475     C
C      0.24934  0.71298  0.64166     C
C      0.25004  0.03761  0.83567     C
O      0.25083  0.96204  0.05175     O
H      0.25143  0.73227  0.65247     H
H      0.25153  0.99737  0.46097     H
C      0.25177  0.36197  0.22754     C
O       0.2522   0.1526   0.7071     O
H      0.25257  0.32903  0.42673     H
C      0.25274  0.23445  0.58305     C
C      0.25372  0.07121  0.78644     C
C       0.2541   0.5759   0.7226     C
H      0.25417  0.25153  0.53903     H
C       0.2555    0.371    0.258     C
O      0.25553  0.24232  0.72023     O
C       0.2562  0.01355   0.8508     C
C      0.25648  0.57409  0.95875     C
C       0.2566   0.8523  0.42122     C
H      0.25687  0.91923  0.23993     H
H       0.2573   0.0531      0.9     H
C      0.25745  0.21331  0.63673     C
C       0.2585   0.1017  0.73786     C
C      0.25939   0.9894  0.07019     C
H      0.25947  0.28713  0.45373     H
O      0.25949   0.4174   0.5808     O
O      0.25975  0.20682  0.00926     O
C       0.2601  0.93253  0.55435     C
C       0.2605  0.04611  0.80408     C
O      0.26172  0.39828  0.31949     O
C      0.26212  0.84918  0.45311     C
C      0.26236  0.07673  0.75455     C
C       0.2626  0.23353  0.10404     C
C      0.26268  0.22453  0.07287     C
H       0.2627   0.3303   0.0919     H
C      0.26323  0.60816  0.70816     C
C      0.26404  0.24197  0.55229     C
H       0.2643   0.1054   0.7165     H
C      0.26446  0.60503  0.97416     C
H      0.26573  0.92937  0.57477     H
C      0.26586  0.33909  0.11232     C
O      0.26671  0.37377  0.38246     O
H      0.26773  0.51917  0.65247     H
C      0.26788  0.22094  0.60286     C
O      0.26839  0.19677  0.65282     O
O      0.26922  0.43865  0.41247     O
H      0.26963  0.87367  0.41107     H
C      0.26983  0.96989  0.50947     C
C      0.26991  0.16798  0.92934     C
C      0.26998  0.25939  0.92981     C
C      0.27027  0.30075  0.89079     C
H       0.2706   0.9409   0.8073     H
H       0.2707   0.0637   0.7444     H
C       0.2711  0.99696  0.83562     C
H      0.27153  0.57337  0.73247     H
C       0.2717  0.67391  0.35917     C
H      0.27223  0.38947  0.73287     H
H       0.2725   0.1529   0.8687     H
H      0.27347  0.57273  0.94683     H
C      0.27371  0.70137  0.34143     C
C      0.27401  0.32976  0.42632     C
C      0.27414   0.2711  0.16438     C
H      0.27423  0.33697  0.85937     H
H       0.2743   0.9804   0.8463     H
C      0.27482  0.67826  0.62518     C
C      0.27519  0.36531   0.1735     C
O       0.2752  0.17684  0.95823     O
H       0.2757   0.5218   0.3272     H
C       0.2762  0.02952  0.78878     C
C      0.27668   0.2815  0.19603     C
C      0.27675  0.70706  0.64048     C
H      0.27713  0.57477  0.65027     H
H       0.2772   0.2161   0.0662     H
H      0.27723  0.62017  0.62487     H
H       0.2774   0.2313   0.1183     H
C      0.27758  0.94067  0.24034     C
C      0.27815  0.30464   0.4425     C
C      0.27828  0.96522  0.54006     C
H       0.2788   0.6178   0.3619     H
C      0.27927  0.96854  0.25715     C
O      0.27944  0.46785  0.64279     O
C      0.27993  0.37743  0.20721     C
H      0.28023  0.87087  0.56667     H
O       0.2804  0.40692  0.67593     O
C       0.2815  0.00482  0.80397     C
H      0.28193  0.99177  0.49987     H
H       0.2833   0.0352   0.7679     H
H       0.2833   0.5777   0.3311     H
O      0.28426  0.47223  0.33867     O
H      0.28447  0.67233  0.97143     H
H      0.28497  0.03813  0.11303     H
C      0.28497  0.14559  0.88122     C
H      0.28533  0.85777  0.51287     H
C      0.28543  0.24933  0.72525     C
C       0.2864  0.39879  0.26953     C
C      0.28667  0.15069  0.91374     C
C      0.28676   0.3322  0.87432     C
H      0.28683  0.67627  0.70847     H
C      0.28702  0.53637  0.64166     C
H      0.28713  0.02767  0.54627     H
C      0.28722  0.88106  0.47075     C
H      0.28723  0.38927  0.78497     H
C       0.2879  0.95343  0.79235     C
In     0.28826  0.42828  0.36218    In
C      0.28838  0.29295  0.91262     C
O      0.28879  0.25083  0.94825     O
C       0.2892  0.40922   0.3034     C
C      0.28924  0.23583  0.54054     C
H      0.29017  0.28193  0.50013     H
H      0.29213  0.31137  0.73097     H
O      0.29289  0.22627   0.7158     O
In      0.2929  0.42762  0.62572    In
C      0.29294   0.5697  0.64048     C
C      0.29295  0.00456  0.08738     C
H       0.2939   0.2743   0.1537     H
C      0.29412   0.5389  0.33911     C
H       0.2944   0.7167   0.3311     H
C      0.29518  0.40399  0.73954     C
H       0.2952   0.9135   0.7797     H
H      0.29523  0.86987  0.61847     H
O      0.29537  0.37788  0.61492     O
C      0.29567  0.21783  0.59133     C
C      0.29572   0.8791  0.50234     C
C      0.29723  0.38123  0.39191     C
H      0.29763  0.72287  0.65027     H
H      0.29813  0.91477  0.43457     H
C      0.29815   0.9874  0.78696     C
C      0.29855   0.3536  0.12661     C
C      0.29863  0.57234  0.34143     C
C      0.29903  0.63851  0.70959     C
H      0.29927  0.72653  0.94683     H
C      0.29995  0.26983  0.49053     C
C      0.29996  0.63897  0.62423     C
H       0.3007   0.1261   0.8456     H
C      0.30075  0.03047  0.10921     C
C       0.3008   0.6376  0.36206     C
C      0.30087  0.63693  0.97113     C
C      0.30136  0.24321  0.50683     C
H      0.30183  0.72847  0.73247     H
C      0.30188  0.35594  0.40951     C
C      0.30189  0.12952  0.86738     C
H       0.3024   0.3324   0.2383     H
C      0.30286  0.93694  0.77588     C
C       0.3031  0.88545  0.57331     C
C      0.30322  0.36672   0.1572     C
H      0.30333  0.96907  0.42837     H
C       0.3036   0.6694   0.3622     C
C      0.30381  0.91335  0.45545     C
C       0.3042  0.49239  0.62665     C
C      0.30426  0.40407  0.77071     C
C      0.30427  0.67013  0.97127     C
C      0.30464   0.0265   0.5575     C
C       0.3047  0.22313  0.56087     C
C      0.30517  0.67281  0.62375     C
C      0.30529  0.13971  0.93243     C
C      0.30563  0.67234  0.70911     C
H      0.30567  0.92613  0.21293     H
C      0.30571  0.99555  0.55814     C
H       0.3064   0.1431   0.9542     H
H       0.3065   0.3072   0.0913     H
H      0.30677  0.78233  0.95073     H
C      0.30684  0.94481  0.22416     C
H       0.3072   0.0007   0.9087     H
H      0.30817  0.21183  0.60523     H
H      0.30827  0.33023  0.59813     H
C      0.30966  0.31022  0.74221     C
C      0.30988  0.49401   0.3545     C
C      0.31017  0.30571  0.44186     C
C      0.31022  0.00055  0.25779     C
C      0.31027  0.52821  0.62639     C
C      0.31072  0.27927  0.74285     C
C      0.31075  0.29815  0.21304     C
C      0.31127  0.40263  0.21896     C
H      0.31137  0.01923  0.26903     H
H      0.31137  0.97493  0.06853     H
C      0.31177  0.42635  0.68504     C
H      0.31203  0.78417  0.73327     H
C      0.31215  0.88524  0.60439     C
C      0.31307  0.27828  0.45994     C
H      0.31373  0.37277  0.82037     H
H       0.3141   0.9588   0.9357     H
C      0.31505  0.41393  0.24972     C
C      0.31587  0.22503  0.49255     C
C      0.31668  0.99309  0.08261     C
H      0.31677  0.20723  0.50343     H
C      0.31708  0.53093  0.35453     C
C      0.31762  0.74352  0.95875     C
C      0.31837  0.32491  0.23467     C
O      0.31838  0.43059  0.31537     O
C      0.31978  0.90932  0.51747     C
O      0.32012  0.41113  0.38689     O
C       0.3205  0.11854  0.88606     C
C      0.32073  0.35592  0.87971     C
C      0.32084  0.42599  0.71822     C
H      0.32157  0.21823  0.55333     H
C      0.32174  0.59657  0.62518     C
C      0.32179   0.7459   0.7226     C
C      0.32212  0.77694  0.96106     C
C      0.32221  0.12364  0.91859     C
C      0.32274  0.39668  0.59647     C
O      0.32276  0.48389  0.60956     O
C      0.32358  0.31668  0.91739     C
H      0.32373  0.61057  0.70847     H
C      0.32491  0.00654  0.76533     C
H       0.3251   0.3765   0.1668     H
C      0.32609  0.59779  0.35917     C
C      0.32643  0.34308  0.58405     C
C      0.32679  0.98504    0.432     C
C      0.32719  0.32863  0.09171     C
C      0.32719  0.63237  0.62375     C
C      0.32737  0.77899  0.72276     C
O      0.32739  0.48453  0.37059     O
C      0.32758   0.2601  0.44565     C
C      0.32766   0.6333  0.70911     C
H      0.32767  0.61213  0.97143     H
C      0.32844  0.90768  0.55199     C
C      0.32851  0.94335  0.47064     C
C      0.32863  0.00144  0.90829     C
C      0.32877  0.95505  0.75405     C
C      0.32888   0.3565  0.10853     C
C        0.329  0.23349  0.46196     C
H      0.32903  0.07647  0.57327     H
H       0.3297   0.2706   0.1927     H
C      0.32976  0.05576  0.57368     C
C      0.32987  0.63413  0.97127     C
H      0.33007  0.90183  0.07623     H
H      0.33023  0.02197  0.40187     H
C      0.33029  0.39253  0.83105     C
H       0.3303   0.0676   0.9081     H
C       0.3306   0.6342   0.3622     C
H       0.3307   0.4125   0.2057     H
C      0.33189  0.99386  0.57496     C
H      0.33197  0.21703  0.40223     H
C       0.3322  0.04543  0.12568     C
H       0.3324     0.03   0.7617     H
H      0.33263  0.97317  0.57537     H
C      0.33278  0.97633  0.92446     C
O      0.33296  0.90507  0.74033     O
O      0.33304  0.88815  0.66856     O
O      0.33362  0.44519  0.66478     O
O       0.3337  0.42827  0.59301     O
C      0.33389    0.357  0.40887     C
H      0.33403  0.36017  0.75797     H
H      0.33427  0.30333  0.57163     H
C      0.33447   0.2879  0.20765     C
H       0.3347   0.1163   0.9311     H
C      0.33477  0.33948  0.75838     C
H      0.33597  0.92083  0.12763     H
C      0.33607  0.69913  0.97113     C
H      0.33637  0.26573  0.42523     H
C      0.33637  0.94081  0.50229     C
H      0.33643  0.31137  0.93147     H
H       0.3366   0.4315   0.2571     H
C       0.3368   0.6992  0.36206     C
C       0.3369  0.27758  0.75966     C
H      0.33697  0.06273  0.14063     H
H      0.33763  0.25687  0.76007     H
C      0.33767  0.09984  0.87137     C
C      0.33779  0.97683   0.2248     C
C       0.3379  0.37828  0.57928     C
C      0.33804  0.33189  0.42504     C
C      0.33815  0.38999   0.8627     C
C      0.33822  0.42566  0.78135     C
C        0.339  0.70004  0.62423     C
H        0.339   0.7212   0.3619     H
C      0.33909  0.07323  0.88768     C
O      0.33928   0.8488  0.96274     O
C      0.33929  0.55435  0.61058     C
C      0.33947  0.70097  0.70959     C
C      0.33948   0.0047  0.24162     C
C      0.33987   0.3483  0.90134     C
C      0.34024  0.99025  0.74928     C
C      0.34058  0.73554  0.97416     C
H      0.34157  0.95683  0.16653     H
C      0.34176  0.32679    0.568     C
H      0.34293  0.72277  0.62487     H
C      0.34308  0.01666  0.41595     C
O       0.3439  0.84945  0.72378     O
C      0.34393  0.93665  0.73686     C
C      0.34446  0.20969  0.41474     C
C      0.34455  0.55639  0.37227     C
C      0.34487  0.58744  0.61074     C
C      0.34492  0.73677  0.70816     C
H       0.3451   0.1151     0.78     H
C      0.34582  0.90735  0.61512     C
C      0.34593  0.97742  0.45363     C
C      0.34617  0.21479  0.44727     C
O      0.34655   0.9222  0.94644     O
C      0.34688  0.42402  0.81587     C
O      0.34829  0.90274  0.01796     O
C       0.3483  0.00842  0.09866     C
C      0.34905  0.58981  0.37458     C
C      0.34959   0.8024   0.9788     C
H       0.3499   0.1261   0.8299     H
C      0.34999  0.34024  0.25072     C
C       0.3508   0.1083  0.84078     C
C      0.35162   0.9194  0.08361     C
H      0.35257  0.37453  0.39763     H
H      0.35293  0.96057  0.51297     H
C       0.3536  0.05505  0.87339     C
C      0.35451   0.4481  0.72895     C
H      0.35463  0.54917  0.60007     H
C      0.35489  0.90699   0.6483     C
H       0.3553   0.3141   0.0643     H
H       0.3553   0.3584   0.2648     H
C       0.3554   0.9307  0.11437     C
C      0.35592  0.03518  0.12029     C
C      0.35594  0.05407  0.59049     C
C      0.35639  0.80513  0.70695     C
C      0.35645  0.33278  0.07554     C
C       0.3565  0.02762  0.89147     C
C      0.35679  0.83932  0.97883     C
C        0.357  0.02312  0.59113     C
H       0.3584   0.0031   0.7352     H
H       0.3585   0.1215   0.7281     H
H      0.35947  0.33263  0.42463     H
C      0.35983  0.38852  0.10917     C
H       0.3599    0.551   0.3826     H
H      0.36017  0.02613  0.24203     H
H      0.36027  0.19023  0.37913     H
C      0.36095  0.33779   0.7752     C
H        0.361   0.4072   0.1204     H
C      0.36103    0.661  0.62423     C
C      0.36138  0.19362   0.4009     C
C      0.36149  0.66053  0.70959     C
C      0.36197   0.1102  0.77246     C
C      0.36202  0.30684  0.77584     C
C       0.3624   0.6632  0.36206     C
C       0.3624  0.92927  0.56263     C
C      0.36246  0.84095  0.70669     C
C      0.36285  0.41999  0.87789     C
C      0.36307  0.66393  0.97113     C
H      0.36333  0.36427  0.90497     H
C      0.36345  0.96661  0.17613     C
C      0.36356  0.44789  0.76003     C
C      0.36381  0.39639  0.55745     C
H      0.36427  0.00093  0.09503     H
C      0.36478  0.20381  0.46595     C
C      0.36479  0.97739  0.92382     C
H      0.36483  0.60487  0.60087     H
C      0.36531  0.09012   0.8265     C
C       0.3658   0.6964   0.3622     C
C      0.36587  0.69573  0.97127     C
C      0.36592  0.30286  0.22412     C
H      0.36597  0.20723  0.48773     H
C       0.3667  0.69437  0.70911     C
C      0.36672   0.0635   0.8428     C
H       0.3674   0.6068   0.3865     H
C      0.36763  0.69483  0.62375     C
C      0.36804  0.76099   0.9919     C
C      0.36812  0.97973  0.20672     C
C      0.36852  0.34593  0.54637     C
H      0.36853  0.41857  0.89877     H
H      0.36903  0.61047  0.68307     H
C      0.36944   0.9521  0.94142     C
C      0.37094  0.45424    0.831     C
C        0.371   0.1155    0.742     C
O      0.37129  0.95546  0.71842     O
H      0.37143  0.46347  0.71487     H
H      0.37147  0.41983  0.55363     H
C      0.37148  0.92935   0.5938     C
H      0.37227  0.61663  0.00223     H
C      0.37255  0.79443  0.99422     C
H      0.37277  0.05903  0.17963     H
C      0.37372  0.32877  0.24595     C
C      0.37372  0.76364  0.69286     C
In     0.37376  0.90572  0.70761    In
O      0.37377  0.10707  0.61754     O
H      0.37453  0.02197  0.60237     H
H       0.3765   0.0514   0.8332     H
C      0.37743   0.0975  0.79279     C
C      0.37747  0.92411  0.02993     C
O      0.37788   0.0825  0.38508     O
C      0.37828  0.04039  0.42072     C
In     0.37841  0.90505  0.97116    In
C      0.37877   0.3799  0.54098     C
H      0.37943  0.94407  0.54837     H
C      0.37944  0.45228  0.86259     C
H      0.37953  0.30567  0.78707     H
C      0.37964  0.79697  0.69168     C
H      0.37983  0.65707  0.62487     H
C       0.3799  0.00114  0.45902     C
C         0.38  0.18264  0.41959     C
C      0.38027  0.93454   0.0638     C
C      0.38123  0.08401  0.60809     C
H      0.38133  0.47557  0.82047     H
C       0.3817  0.18774  0.45211     C
H       0.3817   0.2952   0.2203     H
H       0.3822    0.661   0.3619     H
O      0.38241   0.8611  0.99466     O
H      0.38337  0.29813  0.56543     H
H      0.38337  0.75563  0.00223     H
H      0.38473  0.34157  0.83347     H
C      0.38517  0.32851  0.52936     C
O      0.38626  0.92642  0.65741     O
H      0.38643  0.46247  0.76667     H
C      0.38674   0.9559  0.12612     C
O      0.38722  0.86549  0.69055     O
C       0.3874  0.36479  0.07618     C
H      0.38787  0.71553  0.97143     H
C      0.38838  0.36812  0.79328     C
C      0.38852  0.02869  0.89083     C
C      0.38909  0.39266  0.09299     C
H      0.38927  0.10203  0.21503     H
H      0.38943  0.71317  0.70847     H
H      0.38947  0.11723  0.26713     H
H      0.38953  0.75857  0.68307     H
C      0.38991  0.62628  0.69286     C
C      0.38999  0.05183   0.1373     C
C      0.39047  0.30381  0.54455     C
H      0.39097  0.81153  0.00613     H
O      0.39147  0.15649   0.3751     O
C      0.39148  0.96802  0.15983     C
C      0.39184  0.65508  0.70816     C
H      0.39237  0.35293  0.48703     H
H      0.39243  0.99637  0.47397     H
C      0.39253  0.06223  0.16895     C
C      0.39266  0.00357  0.90701     C
C      0.39296  0.63196   0.9919     C
H       0.3932   0.7606   0.3865     H
H      0.39417  0.18043  0.46463     H
H      0.39443  0.94387  0.60047     H
C      0.39497  0.65942  0.97416     C
H      0.39513  0.75997  0.60087     H
C      0.39557  0.33637  0.49771     C
H      0.39597  0.26963  0.58893     H
H      0.39607  0.39243  0.52603     H
C      0.39639  0.03259  0.44255     C
C      0.39668  0.07395  0.40353     C
C      0.39676  0.16535  0.40399     C
C      0.39683  0.36345  0.82387     C
H      0.39703  0.45967  0.92227     H
O      0.39744  0.89469  0.92087     O
O      0.39828  0.13656  0.68051     O
C      0.39879  0.11239  0.73047     C
H      0.39893  0.81417  0.68087     H
O      0.39996  0.95956  0.95087     O
C      0.40081  0.99424  0.22101     C
H      0.40093  0.40397  0.75857     H
C      0.40221   0.7283  0.35917     C
H      0.40237  0.22793  0.61683     H
C      0.40263  0.09136  0.78104     C
C      0.40343  0.72518  0.62518     C
H      0.40397  0.00303  0.24143     H
C      0.40399   0.1088  0.26046     C
C      0.40407   0.0998  0.22929     C
C      0.40431   0.2566  0.57878     C
C      0.40454  0.48416  0.88023     C
O      0.40495  0.93505  0.01384     O
C      0.40617  0.28722  0.52925     C
C      0.40656  0.40081  0.77899     C
O      0.40692  0.12651  0.32407     O
O      0.40717  0.91594  0.75254     O
H       0.4072   0.0462   0.8796     H
C      0.40728  0.34393  0.26314     C
C      0.40817  0.23163  0.59547     C
C      0.40922  0.12002   0.6966     C
H      0.40937  0.28023  0.43333     H
H       0.4098   0.4141   0.0934     H
C      0.41006  0.48104  0.91212     C
C      0.41019  0.75924  0.37458     C
C      0.41047  0.31978  0.48253     C
O      0.41113  0.09102  0.61311     O
C      0.41117  0.96233  0.07533     C
H       0.4125   0.0818   0.7943     H
C      0.41256  0.75744  0.61074     C
C      0.41295  0.26212  0.54689     C
C      0.41393  0.09888  0.75028     C
H       0.4141   0.0043   0.9066     H
O      0.41447  0.18073  0.62623     O
C       0.4149  0.97136  0.10579     C
H      0.41513  0.33597  0.87237     H
H      0.41523  0.60107  0.68087     H
O      0.41584  0.37129  0.28158     O
C      0.41663  0.29572  0.49766     C
C      0.41732  0.62036  0.69168     C
C      0.41734  0.36944  0.05858     C
O       0.4174   0.1579   0.4192     O
C      0.41766   0.3031  0.42669     C
H      0.41857  0.05003  0.10123     H
H      0.41983  0.04837  0.44637     H
C      0.41999  0.05713  0.12211     C
H      0.42033  0.51827  0.84367     H
H      0.42057  0.60903  0.00613     H
C      0.42073  0.21216  0.58026     C
C      0.42077  0.32844  0.44801     C
C      0.42189  0.62745  0.99422     C
H       0.4223   0.7056   0.3311     H
C      0.42345  0.39148  0.84017     C
C        0.424  0.51615  0.86501     C
C      0.42402  0.07713  0.18413     C
C       0.4241  0.67821   0.7226     C
C      0.42417  0.98253  0.17411     C
O      0.42435  0.34655  0.05356     O
C      0.42437  0.18263  0.59763     C
C      0.42469   0.3554  0.88563     C
C      0.42493  0.90897  0.93097     C
H      0.42523  0.70237  0.65027     H
H      0.42537  0.29523  0.38153     H
C      0.42548  0.24266  0.53167     C
C      0.42566  0.08743  0.21865     C
C      0.42591  0.68238  0.95875     C
C      0.42599  0.10514  0.28178     C
C      0.42635  0.11457  0.31496     C
H      0.42663  0.69817  0.73247     H
C      0.42692  0.31215  0.39561     C
H      0.42727  0.70073  0.94683     H
H      0.42757  0.28533  0.48713     H
In     0.42762  0.13471  0.37428    In
C      0.42766  0.72629  0.34143     C
O       0.4279  0.33296  0.25967     O
H      0.42823  0.33007  0.92377     H
O      0.42827  0.09456  0.40699     O
In     0.42828  0.14002  0.63782    In
C      0.42884  0.99566   0.2047     C
C      0.42937  0.21768  0.54836     C
H      0.42967  0.97483  0.06143     H
C       0.4303  0.72325  0.64048     C
O      0.43059  0.11221  0.68463     O
C      0.43083  0.38674  0.87388     C
H      0.43127  0.24633  0.51033     H
H       0.4315   0.0949   0.7429     H
O      0.43169  0.94187  0.70844     O
C      0.43221  0.35162  0.91639     C
O      0.43293  0.91887  0.95957     O
C      0.43314   0.3624  0.43737     C
C      0.43317  0.42884   0.7953     C
H      0.43353  0.89557  0.87147     H
C      0.43503  0.50987  0.92881     C
C      0.43526  0.93658  0.73733     C
H      0.43537  0.37943  0.45163     H
H      0.43667  0.98823  0.11333     H
H      0.43777  0.20463  0.53813     H
C      0.43848  0.34582  0.38488     C
O      0.43865  0.16942  0.58753     O
H      0.43873  0.50777  0.95017     H
O       0.4404  0.39996  0.04913     O
C      0.44163  0.42417  0.82589     C
C      0.44214  0.37148   0.4062     C
H      0.44287  0.98343  0.16323     H
C      0.44353   0.4149  0.89421     C
C      0.44361  0.78816  0.37227     C
O       0.4449  0.33304  0.33144     O
O      0.44519  0.11156  0.33522     O
O      0.44554  0.34829  0.98204     O
C      0.44565  0.78495  0.61058     C
C      0.44572  0.38027   0.9362     C
C      0.44789  0.08432  0.23997     C
C      0.44791  0.35489   0.3517     C
C       0.4481  0.09358  0.27105     C
H      0.44827  0.99863  0.26443     H
H      0.44843  0.43667  0.88667     H
C      0.44873  0.64361  0.70695     C
C      0.44883  0.41117  0.92467     C
C      0.44898  0.54502   0.8817     C
H        0.449   0.8089   0.3826     H
H      0.44963  0.44827  0.73557     H
H      0.45057  0.39443  0.39953     H
H      0.45083  0.80547  0.60007     H
C      0.45161  0.67263  0.72276     C
C      0.45187  0.46471  0.78061     C
C      0.45228  0.07283  0.13741     C
C      0.45282  0.65041   0.9788     C
H      0.45293  0.93917  0.79797     H
C      0.45335  0.37747  0.97007     C
C      0.45424  0.08329    0.169     C
C       0.4545   0.5419   0.9136     C
H      0.45483  0.42967  0.93857     H
C      0.45483  0.67788  0.96106     C
C      0.45498  0.90397   0.8817     C
C      0.45697   0.4681  0.74808     C
C       0.4581  0.91261   0.9136     C
H      0.45943  0.44287  0.83677     H
H      0.45943  0.49207  0.82107     H
H      0.45967  0.06263  0.07773     H
O      0.45985  0.38626  0.34259     O
C       0.4611  0.75522  0.33911     C
H      0.46203  0.56647  0.87147     H
H      0.46247  0.07603  0.23333     H
C      0.46285   0.4943  0.79929     C
H      0.46347  0.09203  0.28513     H
C      0.46363  0.75066  0.64166     C
C      0.46471  0.01283  0.21939     C
O      0.46785   0.1884  0.35721     O
In     0.46805  0.37376  0.29239    In
C       0.4681  0.01112  0.25192     C
C      0.46907  0.78615  0.35453     C
C      0.46931  0.95334  0.75293     C
O      0.46989  0.40495  0.98616     O
C      0.47179  0.78207  0.62639     C
H      0.47213  0.68797  0.73327     H
O      0.47223  0.18797  0.66133     O
C      0.47271  0.95164  0.78545     C
C      0.47304  0.50109  0.73424     C
In     0.47336  0.37841  0.02884    In
H      0.47557  0.09423  0.17953     H
H      0.47557  0.69323  0.95073     H
H      0.47643  0.50337  0.71247     H
H       0.4782   0.7539   0.3272     H
O      0.47826  0.61278  0.69055     O
C      0.47848  0.63754  0.70669     C
O       0.4787  0.61759  0.99466     O
C      0.47892  0.52729  0.78545     C
H      0.48083  0.74857  0.65247     H
C      0.48104  0.07097  0.08788     C
H      0.48173  0.90207  0.84367     H
C      0.48254  0.64321  0.97883     C
C      0.48385  0.90786  0.86501     C
O      0.48389  0.16112  0.39044     O
C      0.48402  0.53069  0.75293     C
C      0.48403  0.57507  0.93097     C
C      0.48416  0.07961  0.11977     C
O      0.48453  0.15714  0.62941     O
O      0.48593  0.56707  0.95957     O
H      0.48623  0.54707  0.79797     H
O      0.48983  0.43169  0.29156     O
C      0.49013  0.92517  0.92881     C
O      0.49047  0.33928  0.03726     O
O      0.49124  0.40717  0.24746     O
H      0.49207  0.03263  0.17893     H
H      0.49223  0.93097  0.95017     H
C      0.49239  0.18818  0.37335     C
C      0.49401  0.18413   0.6455     C
C       0.4943  0.03144  0.20071     C
O      0.49446   0.3439  0.27622     O
H      0.49663  0.97307  0.71247     H
O      0.49724  0.60256  0.92087     O
C      0.49869  0.43526  0.26267     C
C      0.49891  0.97196  0.73424     C
C      0.50109  0.02804  0.26576     C
C      0.50131  0.56474  0.73733     C
O      0.50276  0.39744  0.07913     O
H      0.50337  0.02693  0.28753     H
O      0.50554   0.6561  0.72378     O
C       0.5057  0.96856  0.79929     C
C      0.50599  0.81587   0.3545     C
C      0.50761  0.81182  0.62665     C
H      0.50777  0.06903  0.04983     H
H      0.50793  0.96737  0.82107     H
O      0.50876  0.59283  0.75254     O
O      0.50953  0.66072  0.96274     O
C      0.50987  0.07483  0.07119     C
O      0.51017  0.56831  0.70844     O
H      0.51377  0.45293  0.20203     H
O      0.51407  0.43293  0.04043     O
O      0.51547  0.84286  0.37059     O
C      0.51584  0.92039  0.88023     C
C      0.51597  0.42493  0.06903     C
C      0.51598  0.46931  0.24707     C
O      0.51611  0.83888  0.60956     O
C      0.51615  0.09214  0.13499     C
C      0.51746  0.35679  0.02117     C
H      0.51827  0.09793  0.15633     H
C      0.51896  0.92903  0.91212     C
H      0.51917  0.25143  0.34753     H
C      0.52108  0.47271  0.21455     C
O       0.5213  0.38241  0.00534     O
C      0.52152  0.36246  0.29331     C
O      0.52174  0.38722  0.30945     O
H       0.5218   0.2461   0.6728     H
H      0.52357  0.49663  0.28753     H
H      0.52443  0.30677  0.04927     H
H      0.52443  0.90577  0.82047     H
In     0.52664  0.62159  0.97116    In
C      0.52696  0.49891  0.26576     C
C      0.52729  0.04836  0.21455     C
O      0.52777  0.81203  0.33867     O
H      0.52787  0.31203  0.26673     H
C      0.52821  0.21793  0.37361     C
O      0.53011  0.59505  0.01384     O
C      0.53069  0.04666  0.24707     C
C      0.53093  0.21385  0.64547     C
C       0.5319  0.98888  0.74808     C
In     0.53195  0.62624  0.70761    In
O      0.53215   0.8116  0.64279     O
C      0.53529  0.98717  0.78061     C
C      0.53637  0.24934  0.35834     C
H      0.53653  0.90797  0.71487     H
C      0.53715   0.5057  0.20071     C
H      0.53753  0.92397  0.76667     H
H      0.53797  0.43353  0.12853     H
C       0.5389  0.24478  0.66089     C
O      0.54015  0.61374  0.65741     O
H      0.54033  0.93737  0.92227     H
H      0.54057  0.50793  0.17893     H
H      0.54057  0.55713  0.16323     H
C       0.5419  0.08739   0.0864     C
C      0.54303   0.5319  0.25192     C
C      0.54502  0.09603   0.1183     C
C      0.54517  0.32212  0.03894     C
H      0.54517  0.57033  0.06143     H
C       0.5455   0.4581   0.0864     C
C      0.54576  0.91671    0.831     C
C      0.54665  0.62253  0.02993     C
H      0.54707  0.06083  0.20203     H
C      0.54718  0.34959   0.0212     C
C      0.54772  0.92717  0.86259     C
C      0.54813  0.53529  0.21939     C
C      0.54839  0.32737  0.27724     C
H      0.54917  0.19453  0.39993     H
H      0.54943  0.60557  0.60047     H
H      0.55037  0.55173  0.26443     H
H        0.551   0.1911   0.6174     H
C      0.55102  0.45498   0.1183     C
C      0.55117  0.58883  0.07533     C
C      0.55127  0.35639  0.29305     C
H      0.55157  0.56333  0.11333     H
H      0.55173  0.00137  0.73557     H
C       0.5519  0.90642  0.72895     C
C      0.55209  0.64511   0.6483     C
C      0.55211  0.91568  0.76003     C
C      0.55428  0.61973   0.0638     C
C      0.55435  0.21505  0.38942     C
O      0.55446  0.65171  0.01796     O
O      0.55481  0.88844  0.66478     O
O       0.5551  0.66696  0.66856     O
C      0.55639  0.21184  0.62773     C
C      0.55647   0.5851  0.10579     C
H      0.55713  0.01657  0.83677     H
C      0.55786  0.62852   0.5938     C
C      0.55837  0.57583  0.17411     C
O       0.5596  0.60004  0.95087     O
H      0.56127  0.49223  0.04983     H
O      0.56135  0.83058  0.41247     O
C      0.56152  0.65418  0.61512     C
H      0.56223  0.79537  0.46187     H
H      0.56333  0.01177  0.88667     H
H      0.56463  0.62057  0.54837     H
C      0.56474  0.06342  0.26267     C
C      0.56497  0.49013  0.07119     C
H      0.56647  0.10443  0.12853     H
C      0.56683  0.57116   0.2047     C
C      0.56686   0.6376  0.56263     C
O      0.56707  0.08113  0.04043     O
C      0.56779  0.64838  0.08361     C
O      0.56831  0.05813  0.29156     O
H       0.5685   0.9051   0.2571     H
H      0.56873  0.75367  0.48967     H
C      0.56917  0.61326  0.12612     C
O      0.56941  0.88779  0.31537     O
C       0.5697  0.27675  0.35952     C
H      0.57033  0.02517  0.93857     H
C      0.57063  0.78232  0.45164     C
C      0.57116  0.00434   0.7953     C
In     0.57172  0.85998  0.36218    In
O      0.57173  0.90544  0.59301     O
H      0.57177  0.66993  0.07623     H
O       0.5721  0.66704  0.74033     O
C      0.57234  0.27371  0.65857     C
In     0.57238  0.86529  0.62572    In
H      0.57243  0.71467  0.51287     H
H      0.57273  0.29927  0.05317     H
C      0.57308  0.68785  0.60439     C
H      0.57337  0.30183  0.26753     H
C      0.57365  0.88543  0.68504     C
C      0.57401  0.89486  0.71822     C
C      0.57409  0.31762  0.04125     C
C      0.57434  0.91257  0.78135     C
C      0.57452  0.75734  0.46833     C
H      0.57463  0.70477  0.61847     H
H      0.57477  0.29763  0.34973     H
C      0.57507  0.09103  0.06903     C
C      0.57531   0.6446  0.11437     C
C      0.57563  0.81737  0.40237     C
O      0.57565  0.65345  0.94644     O
C      0.57583  0.01747  0.82589     C
C       0.5759  0.32179   0.2774     C
C      0.57598  0.92287  0.81587     C
C        0.576  0.48385  0.13499     C
C      0.57655  0.60852  0.15983     C
H       0.5777   0.2944   0.6689     H
C      0.57811  0.37255  0.00578     C
C      0.57923  0.67156  0.55199     C
C      0.57927  0.78784  0.41974     C
H      0.57943  0.39097  0.99387     H
H      0.57967  0.48173  0.15633     H
C      0.58001  0.94287  0.87789     C
H      0.58017  0.95163  0.55363     H
H      0.58143  0.94997  0.89877     H
C      0.58234   0.6969  0.57331     C
O       0.5826   0.8421   0.5808     O
C      0.58266  0.63056  0.94142     C
C      0.58268  0.37964  0.30832     C
C      0.58337  0.70428  0.50234     C
O      0.58416  0.62871  0.71842     O
H      0.58477  0.39893  0.31913     H
H      0.58487  0.66403  0.12763     H
C       0.5851  0.02864  0.89421     C
O      0.58553  0.81927  0.37377     O
H       0.5859   0.9957   0.0934     H
C      0.58607  0.90112  0.24972     C
C      0.58705  0.73788  0.45311     C
C      0.58744  0.24256  0.38926     C
H       0.5875   0.9182   0.2057     H
C      0.58883  0.03767  0.92467     C
O      0.58887  0.90898  0.38689     O
C      0.58953  0.68022  0.51747     C
C      0.58981  0.24076  0.62542     C
C      0.58994  0.51896  0.08788     C
H       0.5902   0.5859   0.9066     H
H      0.59063  0.71977  0.56667     H
C      0.59078  0.87998   0.3034     C
C      0.59183  0.76837  0.40453     C
C      0.59272  0.65607  0.73686     C
H       0.5928   0.9538   0.1204     H
O      0.59283  0.08406  0.24746     O
O      0.59308  0.87349  0.67593     O
C      0.59344  0.59919  0.22101     C
C      0.59383  0.71278  0.47075     C
O      0.59505  0.06495  0.98616     O
C      0.59546  0.51584  0.11977     C
C      0.59569   0.7434  0.42122     C
C      0.59593   0.9002  0.77071     C
C      0.59601   0.8912  0.73954     C
H      0.59603  0.99697  0.75857     H
C      0.59657  0.27482  0.37482     C
C      0.59737  0.90864  0.21896     C
H      0.59763  0.77207  0.38317     H
C      0.59779   0.2717  0.64083     C
H      0.59907  0.59603  0.24143     H
C      0.59919  0.00576  0.77899     C
O      0.60004  0.04044  0.04913     O
H      0.60107  0.18583  0.31913     H
C      0.60121  0.88761  0.26953     C
O      0.60172  0.86344  0.31949     O
O      0.60256  0.10531  0.07913     O
H      0.60297  0.54033  0.07773     H
C      0.60317  0.63655  0.17613     C
C      0.60324  0.83465  0.59601     C
C      0.60332  0.92605  0.59647     C
C      0.60361  0.96741  0.55745     C
H      0.60393  0.60757  0.47397     H
H      0.60403  0.73037  0.41107     H
C      0.60443  0.66363  0.50229     C
H      0.60487  0.24003  0.39913     H
C      0.60503  0.34058  0.02584     C
H      0.60557  0.05613  0.39953     H
H      0.60583  0.81957  0.53537     H
H       0.6068   0.2394   0.6135     H
C      0.60704  0.36804   0.0081     C
C      0.60734  0.99643  0.09299     C
C      0.60747  0.93777  0.83105     C
H      0.60757  0.00363  0.52603     H
H      0.60763  0.64707  0.51297     H
C      0.60816  0.34492  0.29184     C
C      0.60852  0.03198  0.84017     C
O      0.60853  0.84351   0.6249     O
H      0.60903  0.18847  0.99387     H
C      0.60953  0.69619  0.45545     C
C      0.61001  0.94817   0.8627     C
C      0.61009  0.37372  0.30714     C
H      0.61047  0.24143  0.31693     H
H      0.61053  0.88277  0.73287     H
H      0.61057  0.28683  0.29153     H
H      0.61073  0.89797  0.78497     H
C      0.61091  0.60734  0.90701     C
C      0.61148  0.97131  0.10917     C
C      0.61162  0.63188  0.20672     C
H      0.61213  0.28447  0.02857     H
C       0.6126  0.63521  0.92382     C
O      0.61278  0.13451  0.30945     O
C      0.61326   0.0441  0.87388     C
H      0.61357  0.53753  0.23333     H
O      0.61374  0.07358  0.34259     O
C      0.61483  0.67149  0.47064     C
H      0.61527  0.65843  0.16653     H
H      0.61663  0.24437  0.99777     H
H      0.61663  0.70187  0.43457     H
O      0.61759   0.1389  0.00534     O
H       0.6178    0.339   0.6381     H
H       0.6183   0.7048   0.7797     H
C       0.6183  0.81226  0.54789     C
H      0.61867  0.52443  0.17953     H
C      0.61877  0.91599  0.39191     C
C      0.61973  0.06546   0.9362     C
C         0.62  0.81736  0.58041     C
C       0.6201  0.99886  0.54098     C
H      0.62017  0.34293  0.37513     H
C      0.62036  0.20303  0.30832     C
H      0.62047  0.69433  0.21293     H
C      0.62056  0.54772  0.13741     C
H      0.62057  0.05593  0.45163     H
C      0.62123   0.6201  0.45902     C
In     0.62159  0.09495  0.02884    In
C      0.62172  0.95961  0.57928     C
O      0.62212   0.9175  0.61492     O
C      0.62253  0.07589  0.97007     C
C      0.62257   0.9025  0.20721     C
H       0.6235   0.9486   0.1668     H
H      0.62547  0.97803  0.39763     H
O      0.62623  0.89293  0.38246     O
In     0.62624  0.09428  0.29239    In
C      0.62628  0.23636  0.30714     C
C      0.62628  0.67123  0.75405     C
H      0.62723  0.94097  0.82037     H
C      0.62745  0.20557  0.00578     C
H      0.62773  0.38337  0.99777     H
C      0.62852  0.07065   0.4062     C
H      0.62853  0.58017  0.44637     H
H      0.62857  0.53653  0.28513     H
O      0.62871  0.04454  0.28158     O
C        0.629   0.8845    0.258     C
C      0.62906  0.54576    0.169     C
C      0.63056   0.0479  0.05858     C
H      0.63097  0.38953  0.31693     H
H      0.63147  0.58143  0.10123     H
C      0.63148  0.65407  0.45363     C
C      0.63188  0.02027  0.79328     C
C      0.63196  0.23901   0.0081     C
C      0.63237  0.30517  0.37625     C
H       0.6326   0.3932   0.6135     H
C      0.63328   0.9365   0.1572     C
C       0.6333  0.30563  0.29089     C
H      0.63403  0.79277  0.51227     H
C      0.63408  0.69714  0.77588     C
C      0.63413  0.30427  0.02873     C
C       0.6342   0.3036   0.6378     C
C      0.63469  0.90988   0.1735     C
H      0.63517  0.39513  0.39913     H
C      0.63521  0.02261  0.07618     C
C      0.63522  0.79619  0.53405     C
H      0.63573  0.99907  0.90497     H
C      0.63619  0.60361  0.44255     C
C      0.63644  0.55211  0.23997     C
C      0.63655  0.03339  0.82387     C
H      0.63667  0.63573  0.09503     H
C      0.63693  0.33607  0.02887     C
C      0.63715  0.58001  0.12211     C
C      0.63754  0.15905  0.29331     C
C       0.6376  0.07073  0.43737     C
C       0.6376   0.3368  0.63794     C
C      0.63798  0.69316  0.22416     C
C      0.63803   0.8898  0.22754     C
C      0.63851  0.33947  0.29041     C
C      0.63862  0.80638   0.5991     C
C      0.63897    0.339  0.37577     C
H        0.639   0.5928   0.8796     H
C      0.63905  0.66221   0.2248     C
H      0.63973  0.80977  0.62087     H
H      0.63983  0.97387  0.75797     H
H       0.6401    0.449   0.6174     H
C      0.64017  0.61148  0.89083     C
H      0.64053  0.66737  0.57537     H
H       0.6415   0.8785   0.2719     H
H       0.6416   0.9969   0.2648     H
C        0.643  0.97688  0.40887     C
C      0.64321  0.16068  0.02117     C
C       0.6435  0.97238  0.10853     C
C      0.64355  0.66722  0.92446     C
C      0.64361  0.19487  0.29305     C
C      0.64406  0.94593  0.40951     C
C      0.64408  0.96482  0.87971     C
C       0.6446   0.0693  0.88563     C
H       0.6447   0.6416   0.7352     H
H       0.6447   0.6859   0.9357     H
C      0.64511  0.09301   0.3517     C
H      0.64537  0.45083  0.39993     H
C      0.64549   0.5519  0.27105     C
C       0.6464  0.94495  0.12661     C
H      0.64707  0.03943  0.48703     H
H      0.64743  0.62547  0.60237     H
C      0.64838   0.0806  0.91639     C
C       0.6492   0.8917  0.15922     C
C      0.65001  0.65976  0.74928     C
H       0.6501   0.8739   0.1701     H
C      0.65041   0.1976   0.0212     C
C      0.65095  0.41019  0.62542     C
C       0.6517  0.99158  0.90134     C
O      0.65171  0.09726  0.98204     O
C      0.65312  0.57598  0.18413     C
O      0.65345   0.0778  0.05356     O
C      0.65383  0.78521  0.55273     C
C      0.65407  0.02258  0.54637     C
C      0.65418  0.09265  0.38488     C
H       0.6549   0.8849     0.22     H
C      0.65508  0.26323  0.29184     C
C      0.65513  0.41256  0.38926     C
C      0.65545  0.44361  0.62773     C
C      0.65554  0.79031  0.58526     C
C      0.65607  0.06335  0.26314     C
O       0.6561  0.15055  0.27622     O
C      0.65692  0.98334  0.58405     C
H      0.65707  0.27723  0.37513     H
C      0.65824  0.67321    0.432     C
H      0.65843  0.04317  0.83347     H
C      0.65942  0.26446  0.02584     C
C      0.65976  0.00975  0.25072     C
C      0.66013   0.6517  0.09866     C
C      0.66052   0.9953  0.75838     C
C      0.66053  0.29903  0.29041     C
C      0.66071  0.44565  0.38942     C
O      0.66072   0.1512  0.03726     O
C      0.66091  0.92677  0.11232     C
H        0.661   0.2788   0.6381     H
C        0.661  0.29996  0.37577     C
C      0.66178  0.57434  0.21865     C
C      0.66185  0.61001   0.1373     C
C      0.66196  0.66811  0.57496     C
C       0.6621  0.62172  0.42072     C
C      0.66221  0.02317   0.7752     C
C      0.66233  0.90016  0.12863     C
H      0.66237  0.74313  0.23993     H
H      0.66303  0.93727  0.85937     H
C       0.6631  0.72242  0.24034     C
C       0.6632   0.3008  0.63794     C
H       0.6634   0.5685   0.7429     H
H      0.66357  0.68863  0.06853     H
C      0.66363  0.05919  0.49771     C
H      0.66363  0.73427  0.57477     H
C      0.66393  0.30087  0.02887     C
H      0.66403  0.07917  0.87237     H
C      0.66523  0.66052  0.24162     C
H       0.6653   0.8837   0.0689     H
C      0.66553   0.7121  0.79235     C
H      0.66573  0.69667  0.42837     H
H      0.66597  0.63983  0.24203     H
C      0.66611    0.643  0.59113     C
O       0.6663  0.57173  0.40699     O
O      0.66638  0.55481  0.33522     O
O      0.66696  0.11185  0.33144     O
O      0.66704  0.09493  0.25967     O
C      0.66722  0.02367  0.07554     C
H      0.66737  0.02683  0.42463     H
H       0.6676     0.97   0.2383     H
C       0.6678  0.95457  0.87432     C
H      0.66803  0.78297  0.59777     H
C      0.66811  0.00614  0.42504     C
H       0.6693   0.5875   0.7943     H
C       0.6694   0.3658   0.6378     C
H       0.6697   0.9324   0.0919     H
C      0.66971  0.60747  0.16895     C
H      0.66977  0.97803  0.59813     H
H      0.66993  0.09817  0.92377     H
C      0.67013  0.36587  0.02873     C
C      0.67024  0.94424  0.42632     C
H       0.6703   0.7294   0.8073     H
H      0.67097  0.92353  0.42673     H
C        0.671  0.76651  0.53804     C
C      0.67112   0.6435  0.89147     C
C      0.67123  0.04495  0.24595     C
C      0.67137  0.99856  0.09171     C
C      0.67149  0.05665  0.52936     C
C      0.67156  0.09232  0.44801     C
H      0.67233  0.38787  0.02857     H
C      0.67234   0.3667  0.29089     C
C      0.67242   0.7399  0.55435     C
O      0.67261  0.51547  0.62941     O
C      0.67263  0.22101  0.27724     C
C      0.67281  0.36763  0.37625     C
C      0.67281  0.67137  0.90829     C
C      0.67321  0.01496    0.568     C
C      0.67357  0.65692  0.41595     C
C      0.67391  0.40221  0.64083     C
H       0.6749   0.6235   0.8332     H
C      0.67509  0.99346  0.23467     C
H      0.67627  0.38943  0.29153     H
C      0.67642  0.68332  0.08261     C
O      0.67724  0.51611  0.39044     O
C      0.67726  0.60332  0.40353     C
C      0.67779  0.87636  0.08141     C
C      0.67788  0.22306  0.03894     C
C      0.67821   0.2541   0.2774     C
C      0.67826  0.40343  0.37482     C
H      0.67843  0.78177  0.44667     H
C      0.67916  0.57401  0.28178     C
C      0.67927  0.64408  0.12029     C
C       0.6795  0.88146  0.11394     C
O      0.67988  0.58887  0.61311     O
C      0.68022  0.09068  0.48253     C
O      0.68162  0.56941  0.68463     O
C      0.68163  0.67509  0.76533     C
C      0.68238  0.25648  0.04125     C
C      0.68292  0.46907  0.64547     C
H      0.68323  0.79277  0.49657     H
C      0.68332  0.00691  0.91739     C
C      0.68413  0.77497  0.50745     C
C      0.68495  0.58607  0.75028     C
H       0.6859   0.0412   0.0643     H
H      0.68627  0.62723  0.17963     H
C      0.68693  0.72172  0.54006     C
C      0.68785  0.11476  0.39561     C
H      0.68797  0.21583  0.26673     H
C      0.68823  0.57365  0.31496     C
H      0.68863  0.02507  0.93147     H
H      0.68863  0.98077  0.73097     H
C      0.68873  0.59737  0.78104     C
C      0.68925  0.70185  0.78696     C
C      0.68928  0.72073  0.25715     C
C      0.68973  0.47179  0.37361     C
C      0.68978  0.99945  0.74221     C
C      0.68983  0.69429  0.55814     C
C      0.69012  0.50599   0.6455     C
C      0.69034  0.68978  0.25779     C
H      0.69173  0.66977  0.40187     H
H      0.69183  0.78817  0.39477     H
H       0.6928   0.9993   0.0913     H
C      0.69316  0.05519  0.77584     C
H      0.69323  0.21767  0.04927     H
H       0.6935   0.6928   0.9087     H
H       0.6936   0.8569   0.0458     H
C      0.69429  0.00445  0.44186     C
H      0.69433  0.07387  0.78707     H
C      0.69437  0.32766  0.29089     C
C      0.69471  0.86029  0.06757     C
C      0.69483  0.32719  0.37625     C
C       0.6953  0.77687  0.43913     C
C      0.69536   0.9735   0.4425     C
C      0.69573  0.32987  0.02873     C
C      0.69574  0.59593  0.22929     C
C       0.6958  0.50761  0.37335     C
C      0.69619  0.08665  0.54455     C
C       0.6964   0.3306   0.6378     C
H      0.69667  0.03093  0.57163     H
C      0.69678  0.63328   0.8428     C
C       0.6969  0.11455  0.42669     C
C      0.69714  0.06306  0.22412     C
H       0.6976   0.6676   0.7617     H
C      0.69811  0.87048  0.13262     C
C      0.69812  0.64406  0.59049     C
H      0.69817  0.27153  0.26753     H
C      0.69864  0.75679  0.49317     C
C      0.69913  0.36307  0.02887     C
C       0.6992   0.3624  0.63794     C
C      0.69925  0.96953  0.89079     C
H       0.6993   0.8739   0.1544     H
C      0.70004  0.36103  0.37577     C
C      0.70005  0.73017  0.50947     C
H      0.70073  0.27347  0.05317     H
C      0.70097  0.36149  0.29041     C
C      0.70137  0.42766  0.65857     C
C      0.70145   0.6464  0.87339     C
C      0.70185   0.0126  0.21304     C
H      0.70187  0.08523  0.56543     H
H      0.70237  0.27713  0.34973     H
C      0.70277  0.61877  0.60809     C
C      0.70428   0.1209  0.49766     C
C      0.70433  0.78217  0.40867     C
O      0.70463  0.62212  0.38508     O
H      0.70477  0.13013  0.38153     H
H       0.7048   0.0865   0.2203     H
C      0.70482  0.59601  0.26046     C
H       0.7056   0.2833   0.6689     H
C      0.70588   0.4611  0.66089     C
H       0.7061   0.7257   0.8463     H
C      0.70705  0.99544  0.91262     C
C      0.70706   0.4303  0.35952     C
In      0.7071  0.57238  0.37428    In
O      0.70711  0.77373   0.2842     O
H      0.70787  0.68863  0.26903     H
H      0.70983  0.71807  0.49987     H
C      0.71076  0.76417  0.45946     C
C       0.7108  0.59078   0.6966     C
O      0.71121  0.74917  0.05175     O
C      0.71162  0.70705  0.08738     C
In     0.71174  0.57172  0.63782    In
C       0.7121  0.04657  0.20765     C
H      0.71277  0.61073  0.21503     H
C      0.71278  0.11894  0.52925     C
H      0.71287  0.97233  0.45373     H
C      0.71298  0.46363  0.35834     C
H      0.71317  0.32373  0.29153     H
C      0.71324   0.6678  0.12568     C
C      0.71333  0.84931  0.08626     C
C       0.7136  0.60121  0.73047     C
C      0.71457  0.75067  0.27475     C
H      0.71467  0.14223  0.48713     H
C      0.71503  0.85441  0.11878     C
H      0.71503  0.96187  0.88697     H
H      0.71553  0.32767  0.02857     H
O      0.71574  0.52777  0.66133     O
H       0.7167   0.4223   0.6689     H
H       0.7167   0.9648   0.2321     H
H      0.71807  0.00823  0.50013     H
C       0.7185  0.99518  0.19603     C
O       0.7196  0.59308  0.32407     O
H      0.71977  0.12913  0.43333     H
C      0.72007  0.62257  0.79279     C
O      0.72056  0.53215  0.35721     O
C      0.72073  0.03146  0.74285     C
H       0.7212   0.3822   0.6381     H
C      0.72172  0.03478  0.45994     C
C      0.72185  0.69536   0.5575     C
C      0.72242  0.05933  0.75966     C
H       0.7226   0.7687   0.8817     H
H      0.72277  0.37983  0.37513     H
H       0.7228   0.7839   0.9338     H
H      0.72287  0.42523  0.34973     H
C      0.72325  0.29294  0.35952     C
C      0.72332   0.7185  0.80397     C
C       0.7238  0.97048  0.21122     C
H       0.7243   0.4782   0.6728     H
O       0.7248  0.82316  0.04177     O
C      0.72481  0.63469   0.8265     C
C      0.72518  0.32174  0.37482     C
H       0.7257   0.0196   0.1537     H
H      0.72577  0.66303  0.14063     H
C      0.72586   0.7289  0.83562     C
C      0.72599  0.67024  0.57368     C
C      0.72629  0.29863  0.65857     C
H      0.72653  0.42727  0.05317     H
H       0.7275   0.8471   0.1313     H
H      0.72777  0.61053  0.26713     H
C       0.7283  0.32609  0.64083     C
H      0.72847  0.42663  0.26753     H
C       0.7289  0.00304  0.16438     C
H       0.7293   0.9363   0.2556     H
H       0.7294   0.0591   0.1927     H
C      0.72973  0.69925  0.10921     C
C      0.73002  0.74061  0.07019     C
C      0.73009  0.83202  0.07066     C
C      0.73017  0.03011  0.49053     C
H      0.73037  0.12633  0.58893     H
O      0.73078  0.56135  0.58753     O
O      0.73161  0.80323  0.34718     O
C      0.73212  0.77906  0.39714     C
H      0.73227  0.48083  0.34753     H
O      0.73329  0.62623  0.61754     O
C      0.73414  0.66091  0.88768     C
H      0.73427  0.07063  0.42523     H
C      0.73554  0.39497  0.02584     C
H       0.7357   0.8946   0.2835     H
C      0.73596  0.75803  0.44771     C
C      0.73677  0.39184  0.29184     C
H       0.7373   0.6697   0.9081     H
C      0.73732  0.77547  0.92713     C
C       0.7374  0.76647  0.89596     C
C      0.73764  0.92327  0.24545     C
C      0.73788  0.15082  0.54689     C
O      0.73828  0.60172  0.68051     O
C       0.7395  0.95389  0.19592     C
C       0.7399  0.06747  0.44565     C
O      0.74025  0.79318  0.99074     O
O      0.74051   0.5826   0.4192     O
H      0.74053  0.71287  0.54627     H
C      0.74061   0.0106  0.92981     C
C       0.7415   0.8983  0.26214     C
C      0.74255  0.78669  0.36327     C
H       0.7427   0.9469      0.1     H
H      0.74313  0.08077  0.76007     H
C       0.7434   0.1477  0.57878     C
C      0.74352  0.42591  0.04125     C
C       0.7438  0.98645   0.1492     C
O      0.74447  0.75768  0.27977     O
C       0.7445    0.629    0.742     C
H      0.74583  0.74847  0.46097     H
C       0.7459   0.4241   0.2774     C
C      0.74628  0.92879  0.21356     C
C      0.74726  0.76555  0.41695     C
H      0.74743  0.67097  0.57327     H
O       0.7478   0.8474   0.2929     O
C      0.74823  0.63803  0.77246     C
H      0.74847  0.00263  0.53903     H
H      0.74857  0.26773  0.34753     H
O      0.74917  0.03796  0.94825     O
C      0.74996  0.96239  0.16433     C
C      0.75066  0.28702  0.35834     C
C      0.75067  0.03611  0.72525     C
O      0.75073  0.82457  0.08587     O
C      0.75099  0.96977  0.09336     C
H       0.7519   0.7167   0.7679     H
H      0.75317  0.71503  0.11303     H
C      0.75332   0.7238  0.78878     C
H      0.75367  0.18493  0.51033     H
H       0.7539   0.2757   0.6728     H
C      0.75406  0.87883  0.24693     C
C       0.7541  0.99511  0.11468     C
C      0.75522  0.29412  0.66089     C
H      0.75563  0.37227  0.99777     H
C      0.75679  0.05814  0.50683     C
C      0.75734  0.18281  0.53167     C
C      0.75735   0.7438   0.8508     C
C      0.75744  0.34487  0.38926     C
C       0.7575   0.6492  0.84078     C
O      0.75768  0.01322  0.72023     O
C       0.7577   0.8493   0.2643     C
C      0.75803  0.02206  0.55229     C
C      0.75827  0.57563  0.59763     C
H      0.75857  0.36903  0.31693     H
H       0.7587   0.9619   0.0482     H
C      0.75881  0.90933  0.19834     C
C      0.75899   0.7541  0.88532     C
C      0.75924  0.34905  0.62542     C
C      0.75932  0.77181  0.94845     C
C      0.75968  0.78124  0.98163     C
H      0.75997  0.36483  0.39913     H
C      0.76025  0.97882  0.06228     C
H       0.7606   0.3674   0.6135     H
H       0.7609    0.952   0.1538     H
In     0.76095  0.80138  0.04095    In
C      0.76099  0.39296   0.0081     C
O      0.76123  0.99963  0.92634     O
H      0.76157  0.99673  0.59043     H
O       0.7616  0.76123  0.07366     O
In     0.76161  0.80669  0.30449    In
C      0.76217  0.66233  0.87137     C
C       0.7627  0.88435  0.21503     C
H        0.763   0.6415   0.7281     H
C      0.76364  0.38991  0.30714     C
O      0.76392  0.77888   0.3513     O
C      0.76417   0.0534  0.54054     C
H       0.7646    0.913    0.177     H
H      0.76483  0.76157  0.40957     H
O      0.76503  0.60853   0.3751     O
C      0.76555  0.01828  0.58305     C
O      0.76627  0.58553  0.62623     O
C      0.76647  0.02907  0.10404     C
C      0.76651   0.0955  0.46196     C
H      0.76687  0.56223  0.53813     H
C      0.76837  0.17653  0.59547     C
C       0.7686  0.60324  0.40399     C
H       0.7687   0.0461   0.1183     H
H         0.77   0.6549     0.78     H
H       0.7711   0.8713   0.2048     H
C      0.77181  0.01249  0.05155     C
O      0.77198  0.83609   0.2542     O
H      0.77207  0.17443  0.61683     H
O      0.77373  0.06663   0.7158     O
C      0.77497  0.09083  0.49255     C
C      0.77547  0.03815  0.07287     C
H       0.7762   0.6501   0.8299     H
C      0.77687  0.08156  0.56087     C
C      0.77694  0.45483  0.03894     C
O      0.77823  0.99971  0.99811     O
O      0.77852  0.77823  0.00189     O
O      0.77888  0.01495   0.6487     O
C      0.77899  0.45161  0.27724     C
C      0.77906  0.04693  0.60286     C
C      0.78122  0.75099  0.90664     C
C      0.78124  0.02156  0.01837     C
C      0.78143  0.76025  0.93772     C
H       0.7816   0.6653   0.9311     H
H      0.78177  0.10333  0.55333     H
C      0.78207  0.31027  0.37361     C
C      0.78217  0.07783  0.59133     C
C      0.78232  0.21168  0.54836     C
H      0.78233  0.47557  0.04927     H
H      0.78297  0.11493  0.40223     H
H       0.7839   0.0611   0.0662     H
H      0.78417  0.47213  0.26673     H
C      0.78495  0.33929  0.38942     C
C      0.78521  0.13137  0.44727     C
C      0.78561   0.7395  0.80408     C
C      0.78615  0.31708  0.64547     C
H      0.78627  0.60583  0.46463     H
C      0.78669  0.04413  0.63673     C
C      0.78757  0.74996  0.83567     C
C      0.78784  0.20856  0.58026     C
C      0.78816  0.34455  0.62773     C
H      0.78817  0.09633  0.60523     H
C      0.78832  0.57063  0.54836     C
C      0.79031  0.13476  0.41474     C
C      0.79144  0.57927  0.58026     C
H      0.79277  0.10953  0.50343     H
H      0.79277  0.15873  0.48773     H
H        0.793   0.7293   0.7444     H
O      0.79318  0.05293  0.00926     O
C      0.79443  0.42189  0.00578     C
H      0.79537  0.23313  0.53813     H
H       0.7958   0.7427      0.9     H
C      0.79619  0.16096  0.46595     C
H       0.7968   0.7587   0.9518     H
C      0.79697  0.41732  0.30832     C
C      0.79804   0.6795  0.88606     C
O      0.80118  0.85507  0.02388     O
In     0.80138  0.04043  0.95905    In
C      0.80143  0.67779  0.91859     C
C       0.8024  0.45282   0.0212     C
C      0.80265     0.62  0.41959     C
O      0.80323  0.07161  0.65282     O
C      0.80513  0.44873  0.29305     C
H      0.80547  0.35463  0.39993     H
O      0.80556  0.85464    0.328     O
C      0.80605   0.6183  0.45211     C
C      0.80638  0.16775   0.4009     C
In     0.80669  0.04508  0.69551    In
H       0.8089   0.3599   0.6174     H
H       0.8089   0.7609   0.8462     H
H      0.80977  0.17003  0.37913     H
H      0.81153  0.42057  0.99387     H
O       0.8116  0.27944  0.35721     O
C      0.81182   0.3042  0.37335     C
O      0.81203  0.28426  0.66133     O
C      0.81226  0.19395  0.45211     C
H      0.81417  0.41523  0.31913     H
C      0.81437  0.73764  0.75455     C
H      0.81507  0.56873  0.51033     H
C      0.81587  0.30988   0.6455     C
C      0.81719  0.57452  0.53167     C
O      0.81722  0.82779  0.05711     O
C      0.81736  0.19735  0.41959     C
C      0.81737  0.24173  0.59763     C
C      0.81749  0.74628  0.78644     C
O      0.81786  0.82381  0.29608     O
O      0.81927  0.23373  0.62623     O
H      0.81957  0.21373  0.46463     H
O      0.82316  0.09836  0.95823     O
C      0.82347  0.59183  0.59547     C
O      0.82381  0.00594  0.70392     O
O      0.82457  0.07384  0.91413     O
H       0.8254   0.6993   0.8456     H
H      0.82557  0.59763  0.61683     H
C      0.82572  0.85485  0.04002     C
C      0.82734   0.8508  0.31217     C
C      0.82763  0.69811  0.86738     C
O      0.82779  0.01057  0.94289     O
H      0.82997  0.63973  0.37913     H
O      0.83058  0.26922  0.58753     O
C      0.83202  0.10193  0.92934     C
C      0.83225  0.63862   0.4009     C
C      0.83442  0.69471  0.93243     C
C      0.83465   0.2314  0.40399     C
O      0.83609  0.06411   0.7458     O
H       0.8367   0.6936   0.9542     H
O      0.83888  0.32276  0.39044     O
C      0.83904  0.63522  0.46595     C
C      0.83932  0.48254  0.02117     C
C      0.84095  0.47848  0.29331     C
H       0.8411   0.7357   0.7165     H
H      0.84127  0.63403  0.48773     H
O       0.8421  0.25949   0.4192     O
O      0.84286  0.32739  0.62941     O
C       0.8432   0.7415  0.73786     C
O      0.84351  0.23497   0.3751     O
H       0.8471   0.1196   0.8687     H
O       0.8474   0.0996   0.7071     O
O       0.8488  0.50953  0.03726     O
C      0.84918  0.58705  0.54689     C
C       0.8493   0.0916   0.7357     C
C      0.84931  0.13598  0.91374     C
O      0.84945  0.50554  0.27622     O
C      0.84948  0.75881  0.80166     C
C       0.8508  0.02345  0.68783     C
H       0.8516   0.7646    0.823     H
C       0.8523  0.59569  0.57878     C
H       0.8525   0.9181   0.0142     H
C      0.85441  0.13938  0.88122     C
O      0.85464  0.04907    0.672     O
C      0.85485  0.02913  0.95998     C
O      0.85507  0.05389  0.97612     O
H      0.85513  0.91277  0.33947     H
H       0.8569   0.1633   0.9542     H
H      0.85777  0.57243  0.48713     H
H      0.85777  0.97343  0.71593     H
In     0.85998  0.28826  0.63782    In
C      0.86029  0.16558  0.93243     C
C      0.86062  0.71503  0.88122     C
O       0.8611   0.4787  0.00534     O
H       0.8612   0.9787   0.9334     H
C      0.86154   0.8846  0.04028     C
O      0.86344  0.26172  0.68051     O
C      0.86402  0.71333  0.91374     C
C      0.86426  0.88052  0.31214     C
C      0.86524  0.65554  0.41474     C
In     0.86529   0.2929  0.37428    In
O      0.86549  0.47826  0.30945     O
C      0.86863  0.65383  0.44727     C
C       0.8697  0.91601  0.02501     C
H      0.86987  0.57463  0.38153     H
C      0.87048  0.17237  0.86738     C
H      0.87087  0.59063  0.43333     H
H       0.8713   0.1002   0.7952     H
C      0.87223  0.91145  0.32756     C
O      0.87349   0.2804  0.32407     O
H      0.87367  0.60403  0.58893     H
H       0.8739   0.1746   0.8456     H
H       0.8739   0.2238   0.8299     H
C      0.87523  0.75406  0.75307     C
C      0.87636  0.19857  0.91859     C
C      0.87835   0.7627  0.78497     C
H       0.8785    0.237   0.7281     H
C      0.87851  0.98878   0.7056     C
C      0.87883  0.12477  0.75307     C
C       0.8791  0.58337  0.49766     C
C      0.87998   0.2892   0.6966     C
H       0.8804   0.7275   0.8687     H
C      0.88052  0.01625  0.68786     C
C      0.88106  0.59383  0.52925     C
C      0.88146  0.20196  0.88606     C
C      0.88172  0.99404  0.94391     C
H       0.8825   0.8612   0.0666     H
H      0.88277  0.27223  0.26713     H
H       0.8837   0.2184   0.9311     H
H      0.88433  0.85777  0.28407     H
C      0.88435  0.12165  0.78497     C
C       0.8845   0.2555    0.742     C
C       0.8846  0.02306  0.95972     C
H       0.8849     0.23     0.78     H
H      0.88507  0.66803  0.40223     H
C      0.88524  0.57308  0.39561     C
C      0.88543  0.31177  0.31496     C
C      0.88545  0.58234  0.42669     C
C      0.88761   0.2864  0.73047     C
C      0.88768  0.88172  0.05609     C
O      0.88779  0.31838  0.68463     O
O      0.88815   0.5551  0.33144     O
O      0.88844  0.33362  0.33522     O
C      0.88972  0.87851   0.2944     C
C       0.8898  0.25177  0.77246     C
H      0.89047  0.68323  0.50343     H
C       0.8912  0.29518  0.26046     C
C       0.8917   0.2425  0.84078     C
O      0.89293  0.26671  0.61754     O
H       0.8946   0.1589   0.7165     H
O      0.89469  0.49724  0.07913     O
C      0.89486  0.32084  0.28178     C
H      0.89557  0.46203  0.12853     H
H      0.89667  0.67843  0.55333     H
H      0.89797  0.28723  0.21503     H
C      0.89807  0.73009  0.92934     C
C       0.8983   0.1568  0.73786     C
H       0.8998   0.7711   0.7952     H
C      0.90016  0.23783  0.87137     C
C       0.9002  0.30426  0.22929     C
O       0.9004   0.7478   0.7071     O
C      0.90112  0.31505  0.75028     C
O      0.90164   0.7248  0.95823     O
H      0.90183  0.57177  0.92377     H
H      0.90207  0.42033  0.15633     H
C       0.9025  0.27993  0.79279     C
O      0.90274  0.55446  0.98204     O
C      0.90303  0.94342  0.02619     C
H      0.90367  0.69183  0.60523     H
C      0.90397  0.44898   0.1183     C
C       0.9045    0.671  0.46196     C
In     0.90505  0.52664  0.02884    In
O      0.90507   0.5721  0.25967     O
H       0.9051   0.3366   0.7429     H
O      0.90544   0.3337  0.40699     O
C      0.90567  0.94038  0.32524     C
In     0.90572  0.53195  0.29239    In
H      0.90577  0.38133  0.17953     H
H      0.90607  0.96593  0.71983     H
C      0.90642  0.35451  0.27105     C
H       0.9067   0.9685   0.9342     H
C      0.90699  0.55209   0.3517     C
C      0.90735  0.56152  0.38488     C
C      0.90743  0.98428  0.70791     C
C      0.90768  0.57923  0.44801     C
C      0.90786    0.424  0.13499     C
H      0.90797  0.37143  0.28513     H
H       0.9081   0.9643   0.0164     H
C       0.9084   0.7577   0.7357     C
C      0.90864  0.31127  0.78104     C
C      0.90897  0.48403  0.06903     C
O      0.90898  0.32012  0.61311     O
C      0.90917  0.68413  0.49255     C
C      0.90923  0.98846  0.94407     C
C      0.90932  0.58953  0.48253     C
C      0.90933  0.15052  0.80166     C
C      0.90988  0.27519   0.8265     C
H      0.91103  0.96107  0.33557     H
C      0.91145  0.03921  0.67244     C
C      0.91257  0.33822  0.21865     C
C      0.91261   0.4545   0.0864     C
H      0.91277  0.05763  0.66053     H
H        0.913   0.1484    0.823     H
C      0.91335  0.60953  0.54455     C
H       0.9135   0.6183   0.2203     H
H      0.91477  0.61663  0.56543     H
C      0.91568  0.36356  0.23997     C
O      0.91594  0.50876  0.24746     O
C      0.91599  0.29723  0.60809     C
C      0.91601  0.04631  0.97499     C
C      0.91671  0.37094    0.169     C
O       0.9175  0.29537  0.38508     O
H       0.9181   0.0656   0.9858     H
H       0.9182   0.3307   0.7943     H
C      0.91844   0.6953  0.56087     C
O      0.91887  0.48593  0.04043     O
H      0.91923  0.66237  0.76007     H
C       0.9194  0.56779  0.91639     C
C      0.92039  0.40454  0.11977     C
C      0.92077  0.90923  0.05593     C
H      0.92083  0.58487  0.87237     H
C      0.92217  0.70433  0.59133     C
O       0.9222  0.57565  0.05356     O
C      0.92287  0.34688  0.18413     C
C      0.92314  0.90743  0.29209     C
C      0.92327  0.18563  0.75455     C
H      0.92353  0.25257  0.57327     H
H      0.92397  0.38643  0.23333     H
C      0.92411  0.54665  0.97007     C
C      0.92517  0.43503  0.07119     C
C      0.92605  0.32274  0.40353     C
H      0.92613  0.62047  0.78707     H
O      0.92616  0.75073  0.91413     O
O      0.92642  0.54015  0.34259     O
C      0.92677  0.26586  0.88768     C
C      0.92717  0.37944  0.13741     C
O      0.92839  0.73161  0.65282     O
C      0.92879  0.18251  0.78644     C
C      0.92903  0.41006  0.08788     C
C      0.92927  0.56686  0.43737     C
C      0.92935  0.55786   0.4062     C
H      0.92937  0.66363  0.42523     H
C       0.9299  0.94149  0.04149     C
C       0.9307  0.57531  0.88563     C
H      0.93097  0.43873  0.04983     H
C      0.93112  0.93837   0.3075     C
H       0.9324   0.2627   0.9081     H
C      0.93253  0.67242  0.44565     C
O      0.93337  0.70711   0.7158     O
H       0.9344   0.8525   0.9858     H
C      0.93454  0.55428   0.9362     C
O      0.93505  0.53011  0.98616     O
O      0.93589  0.77198   0.7458     O
H       0.9363    0.207   0.7444     H
C       0.9365  0.30322   0.8428     C
C      0.93658  0.50131  0.26267     C
C      0.93665  0.59272  0.26314     C
C      0.93694  0.63408  0.22412     C
H      0.93727  0.27423  0.14063     H
H      0.93737  0.39703  0.07773     H
C      0.93777  0.33029  0.16895     C
H       0.9382   0.9067   0.0658     H
C      0.93837  0.00724   0.6925     C
H       0.9389   0.7228   0.0662     H
H      0.93917  0.48623  0.20203     H
H      0.94013  0.90607  0.28017     H
C      0.94038   0.0347  0.67476     C
C      0.94067   0.6631  0.75966     C
C      0.94081  0.60443  0.49771     C
H       0.9409   0.6703   0.1927     H
H      0.94097  0.31373  0.17963     H
C      0.94149  0.01159  0.95851     C
C      0.94186  0.69864  0.50683     C
O      0.94187  0.51017  0.29156     O
H      0.94237  0.85513  0.66053     H
C      0.94287  0.36285  0.12211     C
C      0.94335  0.61483  0.52936     C
C      0.94342  0.04039  0.97381     C
H       0.9438   0.9081   0.9836     H
H      0.94387  0.54943  0.39953     H
H       0.9439   0.9535   0.9582     H
H      0.94407  0.56463  0.45163     H
C      0.94424  0.27401  0.57368     C
C      0.94481  0.63798  0.77584     C
C      0.94495  0.29855  0.87339     C
H      0.94547  0.95113  0.69523     H
C      0.94593  0.30188  0.59049     C
O      0.94611  0.80118  0.97612     O
C       0.9466  0.71076  0.54054     C
H       0.9469   0.2042      0.9     H
O      0.94707  0.74025  0.00926     O
C      0.94817  0.33815   0.1373     C
H       0.9486   0.3251   0.8332     H
H      0.94997  0.36853  0.10123     H
H      0.94997  0.91103  0.66443     H
O      0.95093  0.80556    0.672     O
H      0.95113  0.00567  0.30477     H
H      0.95163  0.37147  0.44637     H
C      0.95164  0.47892  0.21455     C
H        0.952   0.1911   0.8462     H
C       0.9521  0.58266  0.05858     C
C      0.95307  0.73212  0.60286     C
C      0.95334  0.48402  0.24707     C
C      0.95343  0.66553  0.20765     C
H       0.9535   0.0096   0.0418     H
C      0.95369   0.8697  0.97499     C
H       0.9538    0.361   0.8796     H
C      0.95389  0.21439  0.80408     C
H       0.9539   0.7226   0.1183     H
C      0.95457  0.28676  0.12568     C
In     0.95492  0.76161  0.69551    In
C      0.95505  0.62628  0.24595     C
O      0.95546  0.58416  0.28158     O
C      0.95587  0.74255  0.63673     C
C       0.9559  0.56917  0.87388     C
H      0.95683  0.61527  0.83347     H
H       0.9588   0.6447   0.0643     H
O      0.95956   0.5596  0.04913     O
In     0.95957  0.76095  0.95905    In
C      0.95961   0.3379  0.42072     C
C      0.95961  0.90303  0.97381     C
H      0.96057  0.60763  0.48703     H
C      0.96079  0.87223  0.67244     C
H      0.96107  0.05003  0.66443     H
C      0.96185  0.73732  0.07287     C
H      0.96187  0.24683  0.11303     H
H       0.9619   0.2032   0.9518     H
O      0.96204  0.71121  0.94825     O
C      0.96233  0.55117  0.92467     C
C      0.96239  0.21243  0.83567     C
C      0.96389  0.71457  0.72525     C
H       0.9643   0.0562   0.9836     H
H       0.9648   0.2481   0.7679     H
C      0.96482  0.32073  0.12029     C
C      0.96522  0.68693  0.45994     C
C       0.9653  0.90567  0.67476     C
C       0.9657  0.97184  0.04292     C
H      0.96593  0.05987  0.28017     H
C      0.96661  0.60317  0.82387     C
C      0.96663   0.9723  0.95756     C
H      0.96737  0.45943  0.17893     H
C      0.96741  0.36381  0.44255     C
C      0.96747  0.97093  0.69539     C
C      0.96753  0.97027  0.30447     C
C      0.96802  0.57655  0.84017     C
H       0.9685   0.0618   0.0658     H
C      0.96854  0.68928  0.74285     C
C      0.96856  0.46285  0.20071     C
H      0.96907  0.66573  0.57163     H
C      0.96953  0.27027  0.10921     C
C      0.96977  0.21878  0.90664     C
C      0.96989  0.70005  0.49053     C
H         0.97   0.3024   0.7617     H
C      0.97027  0.00273  0.69553     C
C      0.97048  0.24668  0.78878     C
C      0.97087  0.82572  0.95998     C
C      0.97093  0.00347  0.30461     C
C      0.97093   0.7374  0.10404     C
C      0.97131  0.35983  0.89083     C
C      0.97136  0.55647  0.89421     C
C      0.97184  0.00614  0.95708     C
C      0.97196  0.47304  0.26576     C
C       0.9723  0.00567  0.04244     C
H      0.97233  0.25947  0.54627     H
C      0.97238  0.32888  0.89147     C
H      0.97307  0.47643  0.28753     H
H      0.97317  0.64053  0.42463     H
H      0.97343  0.11567  0.28407     H
C       0.9735  0.27815   0.5575     C
H      0.97387  0.33403  0.24203     H
H      0.97483  0.54517  0.93857     H
H      0.97493  0.66357  0.93147     H
C      0.97633  0.64355  0.07554     C
C      0.97655  0.82734  0.68783     C
C      0.97683  0.63905   0.7752     C
C      0.97688  0.33389  0.59113     C
C      0.97694  0.86154  0.95972     C
C      0.97739   0.6126  0.07618     C
C      0.97742  0.63148  0.54637     C
C      0.97794  0.73596  0.55229     C
H      0.97803  0.30827  0.40187     H
H      0.97803  0.35257  0.60237     H
C      0.97844  0.75968  0.01837     C
H       0.9787   0.1175   0.0666     H
C      0.97882  0.21857  0.93772     C
C      0.97973  0.61162  0.79328     C
H       0.9804   0.7061   0.1537     H
H      0.98077  0.29213  0.26903     H
C      0.98172  0.74726  0.58305     C
C      0.98253  0.55837  0.82589     C
C      0.98334  0.32643  0.41595     C
H      0.98343  0.54057  0.83677     H
C      0.98375  0.86426  0.68786     C
C      0.98428  0.07686  0.29209     C
C      0.98504  0.65824    0.568     C
O      0.98505  0.76392   0.6487     O
C      0.98645  0.24265   0.8508     C
O      0.98678  0.74447  0.72023     O
C      0.98717  0.45187  0.21939     C
C       0.9874  0.68925  0.21304     C
C      0.98751  0.75932  0.05155     C
H      0.98823  0.55157  0.88667     H
C      0.98841   0.9299  0.95851     C
C      0.98846  0.07923  0.05593     C
C      0.98878  0.11028   0.2944     C
C      0.98888  0.45697  0.25192     C
C       0.9894  0.73002  0.92981     C
O      0.98943  0.81722  0.94289     O
C      0.99025  0.65001  0.25072     C
H       0.9904   0.9439   0.0418     H
C      0.99158  0.33987  0.09866     C
H      0.99177  0.70983  0.50013     H
C      0.99276  0.93112   0.6925     C
C      0.99309  0.67642  0.91739     C
C      0.99346  0.31837  0.76533     C
C      0.99386  0.66196  0.42504     C
C      0.99386   0.9657  0.95708     C
C      0.99404  0.11232  0.05609     C
O      0.99406  0.81786  0.70392     O
C      0.99424  0.59344  0.77899     C
H      0.99433  0.94547  0.30477     H
C      0.99433  0.96663  0.04244     C
C      0.99511  0.24101  0.88532     C
C      0.99518  0.27668  0.80397     C
C       0.9953  0.33477  0.24162     C
C      0.99544  0.28838  0.08738     C
C      0.99555  0.68983  0.44186     C
C      0.99566  0.56683   0.7953     C
H       0.9957   0.4098   0.9066     H
H      0.99637  0.60393  0.52603     H
C      0.99643  0.38909  0.90701     C
C      0.99653  0.96747  0.30461     C
H      0.99673  0.23517  0.40957     H
H       0.9969   0.3553   0.7352     H
C      0.99696  0.72586  0.16438     C
H      0.99697  0.40093  0.24143     H
C      0.99727  0.96753  0.69553     C
H      0.99737  0.74583  0.53903     H
C      0.99856  0.32719  0.90829     C
H      0.99863  0.55037  0.73557     H
C      0.99886  0.37877  0.45902     C
H      0.99907  0.36333  0.09503     H
H       0.9993   0.3065   0.9087     H
C      0.99945  0.30966  0.25779     C
O      0.99963   0.2384  0.07366     O
O      0.99971  0.22148  0.00189     O
