data_I
_chemical_name_common  '/home/zhangsd/repos/MofS-CGCNN/ML/data/TSD/clean_cifs/FOXHUX_clean'
_cell_length_a 16.41740
_cell_length_b 18.17980
_cell_length_c 18.17980
_cell_angle_alpha 90.00000
_cell_angle_beta  90.00000
_cell_angle_gamma 90.00000
_space_group_name_H-M_alt      'P 1'


loop_
_space_group_symop_operation_xyz
  'x, y, z' 

loop_
_atom_site_label
_atom_site_fract_x
_atom_site_fract_y
_atom_site_fract_z
_atom_site_type_symbol
La         0.0   0.7848   0.7848    La
Cl         0.0  0.89662  0.89662    Cl
H       0.0004   0.1944   0.9487     H
C       0.0071   0.1447   0.9673     C
N       0.0074   0.0398   0.7856     N
O       0.0087   0.2757   0.7626     O
C       0.0141   0.5206    0.772     C
O       0.0147  0.65094   0.7679     O
C       0.0221   0.8424   0.0899     C
H       0.0277   0.8205   0.1389     H
H       0.0337   0.4104   0.7826     H
H        0.035   0.1127    0.715     H
C       0.0373   0.0624   0.7236     C
O       0.0406   0.9061   0.7289     O
C       0.0411   0.0944   0.9037     C
C       0.0452   0.5915   0.7941     C
H       0.0466   0.1463   0.0069     H
C         0.05   0.7203   0.5153     C
C       0.0522   0.4561   0.7983     C
H       0.0524   0.0456   0.9226     H
H       0.0613   0.9708   0.3975     H
H       0.0635   0.0189   0.0713     H
N       0.0648   0.7342   0.2776     N
H       0.0681   0.7079   0.4684     H
H       0.0686    0.547   0.5941     H
C       0.0703   0.9962   0.1192     C
C       0.0733    0.019   0.6674     C
C       0.0742   0.9397   0.6728     C
H       0.0811   0.5867   0.0169     H
H       0.0821   0.4594   0.0137     H
N       0.0855   0.6888   0.5708     N
H         0.09   0.0333   0.1531     H
H       0.0914    0.115   0.8848     H
H        0.099    0.887    0.016     H
O       0.1013   0.7207   0.3375     O
C       0.1028   0.8702   0.0671     C
C       0.1045   0.5602   0.0552     C
H       0.1048   0.1038   0.6026     H
C       0.1059   0.9729   0.3661     C
O        0.106   0.7397    0.221     O
C       0.1062   0.4843   0.0527     C
C       0.1075   0.0528   0.6062     C
H       0.1079   0.5839   0.6633     H
C       0.1113   0.5902   0.8427     C
H       0.1114   0.0827   0.3646     H
C        0.112   0.9026    0.616     C
C       0.1153     0.46   0.8459     C
H       0.1153   0.8516    0.618     H
H       0.1171   0.8655   0.3593     H
C       0.1191   0.5659   0.6141     C
C       0.1309   0.9341   0.1141     C
H       0.1329   0.6345   0.8593     H
C       0.1347     0.04   0.3459     C
H       0.1347   0.6484    0.118     H
C        0.138   0.5974    0.116     C
H       0.1386   0.4173   0.8646     H
C       0.1387   0.9098   0.3427     C
H       0.1421   0.9161   0.1633     H
C       0.1425   0.4472   0.1062     C
C       0.1438   0.0157   0.5527     C
O        0.144   0.7603    0.721     O
C       0.1441   0.5271   0.8661     C
H       0.1452   0.3962   0.1026     H
C       0.1455   0.9398   0.5552     C
C       0.1472   0.6298   0.5671     C
O       0.1487   0.7793   0.8375     O
H        0.151    0.613    0.516     H
H       0.1586    0.385   0.3848     H
H         0.16   0.4667   0.6531     H
N       0.1645   0.8112   0.0708     N
H       0.1679   0.0406   0.5137     H
H       0.1689   0.9133   0.5169     H
C       0.1758   0.5603   0.1728     C
C       0.1767    0.481   0.1674     C
C       0.1797   0.5038   0.6192     C
H       0.1814    0.953   0.0941     H
H       0.1819   0.7921   0.9684     H
N       0.1852   0.7658   0.7776     N
H       0.1865   0.4811   0.5713     H
H       0.1887   0.5292   0.8975     H
H       0.1976   0.4544   0.4226     H
C       0.1978   0.0439   0.2983     C
C          0.2   0.7797   0.0153     C
H       0.2034   0.3537   0.5069     H
C       0.2048   0.9085   0.2941     C
C       0.2089   0.4056   0.4037     C
O       0.2094   0.5939   0.2289     O
C       0.2127   0.4376   0.2236     C
H        0.215   0.3873    0.215     H
H       0.2163   0.0896   0.2826     H
H       0.2223   0.6795   0.6389     H
C       0.2279   0.6576   0.5899     C
O       0.2353  0.84906   0.2679     O
C       0.2359   0.9794    0.272     C
O       0.2413   0.2243   0.2626     O
N       0.2426   0.4602   0.2856     N
C       0.2429   0.3553   0.4673     C
H       0.2496   0.3056   0.4487     H
Cl        0.25  0.60338  0.39662    Cl
La        0.25   0.7152   0.2848    La
H       0.2504   0.5513   0.6944     H
C       0.2571   0.5327   0.6447     C
N       0.2574   0.7144   0.5398     N
O       0.2587   0.7374   0.7757     O
C       0.2641    0.728   0.0206     C
O       0.2647   0.7321  0.15094     O
C       0.2721   0.4101   0.3424     C
H       0.2777   0.3611   0.3205     H
H       0.2837   0.7174   0.9104     H
H        0.285    0.785   0.6127     H
C       0.2873   0.7764   0.5624     C
O       0.2906   0.7711   0.4061     O
C       0.2911   0.5963   0.5944     C
C       0.2952   0.7059   0.0915     C
H       0.2966   0.4931   0.6463     H
C          0.3   0.9847   0.2203     C
C       0.3022   0.7017   0.9561     C
H       0.3024   0.5774   0.5456     H
H       0.3113   0.1025   0.4708     H
H       0.3135   0.4287   0.5189     H
N       0.3148   0.2224   0.2342     N
H       0.3181   0.0316   0.2079     H
H       0.3186   0.9059    0.047     H
C       0.3203   0.3808   0.4962     C
C       0.3233   0.8326    0.519     C
C       0.3242   0.8272   0.4397     C
H       0.3311   0.4831   0.0867     H
H       0.3321   0.4863   0.9594     H
N       0.3355   0.9292   0.1888     N
H         0.34   0.3469   0.5333     H
H       0.3414   0.6152    0.615     H
H        0.349    0.484    0.387     H
O       0.3513   0.1625   0.2207     O
C       0.3528   0.4329   0.3702     C
C       0.3545   0.4448   0.0602     C
H       0.3548   0.8974   0.6038     H
C       0.3559   0.1339   0.4729     C
O        0.356    0.279   0.2397     O
C       0.3562   0.4473   0.9843     C
C       0.3575   0.8938   0.5528     C
H       0.3579   0.8367   0.0839     H
C       0.3613   0.6573   0.0902     C
H       0.3614   0.1354   0.5827     H
C        0.362    0.884   0.4026     C
C       0.3653   0.6541     0.96     C
H       0.3653    0.882   0.3516     H
H       0.3671   0.1407   0.3655     H
C       0.3691   0.8859   0.0659     C
C       0.3809   0.3859   0.4341     C
H       0.3829   0.6407   0.1345     H
C       0.3847   0.1541     0.54     C
H       0.3847    0.382   0.1484     H
C        0.388    0.384   0.0974     C
H       0.3886   0.6354   0.9173     H
C       0.3887   0.1573   0.4098     C
H       0.3921   0.3367   0.4161     H
C       0.3925   0.3938   0.9472     C
C       0.3938   0.9473   0.5157     C
O        0.394    0.779   0.2603     O
C       0.3941   0.6339   0.0271     C
H       0.3952   0.3974   0.8962     H
C       0.3955   0.9448   0.4398     C
C       0.3972   0.9329   0.1298     C
O       0.3987   0.6625   0.2793     O
H        0.401    0.984    0.113     H
H       0.4086   0.1152    0.885     H
H         0.41   0.8469   0.9667     H
N       0.4145   0.4292   0.3112     N
H       0.4179   0.9863   0.5406     H
H       0.4189   0.9831   0.4133     H
C       0.4258   0.3272   0.0603     C
C       0.4267   0.3326    0.981     C
C       0.4297   0.8808   0.0038     C
H       0.4314   0.4059    0.453     H
H       0.4319   0.5316   0.2921     H
N       0.4352   0.7224   0.2658     N
H       0.4365   0.9287   0.9811     H
H       0.4387   0.6025   0.0292     H
H       0.4476   0.0774   0.9544     H
C       0.4478   0.2017   0.5439     C
C         0.45   0.4847   0.2797     C
H       0.4534   0.9931   0.8537     H
C       0.4548   0.2059   0.4085     C
C       0.4589   0.0963   0.9056     C
O       0.4594   0.2711   0.0939     O
C       0.4627   0.2764   0.9376     C
H        0.465    0.285   0.8873     H
H       0.4663   0.2174   0.5896     H
H       0.4723   0.8611   0.1795     H
C       0.4779   0.9101   0.1576     C
O       0.4853   0.2321  0.34906     O
C       0.4859    0.228   0.4794     C
O       0.4913   0.2374   0.7243     O
N       0.4926   0.2144   0.9602     N
C       0.4929   0.0327   0.8553     C
H       0.4996   0.0513   0.8056     H
Cl         0.5  0.10338  0.10338    Cl
La         0.5   0.2152   0.2152    La
H       0.5004   0.8056   0.0513     H
C       0.5071   0.8553   0.0327     C
N       0.5074   0.9602   0.2144     N
O       0.5087   0.7243   0.2374     O
C       0.5141   0.4794    0.228     C
O       0.5147  0.34906   0.2321     O
C       0.5221   0.1576   0.9101     C
H       0.5277   0.1795   0.8611     H
H       0.5337   0.5896   0.2174     H
H        0.535   0.8873    0.285     H
C       0.5373   0.9376   0.2764     C
O       0.5406   0.0939   0.2711     O
C       0.5411   0.9056   0.0963     C
C       0.5452   0.4085   0.2059     C
H       0.5466   0.8537   0.9931     H
C         0.55   0.2797   0.4847     C
C       0.5522   0.5439   0.2017     C
H       0.5524   0.9544   0.0774     H
H       0.5613   0.0292   0.6025     H
H       0.5635   0.9811   0.9287     H
N       0.5648   0.2658   0.7224     N
H       0.5681   0.2921   0.5316     H
H       0.5686    0.453   0.4059     H
C       0.5703   0.0038   0.8808     C
C       0.5733    0.981   0.3326     C
C       0.5742   0.0603   0.3272     C
H       0.5811   0.4133   0.9831     H
H       0.5821   0.5406   0.9863     H
N       0.5855   0.3112   0.4292     N
H         0.59   0.9667   0.8469     H
H       0.5914    0.885   0.1152     H
H        0.599    0.113    0.984     H
O       0.6013   0.2793   0.6625     O
C       0.6028   0.1298   0.9329     C
C       0.6045   0.4398   0.9448     C
H       0.6048   0.8962   0.3974     H
C       0.6059   0.0271   0.6339     C
O        0.606   0.2603    0.779     O
C       0.6062   0.5157   0.9473     C
C       0.6075   0.9472   0.3938     C
H       0.6079   0.4161   0.3367     H
C       0.6113   0.4098   0.1573     C
H       0.6114   0.9173   0.6354     H
C        0.612   0.0974    0.384     C
H       0.6153   0.1484    0.382     H
C       0.6153     0.54   0.1541     C
H       0.6171   0.1345   0.6407     H
C       0.6191   0.4341   0.3859     C
C       0.6309   0.0659   0.8859     C
H       0.6329   0.3655   0.1407     H
H       0.6347   0.3516    0.882     H
C       0.6347     0.96   0.6541     C
C        0.638   0.4026    0.884     C
H       0.6386   0.5827   0.1354     H
C       0.6387   0.0902   0.6573     C
H       0.6421   0.0839   0.8367     H
C       0.6425   0.5528   0.8938     C
C       0.6438   0.9843   0.4473     C
O        0.644   0.2397    0.279     O
C       0.6441   0.4729   0.1339     C
H       0.6452   0.6038   0.8974     H
C       0.6455   0.0602   0.4448     C
C       0.6472   0.3702   0.4329     C
O       0.6487   0.2207   0.1625     O
H        0.651    0.387    0.484     H
H       0.6586    0.615   0.6152     H
H         0.66   0.5333   0.3469     H
N       0.6645   0.1888   0.9292     N
H       0.6679   0.9594   0.4863     H
H       0.6689   0.0867   0.4831     H
C       0.6758   0.4397   0.8272     C
C       0.6767    0.519   0.8326     C
C       0.6797   0.4962   0.3808     C
H       0.6814    0.047   0.9059     H
H       0.6819   0.2079   0.0316     H
N       0.6852   0.2342   0.2224     N
H       0.6865   0.5189   0.4287     H
H       0.6887   0.4708   0.1025     H
H       0.6976   0.5456   0.5774     H
C       0.6978   0.9561   0.7017     C
C          0.7   0.2203   0.9847     C
H       0.7034   0.6463   0.4931     H
C       0.7048   0.0915   0.7059     C
C       0.7089   0.5944   0.5963     C
O       0.7094   0.4061   0.7711     O
C       0.7127   0.5624   0.7764     C
H        0.715   0.6127    0.785     H
H       0.7163   0.9104   0.7174     H
H       0.7223   0.3205   0.3611     H
C       0.7279   0.3424   0.4101     C
O       0.7353  0.15094   0.7321     O
C       0.7359   0.0206    0.728     C
O       0.7413   0.7757   0.7374     O
N       0.7426   0.5398   0.7144     N
C       0.7429   0.6447   0.5327     C
H       0.7496   0.6944   0.5513     H
La        0.75   0.2848   0.7152    La
Cl        0.75  0.39662  0.60338    Cl
H       0.7504   0.4487   0.3056     H
C       0.7571   0.4673   0.3553     C
N       0.7574   0.2856   0.4602     N
O       0.7587   0.2626   0.2243     O
C       0.7641    0.272   0.9794     C
O       0.7647   0.2679  0.84906     O
C       0.7721   0.5899   0.6576     C
H       0.7777   0.6389   0.6795     H
H       0.7837   0.2826   0.0896     H
H        0.785    0.215   0.3873     H
C       0.7873   0.2236   0.4376     C
O       0.7906   0.2289   0.5939     O
C       0.7911   0.4037   0.4056     C
C       0.7952   0.2941   0.9085     C
H       0.7966   0.5069   0.3537     H
C          0.8   0.0153   0.7797     C
C       0.8022   0.2983   0.0439     C
H       0.8024   0.4226   0.4544     H
H       0.8113   0.8975   0.5292     H
H       0.8135   0.5713   0.4811     H
N       0.8148   0.7776   0.7658     N
H       0.8181   0.9684   0.7921     H
H       0.8186   0.0941    0.953     H
C       0.8203   0.6192   0.5038     C
C       0.8233   0.1674    0.481     C
C       0.8242   0.1728   0.5603     C
H       0.8311   0.5169   0.9133     H
H       0.8321   0.5137   0.0406     H
N       0.8355   0.0708   0.8112     N
H         0.84   0.6531   0.4667     H
H       0.8414   0.3848    0.385     H
H        0.849    0.516    0.613     H
O       0.8513   0.8375   0.7793     O
C       0.8528   0.5671   0.6298     C
C       0.8545   0.5552   0.9398     C
H       0.8548   0.1026   0.3962     H
C       0.8559   0.8661   0.5271     C
O        0.856    0.721   0.7603     O
C       0.8562   0.5527   0.0157     C
C       0.8575   0.1062   0.4472     C
H       0.8579   0.1633   0.9161     H
C       0.8613   0.3427   0.9098     C
H       0.8614   0.8646   0.4173     H
C        0.862    0.116   0.5974     C
H       0.8653    0.118   0.6484     H
C       0.8653   0.3459     0.04     C
H       0.8671   0.8593   0.6345     H
C       0.8691   0.1141   0.9341     C
C       0.8809   0.6141   0.5659     C
H       0.8829   0.3593   0.8655     H
H       0.8847    0.618   0.8516     H
C       0.8847   0.8459     0.46     C
C        0.888    0.616   0.9026     C
H       0.8886   0.3646   0.0827     H
C       0.8887   0.8427   0.5902     C
H       0.8921   0.6633   0.5839     H
C       0.8925   0.6062   0.0528     C
C       0.8938   0.0527   0.4843     C
O        0.894    0.221   0.7397     O
C       0.8941   0.3661   0.9729     C
H       0.8952   0.6026   0.1038     H
C       0.8955   0.0552   0.5602     C
C       0.8972   0.0671   0.8702     C
O       0.8987   0.3375   0.7207     O
H        0.901    0.016    0.887     H
H       0.9086   0.8848    0.115     H
H         0.91   0.1531   0.0333     H
N       0.9145   0.5708   0.6888     N
H       0.9179   0.0137   0.4594     H
H       0.9189   0.0169   0.5867     H
C       0.9258   0.6728   0.9397     C
C       0.9267   0.6674    0.019     C
C       0.9297   0.1192   0.9962     C
H       0.9314   0.5941    0.547     H
H       0.9319   0.4684   0.7079     H
N       0.9352   0.2776   0.7342     N
H       0.9365   0.0713   0.0189     H
H       0.9387   0.3975   0.9708     H
H       0.9476   0.9226   0.0456     H
C       0.9478   0.7983   0.4561     C
C         0.95   0.5153   0.7203     C
H       0.9534   0.0069   0.1463     H
C       0.9548   0.7941   0.5915     C
C       0.9589   0.9037   0.0944     C
O       0.9594   0.7289   0.9061     O
C       0.9627   0.7236   0.0624     C
H        0.965    0.715   0.1127     H
H       0.9663   0.7826   0.4104     H
H       0.9723   0.1389   0.8205     H
C       0.9779   0.0899   0.8424     C
O       0.9853   0.7679  0.65094     O
C       0.9859    0.772   0.5206     C
O       0.9913   0.7626   0.2757     O
N       0.9926   0.7856   0.0398     N
C       0.9929   0.9673   0.1447     C
H       0.9996   0.9487   0.1944     H
