data_I
_chemical_name_common  '/home/zhangsd/repos/MofS-CGCNN/ML/data/TSD/clean_cifs/FUDHET_clean'
_cell_length_a 21.81800
_cell_length_b 14.70400
_cell_length_c 26.28200
_cell_angle_alpha 90.00000
_cell_angle_beta  126.84000
_cell_angle_gamma 90.00000
_space_group_name_H-M_alt      'P 1'


loop_
_space_group_symop_operation_xyz
  'x, y, z' 

loop_
_atom_site_label
_atom_site_fract_x
_atom_site_fract_y
_atom_site_fract_z
_atom_site_type_symbol
O       0.0006   0.2242   0.1402     O
O       0.0006   0.2758   0.6402     O
O       0.0018   0.6684   0.2407     O
O       0.0018   0.8316   0.7407     O
C       0.0045    0.747   0.7325     C
C       0.0045    0.753   0.2325     C
C       0.0085   0.7261     0.41     C
C       0.0085   0.7739     0.91     C
H        0.012   0.2316   0.5022     H
H        0.012   0.2684   0.0022     H
H       0.0319   0.0817   0.8101     H
H       0.0319   0.4183   0.3101     H
C       0.0375   0.2124   0.8344     C
C       0.0375   0.2876   0.3344     C
O       0.0401   0.6951   0.7778     O
O       0.0401   0.8049   0.2778     O
C       0.0493   0.1203   0.8443     C
C       0.0493   0.3797   0.3443     C
H       0.0539   0.1675   0.3781     H
H       0.0539   0.3325   0.8781     H
C       0.0594   0.2424   0.5408     C
C       0.0594   0.2576   0.0408     C
C       0.0624   0.2298   0.3852     C
C       0.0624   0.2702   0.8852     C
C        0.064   0.2348   0.0941     C
C        0.064   0.2652   0.5941     C
O       0.0709   0.7268   0.4653     O
O       0.0709   0.7732   0.9653     O
Co     0.07371  0.68903  0.34084    Co
Co     0.07371  0.81097  0.84084    Co
O       0.0821   0.5583   0.3652     O
O       0.0821   0.9417   0.8652     O
C       0.0872   0.0842   0.9052     C
C       0.0872   0.4158   0.4052     C
C       0.1001   0.2361   0.9465     C
C       0.1001   0.2639   0.4465     C
C       0.1028   0.5177   0.4138     C
C       0.1028   0.9823   0.9138     C
C       0.1122   0.1425   0.9575     C
C       0.1122   0.3575   0.4575     C
O       0.1242   0.2029   0.4949     O
O       0.1242   0.2971   0.9949     O
C       0.1263   0.2357   0.5455     C
C       0.1263   0.2643   0.0455     C
C       0.1343   0.2117   0.1501     C
C       0.1343   0.2883   0.6501     C
O       0.1357   0.5476   0.4686     O
O       0.1357   0.9524   0.9686     O
H       0.1361   0.1189   0.9981     H
H       0.1361   0.3811   0.4981     H
H       0.1368   0.1933   0.1852     H
H       0.1368   0.3067   0.6852     H
O       0.1772   0.6886    0.351     O
O       0.1772   0.8114    0.851     O
Co     0.17963  0.67455  0.50822    Co
Co     0.17963  0.82545  0.00822    Co
O        0.185   0.7261   0.4354     O
O        0.185   0.7739   0.9354     O
C        0.198   0.2424   0.1025     C
C        0.198   0.2576   0.6025     C
C       0.1992   0.2157   0.1545     C
C       0.1992   0.2843   0.6545     C
C       0.2161   0.7115   0.4079     C
C       0.2161   0.7885   0.9079     C
H       0.2427   0.2454   0.1056     H
H       0.2427   0.2546   0.6056     H
C       0.2754   0.1889   0.2153     C
C       0.2754   0.3111   0.7153     C
O       0.2758   0.1634   0.2603     O
O       0.2758   0.3366   0.7603     O
C       0.3022   0.7207   0.4452     C
C       0.3022   0.7793   0.9452     C
H       0.3028   0.6713   0.3733     H
H       0.3028   0.8287   0.8733     H
H       0.3261   0.7252   0.0251     H
H       0.3261   0.7748   0.5251     H
O        0.333   0.1985   0.2156     O
O        0.333   0.3015   0.7156     O
C       0.3337   0.6946   0.4144     C
C       0.3337   0.8054   0.9144     C
C       0.3477   0.7442   0.0053     C
C       0.3477   0.7558   0.5053     C
Co     0.35252  0.14316   0.3578    Co
Co     0.35252  0.35684   0.8578    Co
O        0.387   0.0123   0.3553     O
O        0.387   0.4877   0.8553     O
H       0.4083   0.6505   0.8942     H
H       0.4083   0.8495   0.3942     H
C       0.4114   0.7039   0.4457     C
C       0.4114   0.7961   0.9457     C
C       0.4126   0.5171    0.826     C
C       0.4126   0.9829    0.326     C
O       0.4191   0.0267   0.2887     O
O       0.4191   0.4733   0.7887     O
C       0.4264   0.6735   0.8725     C
C       0.4264   0.8265   0.3725     C
C        0.429   0.7367   0.0378     C
C        0.429   0.7633   0.5378     C
C       0.4344   0.6176   0.8347     C
C       0.4344   0.8824   0.3347     C
Co      0.4407  0.15727  0.28265    Co
Co      0.4407  0.34273  0.78265    Co
O       0.4423   0.6728   0.4147     O
O       0.4423   0.8272   0.9147     O
C       0.4461   0.7337   0.3777     C
C       0.4461   0.7663   0.8777     C
O       0.4486   0.6659   0.1274     O
O       0.4486   0.8341   0.6274     O
O       0.4498   0.2013   0.3668     O
O       0.4498   0.2987   0.8668     O
C       0.4598   0.7339   0.5074     C
C       0.4598   0.7661   0.0074     C
C       0.4634   0.6504   0.8035     C
C       0.4634   0.8496   0.3035     C
H       0.4696   0.6113   0.7791     H
H       0.4696   0.8887   0.2791     H
O       0.4731   0.1392   0.2224     O
O       0.4731   0.3608   0.7224     O
C       0.4752   0.7021    0.347     C
C       0.4752   0.7979    0.847     C
C       0.4768   0.6996   0.1011     C
C       0.4768   0.8004   0.6011     C
O       0.4783   0.2253    0.758     O
O       0.4783   0.2747    0.258     O
C       0.4827   0.7392   0.8086     C
C       0.4827   0.7608   0.3086     C
C       0.4871   0.2235   0.2257     C
C       0.4871   0.2765   0.7257     C
H       0.4875   0.2343   0.9714     H
H       0.4875   0.2657   0.4714     H
H       0.4901   0.6416   0.3516     H
H       0.4901   0.8584   0.8516     H
H       0.5099   0.1416   0.1484     H
H       0.5099   0.3584   0.6484     H
H       0.5125   0.7343   0.5286     H
H       0.5125   0.7657   0.0286     H
C       0.5129   0.7235   0.2743     C
C       0.5129   0.7765   0.7743     C
C       0.5173   0.2392   0.6914     C
C       0.5173   0.2608   0.1914     C
O       0.5217   0.7253    0.742     O
O       0.5217   0.7747    0.242     O
C       0.5232   0.1996   0.3989     C
C       0.5232   0.3004   0.8989     C
C       0.5248   0.2021    0.153     C
C       0.5248   0.2979    0.653     C
O       0.5269   0.6392   0.2776     O
O       0.5269   0.8608   0.7776     O
H       0.5304   0.1113   0.7209     H
H       0.5304   0.3887   0.2209     H
C       0.5366   0.1504   0.6965     C
C       0.5366   0.3496   0.1965     C
C       0.5402   0.2339   0.9926     C
C       0.5402   0.2661   0.4926     C
O       0.5502   0.7013   0.1332     O
O       0.5502   0.7987   0.6332     O
O       0.5514   0.1659   0.3726     O
O       0.5514   0.3341   0.8726     O
C       0.5539   0.2337   0.1223     C
C       0.5539   0.2663   0.6223     C
O       0.5577   0.1728   0.0853     O
O       0.5577   0.3272   0.5853     O
Co      0.5593  0.65727  0.21735    Co
Co      0.5593  0.84273  0.71735    Co
C       0.5656   0.1176   0.6653     C
C       0.5656   0.3824   0.1653     C
C        0.571   0.2367   0.4622     C
C        0.571   0.2633   0.9622     C
C       0.5736   0.1735   0.6275     C
C       0.5736   0.3265   0.1275     C
O       0.5809   0.5267   0.2113     O
O       0.5809   0.9733   0.7113     O
C       0.5874   0.0171    0.674     C
C       0.5874   0.4829    0.174     C
C       0.5886   0.2039   0.0543     C
C       0.5886   0.2961   0.5543     C
H       0.5917   0.1505   0.6058     H
H       0.5917   0.3495   0.1058     H
O        0.613   0.5123   0.1447     O
O        0.613   0.9877   0.6447     O
Co     0.64748  0.64316   0.1422    Co
Co     0.64748  0.85684   0.6422    Co
C       0.6523   0.2442   0.4947     C
C       0.6523   0.2558   0.9947     C
C       0.6663   0.1946   0.0856     C
C       0.6663   0.3054   0.5856     C
O        0.667   0.6985   0.2844     O
O        0.667   0.8015   0.7844     O
H       0.6739   0.2252   0.4749     H
H       0.6739   0.2748   0.9749     H
H       0.6972   0.1713   0.1267     H
H       0.6972   0.3287   0.6267     H
C       0.6978   0.2207   0.0548     C
C       0.6978   0.2793   0.5548     C
O       0.7242   0.6634   0.2397     O
O       0.7242   0.8366   0.7397     O
C       0.7246   0.6889   0.2847     C
C       0.7246   0.8111   0.7847     C
H       0.7573   0.7454   0.3944     H
H       0.7573   0.7546   0.8944     H
C       0.7839   0.2115   0.0921     C
C       0.7839   0.2885   0.5921     C
C       0.8008   0.7157   0.3455     C
C       0.8008   0.7843   0.8455     C
C        0.802   0.7424   0.3975     C
C        0.802   0.7576   0.8975     C
O        0.815   0.2261   0.0646     O
O        0.815   0.2739   0.5646     O
Co     0.82037  0.17455  0.99178    Co
Co     0.82037  0.32545  0.49178    Co
O       0.8228   0.1886    0.149     O
O       0.8228   0.3114    0.649     O
H       0.8632   0.6933   0.3148     H
H       0.8632   0.8067   0.8148     H
H       0.8639   0.6189   0.5019     H
H       0.8639   0.8811   0.0019     H
O       0.8643   0.0476   0.0314     O
O       0.8643   0.4524   0.5314     O
C       0.8657   0.7117   0.3499     C
C       0.8657   0.7883   0.8499     C
C       0.8737   0.7357   0.9545     C
C       0.8737   0.7643   0.4545     C
O       0.8758   0.7029   0.0051     O
O       0.8758   0.7971   0.5051     O
C       0.8878   0.6425   0.5425     C
C       0.8878   0.8575   0.0425     C
C       0.8972   0.0177   0.0862     C
C       0.8972   0.4823   0.5862     C
C       0.8999   0.7361   0.5535     C
C       0.8999   0.7639   0.0535     C
C       0.9128   0.5842   0.5948     C
C       0.9128   0.9158   0.0948     C
O       0.9179   0.0583   0.1348     O
O       0.9179   0.4417   0.6348     O
Co     0.92629  0.18903  0.15916    Co
Co     0.92629  0.31097  0.65916    Co
O       0.9291   0.2268   0.0347     O
O       0.9291   0.2732   0.5347     O
C        0.936   0.7348   0.4059     C
C        0.936   0.7652   0.9059     C
C       0.9376   0.7298   0.1148     C
C       0.9376   0.7702   0.6148     C
C       0.9406   0.7424   0.9592     C
C       0.9406   0.7576   0.4592     C
H       0.9461   0.6675   0.1219     H
H       0.9461   0.8325   0.6219     H
C       0.9507   0.6203   0.6557     C
C       0.9507   0.8797   0.1557     C
O       0.9599   0.1951   0.7222     O
O       0.9599   0.3049   0.2222     O
C       0.9625   0.7124   0.6656     C
C       0.9625   0.7876   0.1656     C
H       0.9681   0.5817   0.6899     H
H       0.9681   0.9183   0.1899     H
H        0.988   0.7316   0.9978     H
H        0.988   0.7684   0.4978     H
C       0.9915   0.2261     0.09     C
C       0.9915   0.2739     0.59     C
C       0.9955    0.247   0.7675     C
C       0.9955    0.253   0.2675     C
O       0.9982   0.1684   0.2593     O
O       0.9982   0.3316   0.7593     O
O       0.9994   0.7242   0.3598     O
O       0.9994   0.7758   0.8598     O
