data_I
_chemical_name_common  '/home/zhangsd/repos/MofS-CGCNN/ML/data/TSD/clean_cifs/FULQUZ_clean'
_cell_length_a 11.22700
_cell_length_b 17.43400
_cell_length_c 17.98000
_cell_angle_alpha 90.00000
_cell_angle_beta  90.00000
_cell_angle_gamma 90.00000
_space_group_name_H-M_alt      'P 1'


loop_
_space_group_symop_operation_xyz
  'x, y, z' 

loop_
_atom_site_label
_atom_site_fract_x
_atom_site_fract_y
_atom_site_fract_z
_atom_site_type_symbol
C       0.0012   0.4246   0.2603     C
C       0.0128   0.3505   0.2816     C
C       0.0135   0.0897   0.2635     C
H       0.0137   0.1363   0.2898     H
S       0.0165  0.38792   0.7452     S
C       0.0207   0.3167   0.6795     C
H       0.0298    0.466   0.2886     H
C       0.0337   0.9958   0.6681     C
C       0.0419   0.7467   0.2019     C
C       0.0445    0.921   0.6944     C
S       0.0463  0.94885  0.22778     S
H       0.0499   0.7914    0.173     H
S       0.0528  0.71069  0.71972     S
O        0.053   0.2817   0.5562     O
C       0.0574   0.5664   0.6923     C
C       0.0607    0.324   0.3545     C
O       0.0624   0.0944   0.5815     O
C       0.0693   0.0243    0.288     C
H       0.0701    0.519   0.6686     H
C       0.0707   0.6657   0.3022     C
O       0.0752   0.3746   0.4037     O
C       0.0754   0.3313   0.6052     C
C       0.0814   0.0253   0.5947     C
O       0.0823   0.2533   0.3643     O
H       0.0856    0.882   0.6691     H
C       0.0932   0.7375   0.2735     C
O       0.0934   0.5652   0.3885     O
C       0.0937   0.6357   0.6648     C
C       0.1145   0.6348   0.3739     C
O       0.1306   0.3926    0.597     O
O       0.1344   0.9775   0.5545     O
H       0.1372   0.7757   0.2982     H
C       0.1379   0.0131   0.3568     C
O       0.1423    0.064   0.4053     O
La      0.1426   0.1842  0.48034    La
H        0.153    0.821    0.461     H
C       0.1648   0.6466    0.597     C
O       0.1726   0.6806   0.4142     O
La     0.18149  0.46719   0.4799    La
O       0.1821   0.5913   0.5537     O
O       0.1896   0.9486   0.3655     O
O       0.2108   0.8305   0.4853     O
O       0.2116   0.7121   0.5859     O
O       0.2884   0.2121   0.5859     O
O       0.2892   0.3305   0.4853     O
O       0.3104   0.4486   0.3655     O
O       0.3179   0.0913   0.5537     O
La     0.31851  0.96719   0.4799    La
O       0.3274   0.1806   0.4142     O
C       0.3352   0.1466    0.597     C
H        0.347    0.321    0.461     H
La      0.3574   0.6842  0.48034    La
O       0.3577    0.564   0.4053     O
C       0.3621   0.5131   0.3568     C
H       0.3628   0.2757   0.2982     H
O       0.3656   0.4775   0.5545     O
O       0.3694   0.8926    0.597     O
C       0.3855   0.1348   0.3739     C
C       0.4063   0.1357   0.6648     C
O       0.4066   0.0652   0.3885     O
C       0.4068   0.2375   0.2735     C
H       0.4144    0.382   0.6691     H
O       0.4177   0.7533   0.3643     O
C       0.4186   0.5253   0.5947     C
C       0.4246   0.8313   0.6052     C
O       0.4248   0.8746   0.4037     O
C       0.4293   0.1657   0.3022     C
H       0.4299    0.019   0.6686     H
C       0.4307   0.5243    0.288     C
O       0.4376   0.5944   0.5815     O
C       0.4393    0.824   0.3545     C
C       0.4426   0.0664   0.6923     C
O        0.447   0.7817   0.5562     O
S       0.4472  0.21069  0.71972     S
H       0.4501   0.2914    0.173     H
S       0.4537  0.44885  0.22778     S
C       0.4555    0.421   0.6944     C
C       0.4581   0.2467   0.2019     C
C       0.4663   0.4958   0.6681     C
H       0.4702    0.966   0.2886     H
C       0.4793   0.8167   0.6795     C
S       0.4835  0.88792   0.7452     S
H       0.4863   0.6363   0.2898     H
C       0.4865   0.5897   0.2635     C
C       0.4872   0.8505   0.2816     C
C       0.4988   0.9246   0.2603     C
C       0.5012   0.0754   0.7603     C
C       0.5128   0.1495   0.7816     C
C       0.5135   0.4103   0.7635     C
H       0.5137   0.3637   0.7898     H
S       0.5165  0.11208   0.2452     S
C       0.5207   0.1833   0.1795     C
H       0.5298    0.034   0.7886     H
C       0.5337   0.5042   0.1681     C
C       0.5419   0.7533   0.7019     C
C       0.5445    0.579   0.1944     C
S       0.5463  0.55115  0.72778     S
H       0.5499   0.7086    0.673     H
S       0.5528  0.78931  0.21972     S
O        0.553   0.2183   0.0562     O
C       0.5574   0.9336   0.1923     C
C       0.5607    0.176   0.8545     C
O       0.5624   0.4056   0.0815     O
C       0.5693   0.4757    0.788     C
H       0.5701    0.981   0.1686     H
C       0.5707   0.8343   0.8022     C
O       0.5752   0.1254   0.9037     O
C       0.5754   0.1687   0.1052     C
C       0.5814   0.4747   0.0947     C
O       0.5823   0.2467   0.8643     O
H       0.5856    0.618   0.1691     H
C       0.5932   0.7625   0.7735     C
O       0.5934   0.9348   0.8885     O
C       0.5937   0.8643   0.1648     C
C       0.6145   0.8652   0.8739     C
O       0.6306   0.1074    0.097     O
O       0.6344   0.5225   0.0545     O
H       0.6372   0.7243   0.7982     H
C       0.6379   0.4869   0.8568     C
O       0.6423    0.436   0.9053     O
La      0.6426   0.3158  0.98034    La
H        0.653    0.679    0.961     H
C       0.6648   0.8534    0.097     C
O       0.6726   0.8194   0.9142     O
La     0.68149  0.03281   0.9799    La
O       0.6821   0.9087   0.0537     O
O       0.6896   0.5514   0.8655     O
O       0.7108   0.6695   0.9853     O
O       0.7116   0.7879   0.0859     O
O       0.7884   0.2879   0.0859     O
O       0.7892   0.1695   0.9853     O
O       0.8104   0.0514   0.8655     O
O       0.8179   0.4087   0.0537     O
La     0.81851  0.53281   0.9799    La
O       0.8274   0.3194   0.9142     O
C       0.8352   0.3534    0.097     C
H        0.847    0.179    0.961     H
La      0.8574   0.8158  0.98034    La
O       0.8577    0.936   0.9053     O
C       0.8621   0.9869   0.8568     C
H       0.8628   0.2243   0.7982     H
O       0.8656   0.0225   0.0545     O
O       0.8694   0.6074    0.097     O
C       0.8855   0.3652   0.8739     C
C       0.9063   0.3643   0.1648     C
O       0.9066   0.4348   0.8885     O
C       0.9068   0.2625   0.7735     C
H       0.9144    0.118   0.1691     H
O       0.9177   0.7467   0.8643     O
C       0.9186   0.9747   0.0947     C
C       0.9246   0.6687   0.1052     C
O       0.9248   0.6254   0.9037     O
C       0.9293   0.3343   0.8022     C
H       0.9299    0.481   0.1686     H
C       0.9307   0.9757    0.788     C
O       0.9376   0.9056   0.0815     O
C       0.9393    0.676   0.8545     C
C       0.9426   0.4336   0.1923     C
O        0.947   0.7183   0.0562     O
S       0.9472  0.28931  0.21972     S
H       0.9501   0.2086    0.673     H
S       0.9537  0.05115  0.72778     S
C       0.9555    0.079   0.1944     C
C       0.9581   0.2533   0.7019     C
C       0.9663   0.0042   0.1681     C
H       0.9702    0.534   0.7886     H
C       0.9793   0.6833   0.1795     C
S       0.9835  0.61208   0.2452     S
H       0.9863   0.8637   0.7898     H
C       0.9865   0.9103   0.7635     C
C       0.9872   0.6495   0.7816     C
C       0.9988   0.5754   0.7603     C
