data_I
_chemical_name_common  '/home/zhangsd/repos/MofS-CGCNN/ML/data/TSD/clean_cifs/FUSMEM_clean'
_cell_length_a 33.45300
_cell_length_b 33.45300
_cell_length_c  8.42750
_cell_angle_alpha 90.00000
_cell_angle_beta  90.00000
_cell_angle_gamma 120.00000
_space_group_name_H-M_alt      'P 1'


loop_
_space_group_symop_operation_xyz
  'x, y, z' 

loop_
_atom_site_label
_atom_site_fract_x
_atom_site_fract_y
_atom_site_fract_z
_atom_site_type_symbol
C       0.0005  0.77305   0.7858     C
C      0.00108  0.60073  0.43637     C
O      0.00158  0.66339  0.12573     O
O      0.00327  0.67152  0.45907     O
O      0.00485  0.33491   0.2076     O
H      0.00743  0.40337  0.04987     H
N      0.00909   0.4697  0.67183     N
Ag     0.01152  0.49191   0.1693    Ag
C      0.01238  0.27083   0.2679     C
C      0.01358  0.57636  0.33417     C
C      0.01465  0.70612   0.7665     C
H        0.021   0.1797   0.2109     H
C       0.0248  0.65202  0.43317     C
H       0.0285   0.7908    0.843     H
C      0.02863  0.20962   0.2464     C
H      0.02883  0.28767  0.72627     H
C      0.03603   0.4236  0.46333     C
C       0.0379  0.42478  0.01577     C
H      0.03923  0.59307  0.26577     H
C      0.03945  0.35814  0.90017     C
C      0.04456  0.49275  0.57313     C
H      0.04567  0.40783  0.39293     H
C      0.05354  0.29543   0.3491     C
C      0.05424  0.29731  0.79667     C
N      0.05476  0.46929  0.04847     N
C      0.05876  0.47096  0.46693     C
H      0.06067  0.52553  0.57613     H
C       0.0625  0.40822  0.93457     C
H       0.0626   0.3259   0.3832     H
C      0.06594  0.73369   0.7697     C
C      0.06702  0.33442  0.89697     C
C      0.06828    0.236   0.3296     C
H      0.07003  0.72927  0.28347     H
H      0.07123  0.24947  0.73067     H
H       0.0736   0.7795   0.5991     H
H       0.0745   0.6955   0.9404     H
C      0.07488  0.67905  0.39877     C
C      0.07887  0.27458  0.80027     C
N      0.08119  0.27857   0.3818     N
H      0.08387  0.48843  0.39733     H
H       0.0878   0.2236   0.3515     H
C      0.09027  0.72091     0.87     C
C      0.09031  0.77056   0.6675     C
C      0.09144  0.72021  0.31757     C
H      0.09563  0.63817  0.50967     H
C      0.09733  0.49895  0.99627     C
C      0.10389  0.34692  0.99917     C
C      0.10588  0.66617  0.45247     C
C      0.10638  0.43922  0.88087     C
H      0.10973  0.53087  0.01817     H
H      0.11283  0.37257  0.06757     H
C      0.11486  0.28878  0.90647     C
C      0.12371  0.48568  0.91307     C
H      0.12413  0.42897  0.82367     H
N      0.12728  0.32425  0.00517     N
H      0.13153  0.27267  0.90947     H
H       0.1358   0.9122   0.3515     H
N      0.13595  0.74786  0.28487     N
N      0.13637  0.79395   0.6615     N
C      0.13763  0.74554   0.8664     C
H      0.14113  0.86847  0.90947     H
Ag     0.14706  0.32181  0.50263    Ag
C      0.15234   0.6953  0.42027     C
H      0.15363  0.50797  0.87757     H
H       0.1551   0.7379    0.936     H
Ag     0.15858  0.81372  0.16404    Ag
H       0.1587    0.979   0.2109     H
C      0.15942  0.78153   0.7602     C
C      0.16561  0.73495  0.33707     C
C      0.16772  0.93172   0.3296     C
C      0.17391  0.88514  0.90647     C
H      0.17463  0.68767  0.45577     H
Ag     0.17475  0.85294  0.50263    Ag
H      0.17823  0.92877  0.73067     H
H       0.1797   0.1587   0.7891     H
C      0.18099  0.97137   0.2464     C
Ag     0.18628  0.34486  0.16404    Ag
H       0.1922   0.7982   0.7572     H
C       0.1957  0.92113  0.80027     C
N      0.19696  0.87272  0.00517     N
N      0.19738  0.91881   0.3818     N
H      0.19753  0.75447  0.31517     H
H       0.2018    0.394   0.7572     H
N      0.20605  0.34242   0.6615     N
H       0.2092   0.2377    0.843     H
C      0.20962  0.18099   0.7536     C
C      0.21847  0.37789   0.7602     C
H       0.2205   0.2941   0.5991     H
H       0.2236   0.1358   0.6485     H
C      0.22695  0.22745   0.7858     C
C      0.22745   0.0005   0.2142     C
C      0.22944  0.31975   0.6675     C
C        0.236  0.16772   0.6704     C
H       0.2377   0.0285    0.157     H
C      0.24189  0.94646   0.3491     C
C      0.24302  0.89611  0.99917     C
C      0.24306  0.94576  0.79667     C
H      0.24553  0.44307  0.31517     H
H      0.24947  0.17823  0.26933     H
N      0.25214   0.3881  0.28487     N
C      0.25446  0.39209   0.8664     C
C      0.25845  0.98762   0.2679     C
H      0.25883  0.97117  0.72627     H
H      0.25973  0.88717  0.06757     H
H       0.2621   0.4172    0.936     H
H       0.2633   0.9374   0.3832     H
C      0.26505  0.43067  0.33707     C
C      0.26631  0.33225   0.7697     C
C      0.26739  0.93298  0.89697     C
H      0.27073  0.34077  0.28347     H
C      0.27083  0.25845   0.7321     C
H      0.27267  0.14113  0.09053     H
C      0.27458   0.1957  0.19973     C
N      0.27857  0.19738   0.6182     N
C      0.27909  0.36936     0.87     C
C      0.27979  0.37124  0.31757     C
H      0.28767  0.25883  0.27373     H
C      0.28878  0.17391  0.09353     C
C      0.29388  0.30853   0.7665     C
H       0.2941   0.0736   0.4009     H
C      0.29543  0.24189   0.6509     C
C      0.29731  0.24306  0.20333     C
H       0.3045    0.379   0.9404     H
C       0.3047  0.45705  0.42027     C
H      0.30483  0.87587  0.82367     H
C      0.30853  0.01465   0.2335     C
H      0.31233  0.48697  0.45577     H
C      0.31868  0.96055  0.90017     C
C      0.31975  0.09031   0.3325     C
C      0.32095  0.39584  0.39877     C
Ag     0.32181  0.17475  0.49737    Ag
N      0.32425  0.19696  0.99483     N
H       0.3259   0.2633   0.6168     H
O      0.32848  0.33176  0.45907     O
O      0.33006  0.99515   0.2076     O
O      0.33176  0.00327  0.54093     O
C      0.33225  0.06594   0.2303     C
C      0.33283  0.89362  0.88087     C
C      0.33383  0.43972  0.45247     C
C      0.33442  0.26739  0.10303     C
O      0.33491  0.33006   0.7924     O
O      0.33661  0.33818  0.12573     O
O      0.33818  0.00158  0.87427     O
H      0.34077  0.07003  0.71653     H
N      0.34242  0.13637   0.3385     N
Ag     0.34486  0.15858  0.83596    Ag
C      0.34571   0.9375  0.93457     C
C      0.34692  0.24302  0.00083     C
C      0.34798  0.37279  0.43317     C
H      0.35433  0.84637  0.87757     H
C      0.35814  0.31868  0.09983     C
H      0.36183  0.45747  0.50967     H
C      0.36196  0.87629  0.91307     C
H      0.36217  0.95433  0.39293     H
C      0.36936  0.09027     0.13     C
C      0.37124  0.09144  0.68243     C
H      0.37257  0.25973  0.93243     H
C      0.37279   0.0248  0.56683     C
C      0.37789  0.15942   0.2398     C
H        0.379   0.0745   0.0596     H
C      0.38687   0.9621  0.01577     C
C      0.38758  0.96397  0.46333     C
N       0.3881  0.13595  0.71513     N
C      0.39209  0.13763   0.1336     C
H        0.394   0.1922   0.2428     H
C      0.39584  0.07488  0.60123     C
H      0.39593  0.99257  0.04987     H
C      0.39927  0.40036  0.43637     C
C      0.40036  0.00108  0.56363     C
C      0.40161  0.90267  0.99627     C
H      0.40337  0.39593  0.95013     H
H      0.40457  0.91613  0.39733     H
H      0.40693  0.44617  0.26577     H
H      0.40783  0.36217  0.60707     H
C      0.40822  0.34571  0.06543     C
C      0.41221  0.94124  0.46693     C
N      0.41452  0.94524  0.04847     N
H       0.4172   0.1551    0.064     H
H      0.42113  0.89027  0.01817     H
C       0.4236  0.38758  0.53667     C
C      0.42364  0.43723  0.33417     C
C      0.42478  0.38687  0.98423     C
H      0.42897  0.30483  0.17633     H
C      0.43067  0.16561  0.66293     C
C      0.43723  0.01358  0.66583     C
C      0.43922  0.33283  0.11913     C
C      0.43972  0.10588  0.54753     C
H      0.44307  0.19753  0.68483     H
H      0.44617  0.03923  0.73423     H
C       0.4482  0.95544  0.57313     C
C      0.45705  0.15234  0.57973     C
H      0.45747  0.09563  0.49033     H
N      0.46062  0.99091  0.67183     N
H      0.46487  0.93933  0.57613     H
H      0.46913  0.57887  0.01817     H
N      0.46929  0.41452  0.95153     N
N       0.4697  0.46062  0.32817     N
C      0.47096  0.41221  0.53307     C
H      0.47447  0.53513  0.57613     H
Ag     0.48039  0.98848   0.1693    Ag
C      0.48568  0.36196  0.08693     C
H      0.48697  0.17463  0.54423     H
H      0.48843  0.40457  0.60267     H
Ag     0.49191  0.48039   0.8307    Ag
H      0.49203  0.64567  0.87757     H
C      0.49275   0.4482  0.42687     C
C      0.49895  0.40161  0.00373     C
C      0.50105  0.59839  0.99627     C
C      0.50725   0.5518  0.57313     C
H      0.50797  0.35433  0.12243     H
Ag     0.50809  0.51961   0.1693    Ag
H      0.51157  0.59543  0.39733     H
H      0.51303  0.82537  0.45577     H
C      0.51432  0.63804  0.91307     C
Ag     0.51961  0.01152   0.8307    Ag
H      0.52553  0.46487  0.42387     H
C      0.52904  0.58779  0.46693     C
N       0.5303  0.53938  0.67183     N
N      0.53071  0.58548  0.04847     N
H      0.53087  0.42113  0.98183     H
H      0.53513  0.06067  0.42387     H
N      0.53938  0.00909  0.32817     N
H      0.54253  0.90437  0.50967     H
C      0.54295  0.84766  0.42027     C
C       0.5518  0.04456  0.42687     C
H      0.55383  0.96077  0.26577     H
H      0.55693  0.80247  0.31517     H
C      0.56028  0.89412  0.45247     C
C      0.56078  0.66717  0.88087     C
C      0.56277  0.98642  0.33417     C
C      0.56933  0.83439  0.33707     C
H      0.57103  0.69517  0.82367     H
C      0.57522  0.61313  0.01577     C
C      0.57636  0.56277  0.66583     C
C       0.5764  0.61242  0.46333     C
H      0.57887  0.10973  0.98183     H
H       0.5828   0.8449    0.936     H
N      0.58548  0.05476  0.95153     N
C      0.58779  0.05876  0.53307     C
C      0.59178  0.65429  0.93457     C
H      0.59217  0.63783  0.39293     H
H      0.59307  0.55383  0.73423     H
H      0.59543  0.08387  0.60267     H
H      0.59663  0.60407  0.04987     H
C      0.59839  0.09733  0.00373     C
C      0.59964  0.99892  0.43637     C
C      0.60073  0.59964  0.56363     C
H      0.60407  0.00743  0.95013     H
C      0.60416  0.92512  0.39877     C
H        0.606   0.8078   0.7572     H
C      0.60791  0.86237   0.8664     C
N       0.6119  0.86405  0.28487     N
C      0.61242  0.03603  0.53667     C
C      0.61313   0.0379  0.98423     C
H        0.621   0.9255   0.9404     H
C      0.62211  0.84058   0.7602     C
C      0.62721   0.9752  0.43317     C
H      0.62743  0.74027  0.06757     H
C      0.62876  0.90856  0.31757     C
C      0.63064  0.90973     0.87     C
H      0.63783  0.04567  0.60707     H
C      0.63804  0.12371  0.08693     C
H      0.63817  0.54253  0.49033     H
C      0.64186  0.68132  0.90017     C
H      0.64567  0.15363  0.12243     H
C      0.65202  0.62721  0.56683     C
C      0.65308  0.75698  0.99917     C
C      0.65429   0.0625  0.06543     C
Ag     0.65514  0.84142  0.16404    Ag
N      0.65758  0.86363   0.6615     N
H      0.65923  0.92997  0.28347     H
O      0.66182  0.99842  0.12573     O
O      0.66339  0.66182  0.87427     O
O      0.66509  0.66994   0.2076     O
C      0.66558  0.73261  0.89697     C
C      0.66617  0.56028  0.54753     C
C      0.66717  0.10638  0.11913     C
C      0.66775  0.93406   0.7697     C
O      0.66824  0.99673  0.45907     O
O      0.66994  0.00485   0.7924     O
O      0.67152  0.66824  0.54093     O
H       0.6741   0.7367   0.3832     H
N      0.67575  0.80304  0.00517     N
Ag     0.67819  0.82525  0.50263    Ag
C      0.67905  0.60416  0.60123     C
C      0.68025  0.90969   0.6675     C
C      0.68132  0.03945  0.09983     C
H      0.68767  0.51303  0.54423     H
C      0.69147  0.98535   0.7665     C
H      0.69517  0.12413  0.17633     H
C       0.6953  0.54295  0.57973     C
H       0.6955    0.621   0.0596     H
C      0.70269  0.75694  0.79667     C
C      0.70457  0.75811   0.3491     C
H       0.7059   0.9264   0.5991     H
C      0.70612  0.69147   0.2335     C
C      0.71122  0.82609  0.90647     C
H      0.71233  0.74117  0.72627     H
C      0.72021  0.62876  0.68243     C
C      0.72091  0.63064     0.13     C
N      0.72143  0.80262   0.3818     N
C      0.72542   0.8043  0.80027     C
H      0.72733  0.85887  0.90947     H
C      0.72917  0.74155   0.2679     C
H      0.72927  0.65923  0.71653     H
C      0.73261  0.06702  0.10303     C
C      0.73369  0.66775   0.2303     C
C      0.73495  0.56933  0.66293     C
H       0.7367   0.0626   0.6168     H
H       0.7379   0.5828    0.064     H
H      0.74027  0.11283  0.93243     H
H      0.74117  0.02883  0.27373     H
C      0.74155  0.01238   0.7321     C
C      0.74554  0.60791   0.1336     C
N      0.74786   0.6119  0.71513     N
H      0.75053  0.82177  0.73067     H
H      0.75447  0.55693  0.68483     H
C      0.75694  0.05424  0.20333     C
C      0.75698  0.10389  0.00083     C
C      0.75811  0.05354   0.6509     C
H       0.7623   0.9715    0.843     H
C        0.764  0.83228   0.3296     C
C      0.77056  0.68025   0.3325     C
C      0.77255   0.9995   0.7858     C
C      0.77305  0.77255   0.2142     C
H       0.7764   0.8642   0.3515     H
H       0.7795   0.7059   0.4009     H
C      0.78153  0.62211   0.2398     C
C      0.79038  0.81901   0.2464     C
H       0.7908   0.7623    0.157     H
N      0.79395  0.65758   0.3385     N
H       0.7982    0.606   0.2428     H
H      0.80247  0.24553  0.68483     H
N      0.80262  0.08119   0.6182     N
N      0.80304  0.12728  0.99483     N
C       0.8043  0.07887  0.19973     C
H       0.8078   0.2018   0.2428     H
Ag     0.81372  0.65514  0.83596    Ag
C      0.81901  0.02863   0.7536     C
H       0.8203   0.8413   0.2109     H
H      0.82177  0.07123  0.26933     H
Ag     0.82525  0.14706  0.49737    Ag
H      0.82537  0.31233  0.54423     H
C      0.82609  0.11486  0.09353     C
C      0.83228  0.06828   0.6704     C
C      0.83439  0.26505  0.66293     C
C      0.84058  0.21847   0.2398     C
H       0.8413    0.021   0.7891     H
Ag     0.84142  0.18628  0.83596    Ag
H       0.8449   0.2621    0.064     H
H      0.84637  0.49203  0.12243     H
C      0.84766   0.3047  0.57973     C
Ag     0.85294  0.67819  0.49737    Ag
H      0.85887  0.13153  0.09053     H
C      0.86237  0.25446   0.1336     C
N      0.86363  0.20605   0.3385     N
N      0.86405  0.25214  0.71513     N
H       0.8642   0.0878   0.6485     H
H      0.86847  0.72733  0.09053     H
N      0.87272  0.67575  0.99483     N
H      0.87587  0.57103  0.17633     H
C      0.87629  0.51432  0.08693     C
C      0.88514  0.71122  0.09353     C
H      0.88717  0.62743  0.93243     H
H      0.89027  0.46913  0.98183     H
C      0.89362  0.56078  0.11913     C
C      0.89412  0.33383  0.54753     C
C      0.89611  0.65308  0.00083     C
C      0.90267  0.50105  0.00373     C
H      0.90437  0.36183  0.49033     H
C      0.90856  0.27979  0.68243     C
C      0.90969  0.22944   0.3325     C
C      0.90973  0.27909     0.13     C
H       0.9122   0.7764   0.6485     H
H      0.91613  0.51157  0.60267     H
N      0.91881  0.72143   0.6182     N
C      0.92113  0.72542  0.19973     C
C      0.92512  0.32095  0.60123     C
H       0.9255   0.3045   0.0596     H
H       0.9264   0.2205   0.4009     H
H      0.92877  0.75053  0.26933     H
H      0.92997  0.27073  0.71653     H
C      0.93172    0.764   0.6704     C
C      0.93298  0.66558  0.10303     C
C      0.93406  0.26631   0.2303     C
H       0.9374   0.6741   0.6168     H
C       0.9375  0.59178  0.06543     C
H      0.93933  0.47447  0.42387     H
C      0.94124  0.52904  0.53307     C
N      0.94524  0.53071  0.95153     N
C      0.94576  0.70269  0.20333     C
C      0.94646  0.70457   0.6509     C
H      0.95433  0.59217  0.60707     H
C      0.95544  0.50725  0.42687     C
C      0.96055  0.64186  0.09983     C
H      0.96077  0.40693  0.73423     H
C       0.9621  0.57522  0.98423     C
C      0.96397   0.5764  0.53667     C
H      0.97117  0.71233  0.27373     H
C      0.97137  0.79038   0.7536     C
H       0.9715   0.2092    0.157     H
C       0.9752  0.34798  0.56683     C
H        0.979   0.8203   0.7891     H
C      0.98535  0.29388   0.2335     C
C      0.98642  0.42364  0.66583     C
C      0.98762  0.72917   0.7321     C
Ag     0.98848  0.50809   0.8307    Ag
N      0.99091   0.5303  0.32817     N
H      0.99257  0.59663  0.95013     H
O      0.99515  0.66509   0.7924     O
O      0.99673  0.32848  0.54093     O
O      0.99842  0.33661  0.87427     O
C      0.99892  0.39927  0.56363     C
C       0.9995  0.22695   0.2142     C
