data_I
_chemical_name_common  '/home/zhangsd/repos/MofS-CGCNN/ML/data/TSD/clean_cifs/FUTKEL_manual'
_cell_length_a 15.29040
_cell_length_b 15.29040
_cell_length_c 17.66760
_cell_angle_alpha 115.64100
_cell_angle_beta  115.64100
_cell_angle_gamma 90.00010
_space_group_name_H-M_alt      'P 1'


loop_
_space_group_symop_operation_xyz
  'x, y, z' 

loop_
_atom_site_label
_atom_site_fract_x
_atom_site_fract_y
_atom_site_fract_z
_atom_site_type_symbol
H      0.01624  0.37055  0.77339     H
H      0.01872  0.88929  0.18045     H
C      0.01945  0.22331  0.87383     C
O      0.03761  0.05044  0.91984     O
H      0.03824  0.65346  0.08751     H
C      0.04656  0.33417  0.81672     C
O      0.04943  0.88504  0.92302     O
H      0.04992   0.4347  0.08946     H
H       0.0536  0.78345  0.04615     H
Zn     0.05586  0.05587  0.11174    Zn
H      0.06421  0.86689  0.31822     H
H      0.06438  0.25101  0.25644     H
C        0.095  0.65996  0.06826     C
C      0.10344  0.12247  0.99958     C
C      0.10412  0.73439  0.04478     C
H      0.11043  0.83816  0.81929     H
C      0.11189  0.21649  0.29574     C
O      0.11487  0.12646  0.07698     O
C       0.1228  0.24076   0.9305     C
C      0.12291   0.8966  0.00033     C
N      0.12387  0.12388  0.24777     N
O      0.13063  0.96254  0.07992     O
H      0.13248  0.74541  0.68137     H
C      0.14975  0.35357  0.87317     C
H      0.15097  0.33144  0.56825     H
H      0.15114  0.34166  0.43261     H
H      0.15277  0.53838  0.08726     H
C      0.15453   0.7838  0.82157     C
C      0.15949   0.5952  0.06814     C
C      0.16096   0.2677   0.3958     C
H      0.16211  0.29112   0.1807     H
C      0.16896  0.73254   0.7423     C
C      0.17384  0.20103  0.00235     C
C       0.1787  0.74493   0.0212     C
C      0.18383  0.07924  0.29575     C
C      0.18934   0.3073  0.93017     C
H      0.19205  0.00542  0.25645     H
H      0.19709  0.40624  0.87346     H
C      0.19868  0.82622  0.99761     C
C      0.20095  0.76746  0.90136     C
C      0.21631  0.33301  0.17837     C
H      0.21678  0.00747  0.95396     H
C       0.2236   0.2236  0.44719     C
C      0.22828   0.3295  0.60506     C
C      0.23264  0.29958  0.09858     C
C      0.23342  0.66835  0.74254     C
C      0.23396  0.60416  0.04467     C
C      0.23483  0.12811   0.3958     C
H       0.2419  0.41827  0.74469     H
C      0.24482  0.67886  0.02133     C
H      0.24658  0.63178  0.68179     H
H       0.2543  0.45137  0.31835     H
C       0.2551  0.15748  0.97869     C
C      0.26568  0.05933  0.95513     C
C      0.26729  0.42686  0.25749     C
C      0.26786  0.70079   0.9016     C
C      0.27684  0.27685  0.55367     C
C      0.27955  0.37856  0.70511     C
H      0.28148  0.09097  0.43263     H
H       0.2828  0.55341  0.04583     H
C      0.28458  0.65429  0.82205     C
C      0.29922  0.36625  0.09826     C
C      0.30104  0.32828  0.00175     C
H      0.30207  0.03271  0.12604     H
C      0.31027  0.87716  0.06951     C
C      0.32106  0.22344  0.97844     C
C      0.32639  0.69888  0.99807     C
C      0.33138   0.4911  0.25716     C
H      0.33916  0.61042  0.82014     H
C      0.33989  0.02666  0.93132     C
C      0.34558  0.46262   0.1777     C
H      0.34632  0.95061  0.91194     H
C      0.34956  0.98048  0.12651     C
H      0.36776  0.56509  0.31778     H
O      0.36855  0.38157  0.91859     O
N      0.37648  0.37649  0.75292     N
C      0.37651  0.39559  0.99841     C
C       0.3768   0.2756  0.60506     C
C      0.37706  0.81055   0.0697     C
O      0.38584   0.5499  0.92423     O
H       0.3894   0.5191  0.17956     H
C      0.39557  0.18918   0.9548     C
C      0.39704   0.6234  0.00141     C
C      0.40446   0.0912  0.93118     C
H       0.4173  0.23685  0.56825     H
C      0.42559   0.3266  0.70511     C
H      0.43546  0.05026  0.68158     H
Zn     0.44423  0.44425  0.88846    Zn
H      0.44618  0.23681  0.95345     H
O      0.45006   0.4615   0.0756     O
H       0.4507  0.84648  0.91179     H
C       0.4527  0.01782  0.18328     C
H      0.46104  0.06528  0.91171     H
O       0.4628  0.63132  0.08123     O
C      0.48035  0.85005  0.12667     C
H      0.48111  0.20983  0.82001     H
H      0.48281  0.09756  0.22656     H
H      0.50282  0.32648  0.74469     H
H      0.50735  0.71678  0.95365     H
C      0.50932   0.0744  0.74235     C
C      0.51749   0.9532  0.18333     C
C      0.52674  0.84001  0.93122     C
H      0.53267  0.80266   0.1262     H
C      0.53763  0.16792  0.82193     C
O      0.53842  0.37438  0.92425     O
H      0.54913  0.93621  0.68114     H
O      0.55005  0.53707  0.91863     O
Zn     0.55569  0.55569   0.1114    Zn
C      0.55927  0.76569   0.9549     C
H      0.56558  0.96124   0.9118     H
C      0.57354  0.00997  0.74211     C
H      0.58439  0.49624  0.25516     H
C       0.5914  0.90461  0.93124     C
H      0.59331  0.32333  0.12597     H
H      0.59721  0.98345  0.22664     H
C      0.60438  0.37803  0.00141     C
O      0.61843  0.44991  0.08124     O
C      0.62192  0.60285  0.99846     C
C      0.62323  0.57377  0.29477     C
N      0.62346  0.62347  0.24695     N
O      0.62556  0.61411  0.07563     O
H        0.629  0.24276  0.22622     H
C      0.63386  0.20093  0.90152     C
C      0.64608  0.27638  0.12642     C
C       0.6574  0.75502  0.97847     C
C      0.66548  0.22977  0.18298     C
C      0.66719  0.03793  0.82143     C
H      0.66974  0.58181  0.43124     H
H      0.67073  0.75891  0.25515     H
C       0.6715  0.72099  0.29476     C
C       0.6717  0.29921  0.99806     C
C      0.67251  0.62245  0.39482     C
H      0.67655  0.46723  0.87375     H
C      0.68941  0.89572    0.955     C
C      0.69248  0.25899  0.06953     C
C      0.70053  0.13402  0.90128     C
C      0.70073  0.67351   0.0018     C
H      0.70897  0.98127  0.81914     H
C      0.72228  0.77237  0.39482     C
C      0.72323  0.72324  0.44648     C
C      0.72348  0.51958  0.87332     C
C      0.72358  0.82119  0.97865     C
C      0.73021   0.1651  0.18291     C
H      0.73711  0.94634  0.95373     H
H       0.7397  0.91853  0.56855     H
C      0.74084  0.62287  0.93022     C
H      0.74332  0.12856  0.22613     H
H      0.75717  0.40276  0.77354     H
C      0.75908  0.19219  0.06934     C
H      0.76146  0.84943  0.43122     H
H       0.7633   0.4927  0.04658     H
C      0.77014  0.48248  0.81679     C
C      0.77663  0.34258  0.02158     C
C      0.77665  0.77665   0.5533     C
C      0.77669  0.14577  0.12625     C
C      0.77832  0.87768  0.60496     C
H      0.79013  0.66081  0.17978     H
C      0.79896  0.17141   0.9976     C
C      0.79907  0.73208   0.0983     C
C      0.80764  0.68969  0.93045     C
C      0.81098  0.44078  0.04541     C
H      0.82375   0.0931   0.1258     H
C      0.82666  0.72729  0.60496     C
C       0.8285  0.80129  0.00229     C
H      0.82886  0.65004  0.56855     H
C       0.8291  0.92636  0.70501     C
H      0.83041  0.00407  0.74461     H
C      0.83214  0.71529  0.17782     C
C      0.83487   0.5473  0.81695     C
C      0.84262  0.27639  0.02146     C
C      0.85419  0.65044  0.87366     C
C      0.86598  0.79899  0.09854     C
H      0.87148  0.51724   0.7738     H
O      0.87364  0.03799  0.92303     O
C      0.87596  0.77868  0.70501     C
N      0.87645  0.87643  0.75284     N
C      0.87744  0.10374  0.00032     C
O      0.88224  0.86937   0.9198     O
C      0.89613  0.87708  0.99953     C
H      0.90225   0.2566  0.77397     H
H      0.90702  0.69798  0.87432     H
C      0.90913  0.47341  0.06951     C
H      0.91425  0.74057  0.74461     H
C      0.92584  0.76622  0.25722     C
H      0.93515  0.54953  0.08922     H
C      0.94094  0.31066  0.04552     C
Zn     0.94423  0.94421  0.88841    Zn
O      0.94928  0.11738  0.07993     O
H      0.95008  0.75294  0.31789     H
O      0.96208  0.95051  0.07695     O
C      0.96216  0.84524  0.17824     C
H      0.96731  0.17654  0.87463     H
C      0.97372  0.40877  0.06963     C
C      0.98201  0.26964  0.81704     C
C      0.99031   0.8306  0.25741     C
H      0.99283  0.26297   0.0469     H
