data_I
_chemical_name_common  '/home/zhangsd/repos/MofS-CGCNN/ML/data/TSD/clean_cifs/GADDOH_clean'
_cell_length_a 10.10710
_cell_length_b 13.08940
_cell_length_c 13.66960
_cell_angle_alpha 97.07400
_cell_angle_beta  109.84300
_cell_angle_gamma 95.59600
_space_group_name_H-M_alt      'P 1'


loop_
_space_group_symop_operation_xyz
  'x, y, z' 

loop_
_atom_site_label
_atom_site_fract_x
_atom_site_fract_y
_atom_site_fract_z
_atom_site_type_symbol
C       0.0004   0.7213   0.0629     C
C        0.001   0.3931   0.9724     C
H       0.0079   0.1074   0.8169     H
O       0.0153   0.2543   0.8515     O
O        0.016   0.7832   0.0026     O
H       0.0226   0.0247   0.7443     H
O       0.0259   0.0487   0.8036     O
La     0.03628  0.11963  0.13967    La
O       0.1218    0.026   0.4121     O
C       0.1265   0.4598     0.02     C
C       0.1287   0.5664   0.0483     C
O       0.1469    0.009   0.0194     O
O       0.2182   0.1078   0.3129     O
C       0.2216   0.0575   0.3862     C
Cl      0.2615  0.83618  0.33312    Cl
C       0.2664   0.0684   0.0576     C
Cl      0.2837  0.40952  0.04438    Cl
Cl     0.28651  0.64882  0.10757    Cl
O       0.2878   0.1508   0.1205     O
Cl     0.35233  0.17975  0.90208    Cl
C       0.3662   0.0286   0.4463     C
C        0.387   0.0334   0.0271     C
C       0.3935   0.9272   0.4242     C
Cl     0.40864  0.90574  0.16881    Cl
C       0.4315   0.0786   0.9543     C
Cl     0.43827  0.22433  0.55303    Cl
C        0.459   0.9563   0.0745     C
C       0.4749   0.1004   0.5235     C
C       0.5251   0.8996   0.4765     C
C        0.541   0.0437   0.9255     C
Cl     0.56173  0.77567  0.44697    Cl
C       0.5685   0.9214   0.0457     C
Cl     0.59136  0.09426  0.83119    Cl
C       0.6065   0.0728   0.5758     C
C        0.613   0.9666   0.9729     C
C       0.6338   0.9714   0.5537     C
Cl     0.64767  0.82025  0.09792    Cl
O       0.7122   0.8492   0.8795     O
Cl     0.71349  0.35118  0.89243    Cl
Cl      0.7163  0.59048  0.95562    Cl
C       0.7336   0.9316   0.9424     C
Cl      0.7385  0.16382  0.66688    Cl
C       0.7784   0.9425   0.6138     C
O       0.7818   0.8922   0.6871     O
O       0.8531    0.991   0.9806     O
C       0.8713   0.4336   0.9517     C
C       0.8735   0.5402     0.98     C
O       0.8782    0.974   0.5879     O
La     0.96372  0.88037  0.86033    La
O       0.9741   0.9513   0.1964     O
H       0.9774   0.9753   0.2557     H
O        0.984   0.2168   0.9974     O
O       0.9847   0.7457   0.1485     O
H       0.9921   0.8926   0.1831     H
C        0.999   0.6069   0.0276     C
C       0.9996   0.2787   0.9371     C
