data_I
_chemical_name_common  '/home/zhangsd/repos/MofS-CGCNN/ML/data/TSD/clean_cifs/GAFRUD_clean'
_cell_length_a 18.44800
_cell_length_b 18.44800
_cell_length_c 23.93900
_cell_angle_alpha 90.00000
_cell_angle_beta  90.00000
_cell_angle_gamma 120.00000
_space_group_name_H-M_alt      'P 1'


loop_
_space_group_symop_operation_xyz
  'x, y, z' 

loop_
_atom_site_label
_atom_site_fract_x
_atom_site_fract_y
_atom_site_fract_z
_atom_site_type_symbol
O      0.02789  0.43868    0.072     O
O      0.02789  0.43868    0.428     O
O      0.02789  0.58921    0.072     O
O      0.02789  0.58921    0.428     O
Cu     0.04858  0.52429  0.54494    Cu
Cu     0.04858  0.52429  0.95506    Cu
H       0.0584   0.1168     0.25     H
H       0.0584   0.9416     0.25     H
H       0.0728   0.3634    0.138     H
H       0.0728   0.3634    0.362     H
H       0.0728   0.7094    0.138     H
H       0.0728   0.7094    0.362     H
C       0.0882   0.1764     0.25     C
C       0.0882   0.9118     0.25     C
C      0.09009  0.44859  0.04417     C
C      0.09009  0.44859  0.45583     C
C      0.09009   0.6415  0.04417     C
C      0.09009   0.6415  0.45583     C
H       0.0947   0.1894   0.1654     H
H       0.0947   0.1894   0.3346     H
H       0.0947   0.9053   0.1654     H
H       0.0947   0.9053   0.3346     H
C      0.10971  0.21942   0.1996     C
C      0.10971  0.21942   0.3004     C
C      0.10971  0.89029   0.1996     C
C      0.10971  0.89029   0.3004     C
O      0.10994  0.48073  0.50369     O
O      0.10994  0.48073  0.99631     O
O      0.10994  0.62921  0.50369     O
O      0.10994  0.62921  0.99631     O
H       0.1168   0.0584     0.75     H
C      0.12418  0.37692  0.12034     C
C      0.12418  0.37692  0.37966     C
C      0.12418  0.74726  0.12034     C
C      0.12418  0.74726  0.37966     C
C      0.14514  0.42044  0.06984     C
C      0.14514  0.42044  0.43016     C
C      0.14514   0.7247  0.06984     C
C      0.14514   0.7247  0.43016     C
C      0.15287  0.30574  0.19931     C
C      0.15287  0.30574  0.30069     C
C      0.15287  0.84713  0.19931     C
C      0.15287  0.84713  0.30069     C
C       0.1744   0.3488     0.25     C
C       0.1744   0.8256     0.25     C
C       0.1764   0.0882     0.75     C
C      0.17657  0.35314  0.14508     C
C      0.17657  0.35314  0.35492     C
C      0.17657  0.82343  0.14508     C
C      0.17657  0.82343  0.35492     C
H       0.1894   0.0947   0.6654     H
H       0.1894   0.0947   0.8346     H
N      0.21692  0.43384     0.25     N
N      0.21692  0.78308     0.25     N
C      0.21942  0.10971   0.6996     C
C      0.21942  0.10971   0.8004     C
C      0.22104  0.44208  0.04469     C
C      0.22104  0.44208  0.45531     C
C      0.22104  0.77896  0.04469     C
C      0.22104  0.77896  0.45531     C
H       0.2307   0.4614   0.2182     H
H       0.2307   0.4614   0.2818     H
H       0.2307   0.7693   0.2182     H
H       0.2307   0.7693   0.2818     H
H       0.2358   0.4716   0.0103     H
H       0.2358   0.4716   0.4897     H
H       0.2358   0.7642   0.0103     H
H       0.2358   0.7642   0.4897     H
C      0.25274  0.37692  0.12034     C
C      0.25274  0.37692  0.37966     C
C      0.25274  0.87582  0.12034     C
C      0.25274  0.87582  0.37966     C
C       0.2753  0.42044  0.06984     C
C       0.2753  0.42044  0.43016     C
C       0.2753  0.85486  0.06984     C
C       0.2753  0.85486  0.43016     C
H       0.2906   0.3634    0.138     H
H       0.2906   0.3634    0.362     H
H       0.2906   0.9272    0.138     H
H       0.2906   0.9272    0.362     H
C      0.30574  0.15287  0.69931     C
C      0.30574  0.15287  0.80069     C
C       0.3488   0.1744     0.75     C
C      0.35314  0.17657  0.64508     C
C      0.35314  0.17657  0.85492     C
C       0.3585  0.44859  0.04417     C
C       0.3585  0.44859  0.45583     C
C       0.3585  0.90991  0.04417     C
C       0.3585  0.90991  0.45583     C
H       0.3634   0.0728    0.638     H
H       0.3634   0.0728    0.862     H
H       0.3634   0.2906    0.638     H
H       0.3634   0.2906    0.862     H
O      0.37079  0.48073  0.50369     O
O      0.37079  0.48073  0.99631     O
O      0.37079  0.89006  0.50369     O
O      0.37079  0.89006  0.99631     O
C      0.37692  0.12418  0.62034     C
C      0.37692  0.12418  0.87966     C
C      0.37692  0.25274  0.62034     C
C      0.37692  0.25274  0.87966     C
O      0.41079  0.43868    0.072     O
O      0.41079  0.43868    0.428     O
O      0.41079  0.97211    0.072     O
O      0.41079  0.97211    0.428     O
C      0.42044  0.14514  0.56984     C
C      0.42044  0.14514  0.93016     C
C      0.42044   0.2753  0.56984     C
C      0.42044   0.2753  0.93016     C
N      0.43384  0.21692     0.75     N
O      0.43868  0.02789    0.572     O
O      0.43868  0.02789    0.928     O
O      0.43868  0.41079    0.572     O
O      0.43868  0.41079    0.928     O
C      0.44208  0.22104  0.54469     C
C      0.44208  0.22104  0.95531     C
C      0.44859  0.09009  0.54417     C
C      0.44859  0.09009  0.95583     C
C      0.44859   0.3585  0.54417     C
C      0.44859   0.3585  0.95583     C
H       0.4614   0.2307   0.7182     H
H       0.4614   0.2307   0.7818     H
H       0.4716   0.2358   0.5103     H
H       0.4716   0.2358   0.9897     H
Cu     0.47571  0.52429  0.54494    Cu
Cu     0.47571  0.52429  0.95506    Cu
Cu     0.47571  0.95142  0.54494    Cu
Cu     0.47571  0.95142  0.95506    Cu
O      0.48073  0.10994  0.00369     O
O      0.48073  0.10994  0.49631     O
O      0.48073  0.37079  0.00369     O
O      0.48073  0.37079  0.49631     O
O      0.51927  0.62921  0.50369     O
O      0.51927  0.62921  0.99631     O
O      0.51927  0.89006  0.50369     O
O      0.51927  0.89006  0.99631     O
Cu     0.52429  0.04858  0.04494    Cu
Cu     0.52429  0.04858  0.45506    Cu
Cu     0.52429  0.47571  0.04494    Cu
Cu     0.52429  0.47571  0.45506    Cu
H       0.5284   0.7642   0.0103     H
H       0.5284   0.7642   0.4897     H
H       0.5386   0.7693   0.2182     H
H       0.5386   0.7693   0.2818     H
C      0.55141   0.6415  0.04417     C
C      0.55141   0.6415  0.45583     C
C      0.55141  0.90991  0.04417     C
C      0.55141  0.90991  0.45583     C
C      0.55792  0.77896  0.04469     C
C      0.55792  0.77896  0.45531     C
O      0.56132  0.58921    0.072     O
O      0.56132  0.58921    0.428     O
O      0.56132  0.97211    0.072     O
O      0.56132  0.97211    0.428     O
N      0.56616  0.78308     0.25     N
C      0.57956   0.7247  0.06984     C
C      0.57956   0.7247  0.43016     C
C      0.57956  0.85486  0.06984     C
C      0.57956  0.85486  0.43016     C
O      0.58921  0.02789    0.572     O
O      0.58921  0.02789    0.928     O
O      0.58921  0.56132    0.572     O
O      0.58921  0.56132    0.928     O
C      0.62308  0.74726  0.12034     C
C      0.62308  0.74726  0.37966     C
C      0.62308  0.87582  0.12034     C
C      0.62308  0.87582  0.37966     C
O      0.62921  0.10994  0.00369     O
O      0.62921  0.10994  0.49631     O
O      0.62921  0.51927  0.00369     O
O      0.62921  0.51927  0.49631     O
H       0.6366   0.7094    0.138     H
H       0.6366   0.7094    0.362     H
H       0.6366   0.9272    0.138     H
H       0.6366   0.9272    0.362     H
C       0.6415  0.09009  0.54417     C
C       0.6415  0.09009  0.95583     C
C       0.6415  0.55141  0.54417     C
C       0.6415  0.55141  0.95583     C
C      0.64686  0.82343  0.14508     C
C      0.64686  0.82343  0.35492     C
C       0.6512   0.8256     0.25     C
C      0.69426  0.84713  0.19931     C
C      0.69426  0.84713  0.30069     C
H       0.7094   0.0728    0.638     H
H       0.7094   0.0728    0.862     H
H       0.7094   0.6366    0.638     H
H       0.7094   0.6366    0.862     H
C       0.7247  0.14514  0.56984     C
C       0.7247  0.14514  0.93016     C
C       0.7247  0.57956  0.56984     C
C       0.7247  0.57956  0.93016     C
C      0.74726  0.12418  0.62034     C
C      0.74726  0.12418  0.87966     C
C      0.74726  0.62308  0.62034     C
C      0.74726  0.62308  0.87966     C
H       0.7642   0.2358   0.5103     H
H       0.7642   0.2358   0.9897     H
H       0.7642   0.5284   0.5103     H
H       0.7642   0.5284   0.9897     H
H       0.7693   0.2307   0.7182     H
H       0.7693   0.2307   0.7818     H
H       0.7693   0.5386   0.7182     H
H       0.7693   0.5386   0.7818     H
C      0.77896  0.22104  0.54469     C
C      0.77896  0.22104  0.95531     C
C      0.77896  0.55792  0.54469     C
C      0.77896  0.55792  0.95531     C
C      0.78058  0.89029   0.1996     C
C      0.78058  0.89029   0.3004     C
N      0.78308  0.21692     0.75     N
N      0.78308  0.56616     0.75     N
H       0.8106   0.9053   0.1654     H
H       0.8106   0.9053   0.3346     H
C      0.82343  0.17657  0.64508     C
C      0.82343  0.17657  0.85492     C
C      0.82343  0.64686  0.64508     C
C      0.82343  0.64686  0.85492     C
C       0.8236   0.9118     0.25     C
C       0.8256   0.1744     0.75     C
C       0.8256   0.6512     0.75     C
C      0.84713  0.15287  0.69931     C
C      0.84713  0.15287  0.80069     C
C      0.84713  0.69426  0.69931     C
C      0.84713  0.69426  0.80069     C
C      0.85486   0.2753  0.56984     C
C      0.85486   0.2753  0.93016     C
C      0.85486  0.57956  0.56984     C
C      0.85486  0.57956  0.93016     C
C      0.87582  0.25274  0.62034     C
C      0.87582  0.25274  0.87966     C
C      0.87582  0.62308  0.62034     C
C      0.87582  0.62308  0.87966     C
H       0.8832   0.9416     0.25     H
O      0.89006  0.37079  0.00369     O
O      0.89006  0.37079  0.49631     O
O      0.89006  0.51927  0.00369     O
O      0.89006  0.51927  0.49631     O
C      0.89029  0.10971   0.6996     C
C      0.89029  0.10971   0.8004     C
C      0.89029  0.78058   0.6996     C
C      0.89029  0.78058   0.8004     C
H       0.9053   0.0947   0.6654     H
H       0.9053   0.0947   0.8346     H
H       0.9053   0.8106   0.6654     H
H       0.9053   0.8106   0.8346     H
C      0.90991   0.3585  0.54417     C
C      0.90991   0.3585  0.95583     C
C      0.90991  0.55141  0.54417     C
C      0.90991  0.55141  0.95583     C
C       0.9118   0.0882     0.75     C
C       0.9118   0.8236     0.75     C
H       0.9272   0.2906    0.638     H
H       0.9272   0.2906    0.862     H
H       0.9272   0.6366    0.638     H
H       0.9272   0.6366    0.862     H
H       0.9416   0.0584     0.75     H
H       0.9416   0.8832     0.75     H
Cu     0.95142  0.47571  0.04494    Cu
Cu     0.95142  0.47571  0.45506    Cu
O      0.97211  0.41079    0.572     O
O      0.97211  0.41079    0.928     O
O      0.97211  0.56132    0.572     O
O      0.97211  0.56132    0.928     O
