data_I
_chemical_name_common  '/home/zhangsd/repos/MofS-CGCNN/ML/data/TSD/clean_cifs/GAGQAI_clean'
_cell_length_a 18.87540
_cell_length_b 18.87540
_cell_length_c 18.87540
_cell_angle_alpha 90.00000
_cell_angle_beta  90.00000
_cell_angle_gamma 90.00000
_space_group_name_H-M_alt      'P 1'


loop_
_space_group_symop_operation_xyz
  'x, y, z' 

loop_
_atom_site_label
_atom_site_fract_x
_atom_site_fract_y
_atom_site_fract_z
_atom_site_type_symbol
Cl         0.0      0.0      0.5    Cl
Fe         0.0  0.13538      0.5    Fe
Cl         0.0      0.5      0.0    Cl
Fe         0.0      0.5  0.13538    Fe
Fe         0.0      0.5  0.86462    Fe
Fe         0.0  0.86462      0.5    Fe
N      0.08167  0.13108  0.42056     N
N      0.08167  0.13108  0.57944     N
N      0.08167  0.42056  0.13108     N
N      0.08167  0.42056  0.86892     N
N      0.08167  0.57944  0.13108     N
N      0.08167  0.57944  0.86892     N
N      0.08167  0.86892  0.42056     N
N      0.08167  0.86892  0.57944     N
N      0.09165  0.17569  0.36802     N
N      0.09165  0.17569  0.63198     N
N      0.09165  0.36802  0.17569     N
N      0.09165  0.36802  0.82431     N
N      0.09165  0.63198  0.17569     N
N      0.09165  0.63198  0.82431     N
N      0.09165  0.82431  0.36802     N
N      0.09165  0.82431  0.63198     N
H      0.10595  0.26572  0.26572     H
H      0.10595  0.26572  0.73428     H
H      0.10595  0.73428  0.26572     H
H      0.10595  0.73428  0.73428     H
N      0.13108  0.08167  0.42056     N
N      0.13108  0.08167  0.57944     N
N      0.13108  0.42056  0.08167     N
N      0.13108  0.42056  0.91833     N
N      0.13108  0.57944  0.08167     N
N      0.13108  0.57944  0.91833     N
N      0.13108  0.91833  0.42056     N
N      0.13108  0.91833  0.57944     N
Fe     0.13538      0.0      0.5    Fe
Fe     0.13538      0.5      0.0    Fe
C      0.14984  0.24227  0.24227     C
C      0.14984  0.24227  0.75773     C
C      0.14984  0.75773  0.24227     C
C      0.14984  0.75773  0.75773     C
C       0.1516   0.1516  0.33575     C
C       0.1516   0.1516  0.66425     C
C       0.1516  0.33575   0.1516     C
C       0.1516  0.33575   0.8484     C
C       0.1516  0.66425   0.1516     C
C       0.1516  0.66425   0.8484     C
C       0.1516   0.8484  0.33575     C
C       0.1516   0.8484  0.66425     C
N      0.17569  0.09165  0.36802     N
N      0.17569  0.09165  0.63198     N
N      0.17569  0.36802  0.09165     N
N      0.17569  0.36802  0.90835     N
N      0.17569  0.63198  0.09165     N
N      0.17569  0.63198  0.90835     N
N      0.17569  0.90835  0.36802     N
N      0.17569  0.90835  0.63198     N
C      0.18004  0.18004  0.27115     C
C      0.18004  0.18004  0.72885     C
C      0.18004  0.27115  0.18004     C
C      0.18004  0.27115  0.81996     C
C      0.18004  0.72885  0.18004     C
C      0.18004  0.72885  0.81996     C
C      0.18004  0.81996  0.27115     C
C      0.18004  0.81996  0.72885     C
C      0.24227  0.14984  0.24227     C
C      0.24227  0.14984  0.75773     C
C      0.24227  0.24227  0.14984     C
C      0.24227  0.24227  0.85016     C
C      0.24227  0.75773  0.14984     C
C      0.24227  0.75773  0.85016     C
C      0.24227  0.85016  0.24227     C
C      0.24227  0.85016  0.75773     C
H      0.26572  0.10595  0.26572     H
H      0.26572  0.10595  0.73428     H
H      0.26572  0.26572  0.10595     H
H      0.26572  0.26572  0.89405     H
H      0.26572  0.73428  0.10595     H
H      0.26572  0.73428  0.89405     H
H      0.26572  0.89405  0.26572     H
H      0.26572  0.89405  0.73428     H
C      0.27115  0.18004  0.18004     C
C      0.27115  0.18004  0.81996     C
C      0.27115  0.81996  0.18004     C
C      0.27115  0.81996  0.81996     C
C      0.33575   0.1516   0.1516     C
C      0.33575   0.1516   0.8484     C
C      0.33575   0.8484   0.1516     C
C      0.33575   0.8484   0.8484     C
N      0.36802  0.09165  0.17569     N
N      0.36802  0.09165  0.82431     N
N      0.36802  0.17569  0.09165     N
N      0.36802  0.17569  0.90835     N
N      0.36802  0.82431  0.09165     N
N      0.36802  0.82431  0.90835     N
N      0.36802  0.90835  0.17569     N
N      0.36802  0.90835  0.82431     N
N      0.42056  0.08167  0.13108     N
N      0.42056  0.08167  0.86892     N
N      0.42056  0.13108  0.08167     N
N      0.42056  0.13108  0.91833     N
N      0.42056  0.86892  0.08167     N
N      0.42056  0.86892  0.91833     N
N      0.42056  0.91833  0.13108     N
N      0.42056  0.91833  0.86892     N
Cl         0.5      0.0      0.0    Cl
Fe         0.5      0.0  0.13538    Fe
Fe         0.5      0.0  0.86462    Fe
Fe         0.5  0.13538      0.0    Fe
Fe         0.5  0.86462      0.0    Fe
N      0.57944  0.08167  0.13108     N
N      0.57944  0.08167  0.86892     N
N      0.57944  0.13108  0.08167     N
N      0.57944  0.13108  0.91833     N
N      0.57944  0.86892  0.08167     N
N      0.57944  0.86892  0.91833     N
N      0.57944  0.91833  0.13108     N
N      0.57944  0.91833  0.86892     N
N      0.63198  0.09165  0.17569     N
N      0.63198  0.09165  0.82431     N
N      0.63198  0.17569  0.09165     N
N      0.63198  0.17569  0.90835     N
N      0.63198  0.82431  0.09165     N
N      0.63198  0.82431  0.90835     N
N      0.63198  0.90835  0.17569     N
N      0.63198  0.90835  0.82431     N
C      0.66425   0.1516   0.1516     C
C      0.66425   0.1516   0.8484     C
C      0.66425   0.8484   0.1516     C
C      0.66425   0.8484   0.8484     C
C      0.72885  0.18004  0.18004     C
C      0.72885  0.18004  0.81996     C
C      0.72885  0.81996  0.18004     C
C      0.72885  0.81996  0.81996     C
H      0.73428  0.10595  0.26572     H
H      0.73428  0.10595  0.73428     H
H      0.73428  0.26572  0.10595     H
H      0.73428  0.26572  0.89405     H
H      0.73428  0.73428  0.10595     H
H      0.73428  0.73428  0.89405     H
H      0.73428  0.89405  0.26572     H
H      0.73428  0.89405  0.73428     H
C      0.75773  0.14984  0.24227     C
C      0.75773  0.14984  0.75773     C
C      0.75773  0.24227  0.14984     C
C      0.75773  0.24227  0.85016     C
C      0.75773  0.75773  0.14984     C
C      0.75773  0.75773  0.85016     C
C      0.75773  0.85016  0.24227     C
C      0.75773  0.85016  0.75773     C
C      0.81996  0.18004  0.27115     C
C      0.81996  0.18004  0.72885     C
C      0.81996  0.27115  0.18004     C
C      0.81996  0.27115  0.81996     C
C      0.81996  0.72885  0.18004     C
C      0.81996  0.72885  0.81996     C
C      0.81996  0.81996  0.27115     C
C      0.81996  0.81996  0.72885     C
N      0.82431  0.09165  0.36802     N
N      0.82431  0.09165  0.63198     N
N      0.82431  0.36802  0.09165     N
N      0.82431  0.36802  0.90835     N
N      0.82431  0.63198  0.09165     N
N      0.82431  0.63198  0.90835     N
N      0.82431  0.90835  0.36802     N
N      0.82431  0.90835  0.63198     N
C       0.8484   0.1516  0.33575     C
C       0.8484   0.1516  0.66425     C
C       0.8484  0.33575   0.1516     C
C       0.8484  0.33575   0.8484     C
C       0.8484  0.66425   0.1516     C
C       0.8484  0.66425   0.8484     C
C       0.8484   0.8484  0.33575     C
C       0.8484   0.8484  0.66425     C
C      0.85016  0.24227  0.24227     C
C      0.85016  0.24227  0.75773     C
C      0.85016  0.75773  0.24227     C
C      0.85016  0.75773  0.75773     C
Fe     0.86462      0.0      0.5    Fe
Fe     0.86462      0.5      0.0    Fe
N      0.86892  0.08167  0.42056     N
N      0.86892  0.08167  0.57944     N
N      0.86892  0.42056  0.08167     N
N      0.86892  0.42056  0.91833     N
N      0.86892  0.57944  0.08167     N
N      0.86892  0.57944  0.91833     N
N      0.86892  0.91833  0.42056     N
N      0.86892  0.91833  0.57944     N
H      0.89405  0.26572  0.26572     H
H      0.89405  0.26572  0.73428     H
H      0.89405  0.73428  0.26572     H
H      0.89405  0.73428  0.73428     H
N      0.90835  0.17569  0.36802     N
N      0.90835  0.17569  0.63198     N
N      0.90835  0.36802  0.17569     N
N      0.90835  0.36802  0.82431     N
N      0.90835  0.63198  0.17569     N
N      0.90835  0.63198  0.82431     N
N      0.90835  0.82431  0.36802     N
N      0.90835  0.82431  0.63198     N
N      0.91833  0.13108  0.42056     N
N      0.91833  0.13108  0.57944     N
N      0.91833  0.42056  0.13108     N
N      0.91833  0.42056  0.86892     N
N      0.91833  0.57944  0.13108     N
N      0.91833  0.57944  0.86892     N
N      0.91833  0.86892  0.42056     N
N      0.91833  0.86892  0.57944     N
