data_I
_chemical_name_common  '/home/zhangsd/repos/MofS-CGCNN/ML/data/TSD/clean_cifs/GAGSUF_clean'
_cell_length_a 18.44480
_cell_length_b 18.44480
_cell_length_c  9.80840
_cell_angle_alpha 90.00000
_cell_angle_beta  90.00000
_cell_angle_gamma 120.00000
_space_group_name_H-M_alt      'P 1'


loop_
_space_group_symop_operation_xyz
  'x, y, z' 

loop_
_atom_site_label
_atom_site_fract_x
_atom_site_fract_y
_atom_site_fract_z
_atom_site_type_symbol
C       0.0228    0.469     0.75     C
O       0.0623   0.4937    0.639     O
O       0.0623   0.4937    0.861     O
C       0.0676   0.5908     0.25     C
H       0.0832   0.5982   0.0445     H
H       0.0832   0.5982   0.4555     H
C       0.1109   0.6195   0.1267     C
C       0.1109   0.6195   0.3733     C
C       0.1948   0.6796   0.1271     C
C       0.1948   0.6796   0.3729     C
Th     0.20201  0.55584     0.75    Th
O       0.2061   0.6732   0.6141     O
O       0.2061   0.6732   0.8859     O
O       0.2262   0.5384   0.5044     O
O       0.2262   0.5384   0.9956     O
C       0.2367   0.7101     0.25     C
C       0.2406   0.7108   0.5045     C
C       0.2406   0.7108   0.9955     C
H       0.2489   0.5419     0.25     H
C       0.2892   0.5298   0.5045     C
C       0.2892   0.5298   0.9955     C
C       0.2899   0.5266     0.25     C
H        0.293   0.7511     0.25     H
O       0.3122   0.7738   0.5044     O
O       0.3122   0.7738   0.9956     O
C       0.3204   0.5152   0.1271     C
C       0.3204   0.5152   0.3729     C
O       0.3268   0.5329   0.6141     O
O       0.3268   0.5329   0.8859     O
O      0.33333  0.66667     0.75     O
Th     0.35383  0.79799     0.75    Th
C       0.3805   0.4914   0.1267     C
C       0.3805   0.4914   0.3733     C
H       0.4018    0.485   0.0445     H
H       0.4018    0.485   0.4555     H
C       0.4092   0.4768     0.25     C
O       0.4314   0.9377    0.639     O
O       0.4314   0.9377    0.861     O
Th     0.44416  0.64617     0.75    Th
C       0.4462   0.9772     0.75     C
H       0.4581    0.707     0.25     H
O       0.4616   0.6878   0.5044     O
O       0.4616   0.6878   0.9956     O
O       0.4671   0.7939   0.6141     O
O       0.4671   0.7939   0.8859     O
C        0.469   0.4462     0.25     C
C       0.4702   0.7594   0.5045     C
C       0.4702   0.7594   0.9955     C
C       0.4734   0.7633     0.25     C
C       0.4768   0.0676     0.75     C
C       0.4848   0.8052   0.1271     C
C       0.4848   0.8052   0.3729     C
H        0.485   0.0832   0.5445     H
H        0.485   0.0832   0.9555     H
C       0.4914   0.1109   0.6267     C
C       0.4914   0.1109   0.8733     C
O       0.4937   0.4314    0.139     O
O       0.4937   0.4314    0.361     O
O       0.5063   0.5686    0.639     O
O       0.5063   0.5686    0.861     O
C       0.5086   0.8891   0.1267     C
C       0.5086   0.8891   0.3733     C
H        0.515   0.9168   0.0445     H
H        0.515   0.9168   0.4555     H
C       0.5152   0.1948   0.6271     C
C       0.5152   0.1948   0.8729     C
C       0.5232   0.9324     0.25     C
C       0.5266   0.2367     0.75     C
C       0.5298   0.2406   0.0045     C
C       0.5298   0.2406   0.4955     C
C        0.531   0.5538     0.75     C
O       0.5329   0.2061   0.1141     O
O       0.5329   0.2061   0.3859     O
O       0.5384   0.3122   0.0044     O
O       0.5384   0.3122   0.4956     O
H       0.5419    0.293     0.75     H
C       0.5538   0.0228     0.25     C
Th     0.55584  0.35383     0.25    Th
O       0.5686   0.0623    0.139     O
O       0.5686   0.0623    0.361     O
C       0.5908   0.5232     0.75     C
H       0.5982    0.515   0.5445     H
H       0.5982    0.515   0.9555     H
C       0.6195   0.5086   0.6267     C
C       0.6195   0.5086   0.8733     C
Th     0.64617  0.20201     0.25    Th
O      0.66667  0.33333     0.25     O
O       0.6732   0.4671   0.1141     O
O       0.6732   0.4671   0.3859     O
C       0.6796   0.4848   0.6271     C
C       0.6796   0.4848   0.8729     C
O       0.6878   0.2262   0.0044     O
O       0.6878   0.2262   0.4956     O
H        0.707   0.2489     0.75     H
C       0.7101   0.4734     0.75     C
C       0.7108   0.4702   0.0045     C
C       0.7108   0.4702   0.4955     C
H       0.7511   0.4581     0.75     H
C       0.7594   0.2892   0.0045     C
C       0.7594   0.2892   0.4955     C
C       0.7633   0.2899     0.75     C
O       0.7738   0.4616   0.0044     O
O       0.7738   0.4616   0.4956     O
O       0.7939   0.3268   0.1141     O
O       0.7939   0.3268   0.3859     O
Th     0.79799  0.44416     0.25    Th
C       0.8052   0.3204   0.6271     C
C       0.8052   0.3204   0.8729     C
C       0.8891   0.3805   0.6267     C
C       0.8891   0.3805   0.8733     C
H       0.9168   0.4018   0.5445     H
H       0.9168   0.4018   0.9555     H
C       0.9324   0.4092     0.75     C
O       0.9377   0.5063    0.139     O
O       0.9377   0.5063    0.361     O
C       0.9772    0.531     0.25     C
