data_I
_chemical_name_common  '/home/zhangsd/repos/MofS-CGCNN/ML/data/TSD/clean_cifs/GAJZEY_clean'
_cell_length_a  5.58710
_cell_length_b 13.42400
_cell_length_c 21.15700
_cell_angle_alpha 90.00000
_cell_angle_beta  96.14800
_cell_angle_gamma 90.00000
_space_group_name_H-M_alt      'P 1'


loop_
_space_group_symop_operation_xyz
  'x, y, z' 

loop_
_atom_site_label
_atom_site_fract_x
_atom_site_fract_y
_atom_site_fract_z
_atom_site_type_symbol
N       0.0058   0.5812   0.2849     N
N       0.0058   0.9188   0.7849     N
H       0.0076   0.7452   0.6775     H
H       0.0076   0.7548   0.1775     H
C       0.0283   0.1891   0.2032     C
C       0.0283   0.3109   0.7032     C
H       0.0335   0.0991   0.3713     H
H       0.0335   0.4009   0.8713     H
O       0.0368   0.6233   0.4426     O
O       0.0368   0.8767   0.9426     O
H       0.0807   0.1983   0.1613     H
H       0.0807   0.3017   0.6613     H
C       0.0868   0.5672    0.221     C
C       0.0868   0.9328    0.721     C
P       0.0878  0.52307   0.4132     P
P       0.0878  0.97693   0.9132     P
C       0.0939    0.108   0.3304     C
C       0.0939    0.392   0.8304     C
H       0.1106   0.0032   0.7136     H
H       0.1106   0.4968   0.2136     H
O       0.1227   0.5476   0.5919     O
O       0.1227   0.9524   0.0919     O
H       0.1235   0.7238   0.2957     H
H       0.1235   0.7762   0.7957     H
C        0.144   0.2188   0.3204     C
C        0.144   0.2812   0.8204     C
C       0.1851   0.5389   0.3347     C
C       0.1851   0.9611   0.8347     C
C       0.2168   0.2328   0.2537     C
C       0.2168   0.2672   0.7537     C
H       0.2353   0.0255   0.8201     H
H       0.2353   0.4745   0.3201     H
H       0.2362   0.1967   0.7456     H
H       0.2362   0.3033   0.2456     H
H       0.2399   0.6006   0.2194     H
H       0.2399   0.8994   0.7194     H
H       0.2431    0.071   0.3309     H
H       0.2431    0.429   0.8309     H
O       0.2992   0.2444   0.4294     O
O       0.2992   0.2556   0.9294     O
O       0.3142   0.0174  0.95352     O
O       0.3142   0.4826  0.45352     O
H       0.3257   0.5818   0.3385     H
H       0.3257   0.9182   0.8385     H
C        0.326   0.2391   0.8717     C
C        0.326   0.2609   0.3717     C
H       0.3705   0.2005   0.2508     H
H       0.3705   0.2995   0.7508     H
Nd     0.37146  0.63445  0.52849    Nd
Nd     0.37146  0.86555  0.02849    Nd
O       0.4948   0.1849   0.8579     O
O       0.4948   0.3151   0.3579     O
O       0.5052   0.6849   0.6421     O
O       0.5052   0.8151   0.1421     O
Nd     0.62854  0.13445  0.97151    Nd
Nd     0.62854  0.36555  0.47151    Nd
H       0.6295   0.7005   0.2492     H
H       0.6295   0.7995   0.7492     H
C        0.674   0.7391   0.6283     C
C        0.674   0.7609   0.1283     C
H       0.6743   0.0818   0.1615     H
H       0.6743   0.4182   0.6615     H
O       0.6858   0.5174  0.54648     O
O       0.6858   0.9826  0.04648     O
O       0.7008   0.7444   0.0706     O
O       0.7008   0.7556   0.5706     O
H       0.7569    0.571   0.1691     H
H       0.7569    0.929   0.6691     H
H       0.7601   0.1006   0.2806     H
H       0.7601   0.3994   0.7806     H
H       0.7638   0.6967   0.7544     H
H       0.7638   0.8033   0.2544     H
H       0.7647   0.5255   0.6799     H
H       0.7647   0.9745   0.1799     H
C       0.7832   0.7328   0.2463     C
C       0.7832   0.7672   0.7463     C
C       0.8149   0.0389   0.1653     C
C       0.8149   0.4611   0.6653     C
C        0.856   0.7188   0.1796     C
C        0.856   0.7812   0.6796     C
H       0.8765   0.2238   0.2043     H
H       0.8765   0.2762   0.7043     H
O       0.8773   0.0476   0.9081     O
O       0.8773   0.4524   0.4081     O
H       0.8894   0.5032   0.7864     H
H       0.8894   0.9968   0.2864     H
C       0.9061    0.608   0.1696     C
C       0.9061    0.892   0.6696     C
P       0.9122  0.02307   0.0868     P
P       0.9122  0.47693   0.5868     P
C       0.9132   0.0672    0.279     C
C       0.9132   0.4328    0.779     C
H       0.9193   0.6983   0.3387     H
H       0.9193   0.8017   0.8387     H
O       0.9632   0.1233   0.0574     O
O       0.9632   0.3767   0.5574     O
H       0.9665   0.5991   0.1287     H
H       0.9665   0.9009   0.6287     H
C       0.9717   0.6891   0.2968     C
C       0.9717   0.8109   0.7968     C
H       0.9924   0.2452   0.8225     H
H       0.9924   0.2548   0.3225     H
N       0.9942   0.0812   0.2151     N
N       0.9942   0.4188   0.7151     N
