data_I
_chemical_name_common  '/home/zhangsd/repos/MofS-CGCNN/ML/data/TSD/clean_cifs/GARQAU_clean'
_cell_length_a 36.63500
_cell_length_b 36.63500
_cell_length_c 12.12780
_cell_angle_alpha 90.00000
_cell_angle_beta  90.00000
_cell_angle_gamma 120.00000
_space_group_name_H-M_alt      'P 1'


loop_
_space_group_symop_operation_xyz
  'x, y, z' 

loop_
_atom_site_label
_atom_site_fract_x
_atom_site_fract_y
_atom_site_fract_z
_atom_site_type_symbol
H      0.00067  0.34073  0.11603     H
H      0.00087  0.90323  0.72043     H
C      0.00203  0.86462  0.14457     C
C      0.00332  0.71267   0.1056     C
C      0.00358   0.6453  0.82357     C
C      0.00453  0.76274   0.9623     C
H      0.00673  0.33267  0.44937     H
H       0.0074   0.6734   0.2173     H
C      0.00879  0.26231  0.49157     C
N      0.01005  0.78719    0.639     N
H      0.01043  0.86657  0.06967     H
H      0.01143  0.13097  0.37527     H
C      0.01248  0.25421  0.38037     C
C      0.01663  0.60409  0.64917     C
C      0.01757  0.77665  0.46093     C
Zn     0.01784   0.8198  0.77667    Zn
H      0.01913  0.28347  0.23217     H
C      0.01933  0.87791  0.33547     C
H      0.01947  0.40473  0.98983     H
H      0.02113  0.58967  0.59037     H
C      0.02137  0.69162   0.1569     C
H      0.02197  0.76283  0.30023     H
C      0.02253  0.41337  0.30113     C
C      0.02256  0.11991  0.31897     C
H       0.0231   0.2916   0.8698     H
C      0.02328  0.14432  0.63853     C
C       0.0239  0.73993   0.0185     C
H      0.02457  0.80743  0.31543     H
C      0.02495  0.33692  0.50977     C
O      0.02813  0.78912  0.88858     O
N      0.02829   0.8055  0.54152     N
C      0.02951  0.39318  0.21333     C
C      0.03034  0.30383  0.54667     C
O      0.03126  0.24494  0.01154     O
H      0.03177  0.14813  0.56343     H
C      0.03268  0.88366  0.22587     C
C      0.03349  0.78834  0.34563     C
N      0.03378  0.17681  0.19099     N
C      0.03783  0.28528  0.29227     C
H      0.03963  0.88937  0.39297     H
H      0.03973  0.10957  0.35437     H
C       0.0403  0.15703  0.82963     C
H      0.04173  0.39817  0.53647     H
C      0.04268  0.66335  0.77227     C
H      0.04487  0.43943  0.32713     H
H      0.04497  0.83273  0.53223     H
C        0.046  0.37602  0.56107     C
C      0.04806  0.41922  0.95893     C
C       0.0493  0.15447  0.23857     C
C      0.04936  0.64277  0.68517     C
H      0.04987  0.40233  0.89883     H
H      0.05193  0.31387  0.32317     H
C      0.05334  0.16089  0.72043     C
H      0.05447  0.44683  0.93043     H
C      0.05751  0.31081  0.63447     C
H      0.05903  0.27887  0.26377     H
C      0.05985  0.69701     0.12     C
H      0.05993  0.84357  0.06227     H
H      0.06057  0.16933  0.88673     H
H      0.06123  0.28847  0.66047     H
H      0.06153  0.22207  0.07877     H
C      0.06258  0.74588   0.9825     C
N      0.06391  0.20364  0.12011     N
H      0.06437  0.80243  0.34563     H
H      0.06483  0.68977  0.79687     H
O      0.06522  0.87622  0.77579     O
H        0.069   0.6858   0.4345     H
H      0.06983  0.96027  0.35437     H
C      0.07103  0.41315  0.15823     C
H       0.0714   0.6023   0.0123     H
H       0.0714   0.7186   0.3435     H
C      0.07326   0.3827  0.64817     C
H       0.0742   0.6447   0.9669     H
O      0.07497  0.88958  0.59443     O
H        0.077   0.7648   0.9237     H
C      0.07759  0.91028  0.19707     C
H      0.07887  0.55923  0.73553     H
C      0.07913  0.42494  0.04703     C
C      0.07921  0.34997  0.68417     C
C      0.07982  0.67546   0.1751     C
C      0.08004  0.72418   0.0322     C
C      0.08112  0.90068  0.69253     C
C      0.08589   0.7045   0.3744     C
C      0.08819  0.63318   0.0123     C
O      0.08839  0.45299  0.67821     O
C      0.08949  0.86482  0.04997     C
C      0.08972  0.16732  0.19707     C
C      0.09154  0.66214  0.62897     C
C      0.09161  0.67915   0.2863     C
C      0.09242   0.6491   0.1276     C
H      0.09363  0.87337  0.97237     H
O      0.09432  0.63854  0.55525     O
C      0.09607  0.42488  0.70437     C
H      0.09617  0.40753  0.36643     H
H      0.09677  0.09763  0.72043     H
C      0.09734  0.97744  0.31897     C
H      0.09763  0.00087  0.27957     H
C      0.09789   0.1987  0.12067     C
H      0.09813  0.35447  0.74297     H
C      0.09932  0.18043  0.69253     C
C       0.1008  0.90211  0.12067     C
C      0.10516   0.9507  0.23857     C
H       0.1061   0.7279   0.0062     H
H      0.10743  0.85297  0.06887     H
C      0.10756  0.94666  0.72043     C
C      0.10866  0.57717  0.71663     C
H      0.10877  0.93943  0.88673     H
H      0.10957  0.06983  0.64563     H
C      0.10999  0.42575  0.20573     C
O      0.11042  0.18538  0.59443     O
N      0.11048  0.65662  0.30567     N
N      0.11055  0.63838  0.20819     N
H      0.11063  0.15027  0.39297     H
H      0.11127  0.50613  0.74543     H
H      0.11307  0.57303  0.63903     H
H       0.1135   0.7257   0.4029     H
H       0.1162   0.6421   0.9821     H
C      0.11634  0.14903  0.22587     C
H      0.11637  0.96823  0.56343     H
C      0.11674   0.9597  0.82963     C
H      0.11697  0.60673  0.72893     H
H      0.11953  0.98857  0.37527     H
O      0.11965  0.69793  0.65513     O
C      0.11991  0.09734  0.68103     C
N      0.12053  0.44381  0.02766     N
C      0.12105  0.97672  0.63853     C
H       0.1211   0.6217   0.1989     H
C      0.12168  0.42152  0.32103     C
C      0.12209  0.14143  0.33547     C
O      0.12245  0.42766  0.77809     O
O      0.12378  0.18899  0.77579     O
H      0.12663  0.22027  0.97237     H
N       0.1297  0.52694  0.78677     N
H      0.13097  0.11953  0.62473     H
H      0.13343  0.14387  0.06967     H
C      0.13464  0.56586  0.78733     C
C      0.13518  0.22468  0.04997     C
Zn      0.1353  0.64883  0.44334    Zn
C      0.13538  0.13742  0.14457     C
H      0.13577  0.40473  0.32103     H
C      0.13742  0.00203  0.85543     C
N      0.13884  0.44388  0.12514     N
N      0.13972  0.93609  0.12011     N
H      0.14077  0.44953  0.35123     H
C      0.14143  0.01933  0.66453     C
N      0.14302  0.96622  0.19099     N
H      0.14387  0.01043  0.93033     H
C      0.14432  0.12105  0.36147     C
O      0.14434  0.60145  0.44246     O
H      0.14703  0.25447  0.06887     H
O      0.14795   0.5917   0.2611     O
H      0.14813  0.11637  0.43657     H
C      0.14903  0.03268  0.77413     C
H      0.15027  0.03963  0.60703     H
C       0.1529  0.58555   0.3592     C
Zn     0.15314  0.46863  0.88999    Zn
C      0.15447  0.10516  0.76143     C
H      0.15643  0.21637  0.06227     H
N      0.15653  0.52364  0.85765     N
C      0.15703  0.11674  0.17037     C
H      0.16053  0.93847  0.07877     H
C      0.16089  0.10756  0.27957     C
H        0.164   0.5579   0.5534     H
C      0.16602  0.58907  0.86373     C
H      0.16607  0.45443  0.13443     H
H      0.16727  0.21223  0.53223     H
C      0.16732  0.07759  0.80293     C
H      0.16933  0.10877  0.11327     H
C      0.17244  0.55911   0.3871     C
H       0.1728   0.7282   0.5879     H
C       0.1763  0.54993   0.4963     C
N      0.17681  0.14302  0.80901     N
H       0.1769   0.4503   0.6044     H
C      0.17887   0.5615  0.90523     C
Zn      0.1802  0.19803  0.77667    Zn
C      0.18043  0.08112  0.30747     C
H      0.18307  0.62703  0.05963     H
C      0.18431  0.63398  0.89253     C
H       0.1852   0.5503   0.2301     H
O      0.18538  0.07497  0.40557     O
H       0.1863   0.4122   0.5978     H
O      0.18899  0.06522  0.22421     O
C      0.18901  0.54562   0.3052     C
H      0.18947  0.65623  0.73633     H
N      0.19031  0.70045  0.47568     N
C      0.19191  0.64733  0.00213     C
H      0.19257  0.21713  0.31543     H
N      0.19361  0.73058  0.54656     N
N       0.1945  0.22278  0.54152     N
C      0.19592  0.66463  0.81123     C
H      0.19757  0.26193  0.34563     H
C      0.19795  0.52925   0.5221     C
Zn     0.19803  0.01784  0.22333    Zn
C      0.19815  0.44199   0.6167     C
C       0.1987   0.1008  0.87933     C
H       0.1999   0.5228    0.597     H
H      0.20237  0.54713  0.04193     H
N      0.20364  0.13972  0.87989     N
H       0.2067   0.4464   0.6943     H
O      0.20956  0.47767  0.89087     O
O      0.21088  0.23901  0.88858     O
C      0.21124  0.52524   0.3312     C
C      0.21166  0.24514  0.34563     C
H      0.21223  0.04497  0.46777     H
C      0.21229  0.68994  0.02813     C
N      0.21281  0.22285    0.639     N
C      0.21343  0.56932  0.98563     C
O      0.21368  0.96874  0.01154     O
H       0.2138   0.6781   0.2914     H
H      0.21637  0.05993  0.93773     H
C       0.2166  0.70696  0.83703     C
H      0.21697  0.69843  0.10323     H
C      0.21699  0.51764   0.4408     C
H      0.21713  0.02457  0.68457     H
H      0.21983  0.94097  0.26377     H
H      0.22027  0.09363  0.02763     H
H      0.22207  0.16053  0.92123     H
H       0.2227   0.5164   0.2737     H
N      0.22278  0.02829  0.45848     N
N      0.22285  0.01005    0.361     N
O      0.22292  0.48128  0.07223     O
C      0.22335  0.24091  0.46093     C
H      0.22377  0.59683  0.02103     H
H      0.22457  0.72723  0.77993     H
C      0.22468  0.08949  0.95003     C
C      0.22578     0.72  0.94623     C
H       0.2259   0.8137   0.5978     H
H      0.22723  0.93877  0.66047     H
C      0.22817  0.71597   0.4281     C
C      0.23253  0.76456    0.546     C
C      0.23402  0.48623  0.97413     C
H       0.2352   0.3122   0.9237     H
C      0.23544  0.46797    0.546     C
H       0.2357   0.6658   0.3871     H
C      0.23599  0.68923   0.3477     C
H      0.23657  0.56903  0.94623     H
H      0.23717  0.25913  0.30023     H
C      0.23726  0.24179   0.9623     C
O      0.23901  0.02813  0.11142     O
H       0.2397   0.7933   0.6943     H
C      0.24091  0.01757  0.53907     C
C      0.24172  0.98752  0.38037     C
C      0.24179  0.00453   0.0377     C
C      0.24361  0.49935   0.4696     C
C      0.24384  0.80185   0.6167     C
O      0.24494  0.21368  0.98846     O
C      0.24514  0.03349  0.65437     C
C      0.24744  0.96217  0.29227     C
C      0.25222  0.76598  0.97413     C
C      0.25329  0.94249  0.63447     C
C      0.25351  0.99121  0.49157     C
C      0.25412   0.3167   0.9825     C
C      0.25421  0.24172  0.61963     C
H      0.25447  0.10743  0.93113     H
C      0.25574  0.75639   0.4696     C
H      0.25633  0.90187  0.74297     H
O      0.25837  0.77708  0.07223     O
H      0.25913  0.02197  0.69977     H
C      0.26007  0.28397   0.0185     C
H      0.26193  0.06437  0.65437     H
H      0.26193  0.94807  0.32317     H
C      0.26231  0.25351  0.50843     C
H       0.2635   0.7064   0.3123     H
H      0.26433  0.98087  0.23217     H
O      0.26812  0.79044  0.89087     O
H       0.2685   0.9769   0.8698     H
H      0.26897  0.86423  0.32103     H
N      0.26942  0.46303  0.54656     N
C      0.27075  0.92079  0.68417     C
H       0.2718   0.4446   0.5879     H
H       0.2721   0.3782   0.0062     H
H      0.27277  0.49733  0.77993     H
H       0.2734   0.8231   0.6044     H
C      0.27348  0.96966  0.54667     C
H       0.2743   0.3878   0.4029     H
C      0.27582  0.35586   0.0322     C
H      0.27887  0.21983  0.73623     H
C         0.28  0.50577  0.94623     C
H       0.2814   0.3528   0.3435     H
H      0.28347  0.26433  0.76783     H
C      0.28397   0.0239   0.9815     C
C      0.28403   0.5122   0.4281     C
C      0.28528  0.24744  0.70773     C
C      0.28733  0.29065   0.1056     C
H      0.28837  0.83393  0.13443     H
H      0.28847  0.22723  0.33953     H
C      0.29065  0.00332   0.8944     C
H       0.2916   0.2685   0.1302     H
C      0.29304  0.50963  0.83703     C
H       0.2936   0.5571   0.3123     H
H       0.2937   0.7773   0.2737     H
C       0.2955  0.38139   0.3744     C
N      0.29955  0.48986  0.47568     N
C      0.29985  0.87832  0.32103     C
C      0.30065  0.78301   0.4408     C
H      0.30157  0.51853  0.10323     H
O      0.30207  0.42173  0.65513     O
C      0.30299  0.36284     0.12     C
C      0.30383  0.27348  0.45333     C
N      0.30505  0.86116  0.12514     N
O       0.3052  0.87755  0.77809     O
C      0.30838  0.32975   0.1569     C
H      0.30877  0.85923  0.35123     H
C      0.30943  0.92674  0.64817     C
C      0.31006  0.52234  0.02813     C
H      0.31023  0.37507  0.79687     H
C      0.31077  0.54676   0.3477     C
C      0.31081  0.25329  0.36553     C
H      0.31137  0.90383  0.36643     H
C      0.31196  0.97505  0.50977     C
H       0.3122    0.077   0.0763     H
H      0.31387  0.26193  0.67683     H
C        0.314  0.78876   0.3312     C
H       0.3142   0.3832   0.4345     H
Zn      0.3155  0.84686  0.88999    Zn
C      0.31577  0.89001  0.20573     C
C       0.3167  0.06258   0.0175     C
C      0.32085  0.41246   0.2863     C
H       0.3219   0.5357   0.2914     H
H       0.3229   0.8001    0.597     H
N      0.32329  0.87947  0.02766     N
C      0.32454  0.40436   0.1751     C
H      0.32593  0.99327  0.44937     H
H       0.3266    0.334   0.2173     H
C       0.3288  0.90393  0.70437     C
C      0.32975  0.02137   0.8431     C
C      0.33001    0.954  0.56107     C
C       0.3313  0.80205   0.5221     C
H      0.33247  0.76343  0.94623     H
H      0.33267  0.32593  0.55063     H
H        0.334   0.0074   0.7827     H
H       0.3342   0.5699   0.3871     H
C      0.33537  0.53128  0.81123     C
C      0.33665  0.37934  0.77227     C
C      0.33692  0.31196  0.49023     C
C      0.33786  0.42941  0.62897     C
H      0.34007  0.99933  0.11603     H
H      0.34073  0.34007  0.88397     H
C      0.34213  0.92897  0.15823     C
N      0.34338  0.45386  0.30567     N
H      0.34377  0.53323  0.73633     H
H      0.34477  0.79763  0.04193     H
C      0.34582  0.92087  0.04703     C
C      0.34997  0.27075  0.31583     C
C       0.3509  0.44332   0.1276     C
Zn     0.35117  0.48647  0.44334    Zn
H      0.35247  0.95013  0.89883     H
C      0.35267  0.54457  0.00213     C
H       0.3528   0.0714   0.6565     H
H      0.35447  0.25633  0.25703     H
C       0.3547  0.35829  0.82357     C
H       0.3553   0.4295   0.9669     H
C      0.35586  0.08004   0.9678     C
C       0.3559  0.78657  0.98563     C
H      0.35643  0.95827  0.53647     H
C      0.35661  0.81099   0.3052     C
C      0.35723   0.4066  0.68517     C
H       0.3579   0.4741   0.9821     H
C      0.35829  0.00358  0.17643     C
O      0.36146  0.45579  0.55525     O
N      0.36162  0.47217  0.20819     N
C      0.36284  0.05985     0.88     C
C      0.36368  0.97049  0.21333     C
O      0.36459  0.91161  0.67821     O
H       0.3651   0.8148   0.2301     H
C      0.36602  0.55032  0.89253     C
C      0.36682  0.45501   0.0123     C
N      0.36712  0.84347  0.85765     N
C      0.37117  0.95194  0.95893     C
H      0.37297  0.55603  0.05963     H
H      0.37307  0.77623  0.02103     H
C      0.37363   0.8237   0.4963     C
H      0.37507  0.06483  0.20313     H
C      0.37602  0.33001  0.43893     C
H       0.3782   0.1061   0.9938     H
H       0.3783   0.4994   0.1989     H
C      0.37934  0.04268  0.22773     C
C      0.38139  0.08589   0.6256     C
C      0.38264  0.82113  0.90523     C
C       0.3827  0.30943  0.35183     C
H       0.3832    0.069   0.5655     H
H      0.38527  0.98053  0.98983     H
C      0.38667  0.82756   0.3871     C
H       0.3878   0.1135   0.5971     H
C      0.39085  0.97747  0.30113     C
H      0.39237  0.94553  0.93043     H
C      0.39318  0.36368  0.78667     C
H      0.39327  0.51023  0.72893     H
H       0.3939    0.836   0.5534     H
H      0.39457  0.95513  0.32713     H
H      0.39487  0.88873  0.74543     H
C      0.39591  0.41255  0.64917     C
N      0.39725   0.8703  0.78677     N
H       0.3977   0.4691   0.0123     H
H      0.39817  0.35643  0.46353     H
O      0.39855  0.54289  0.44246     O
H      0.40233  0.35247  0.10117     H
H      0.40317  0.62693  0.02103     H
C      0.40436  0.07982   0.8249     C
H      0.40473  0.26897  0.67897     H
H      0.40473  0.38527  0.01017     H
C       0.4066  0.04936  0.31483     C
H      0.40753  0.31137  0.63357     H
O       0.4083  0.55625   0.2611     O
H      0.41033  0.43147  0.59037     H
C      0.41093  0.57694  0.86373     C
H       0.4122   0.2259   0.4022     H
C      0.41246  0.09161   0.7137     C
C      0.41255  0.01663  0.35083     C
C      0.41315  0.34213  0.84177     C
C      0.41337  0.39085  0.69887     C
C      0.41445  0.56735   0.3592     C
C      0.41922  0.37117  0.04107     C
C      0.42152  0.29985  0.67897     C
O      0.42173  0.11965  0.34487     O
C      0.42283  0.53148  0.71663     C
C      0.42306  0.83398  0.86373     C
C      0.42488   0.3288  0.29563     C
C      0.42494  0.34582  0.95297     C
C      0.42575  0.31577  0.79427     C
H      0.42697  0.54003  0.63903     H
O      0.42766   0.3052  0.22191     O
C      0.42941  0.09154  0.37103     C
H       0.4295   0.0742   0.0331     H
H       0.4301   0.7643   0.3871     H
C      0.43068   0.6441  0.98563     C
H      0.43097  0.66753  0.94623     H
C      0.43123  0.86536  0.78733     C
H      0.43147  0.02113  0.40963     H
C      0.43265   0.8471   0.3592     C
C      0.43414  0.56877  0.78733     C
C       0.4385  0.61736  0.90523     C
H      0.43943  0.39457  0.67287     H
H      0.44077  0.51963  0.73553     H
C      0.44089  0.61333   0.3871     C
C      0.44199  0.24384   0.3833     C
H       0.4421   0.6061   0.5534     H
H       0.4429   0.7365   0.3123     H
C      0.44332  0.09242   0.8724     C
O      0.44375  0.85205   0.2611     O
N      0.44381  0.32329  0.97234     N
N      0.44388  0.30505  0.87486     N
H      0.44397  0.81693  0.05963     H
H       0.4446   0.1728   0.4121     H
H       0.4464   0.2397   0.3057     H
H      0.44683  0.39237  0.06957     H
H      0.44953  0.30877  0.64877     H
C      0.44968  0.81569  0.89253     C
H       0.4497   0.6349   0.2301     H
C      0.45007  0.62637   0.4963     C
H       0.4503   0.2734   0.3956     H
H      0.45287  0.65523  0.04193     H
O      0.45299  0.36459  0.32179     O
C      0.45324  0.76401   0.3477     C
N      0.45386  0.11048  0.69433     N
C      0.45438  0.64339   0.3052     C
H      0.45443  0.28837  0.86557     H
C      0.45501  0.08819   0.9877     C
C      0.45543  0.80809  0.00213     C
O      0.45579  0.09432  0.44475     O
O      0.45711  0.85566  0.44246     O
H      0.45997  0.88693  0.63903     H
N      0.46303  0.19361  0.45344     N
H       0.4643   0.7862   0.2914     H
H      0.46677  0.81053  0.73633     H
C      0.46797  0.23253    0.454     C
C      0.46852  0.89134  0.71663     C
Zn     0.46863   0.3155  0.11001    Zn
C      0.46872  0.80408  0.81123     C
H       0.4691   0.0714   0.9877     H
C      0.47075   0.6687   0.5221     C
N      0.47217  0.11055  0.79181     N
N      0.47306  0.60275  0.78677     N
H       0.4741   0.1162   0.0179     H
C      0.47476    0.686   0.3312     C
N      0.47636  0.63288  0.85765     N
H       0.4772   0.6771    0.597     H
C      0.47766  0.78771  0.02813     C
O      0.47767  0.26812  0.10913     O
H      0.48037  0.92113  0.73553     H
O      0.48128  0.25837  0.92777     O
H      0.48147  0.78303  0.10323     H
C      0.48236  0.69935   0.4408     C
H       0.4836   0.7063   0.2737     H
C      0.48623  0.25222  0.02587     C
Zn     0.48647   0.1353  0.55666    Zn
C       0.4878  0.77183   0.4281     C
H      0.48977  0.88303  0.72893     H
N      0.48986  0.19031  0.52432     N
C      0.49037   0.7834  0.83703     C
H      0.49387  0.60513  0.74543     H
C      0.49423  0.77422  0.94623     C
H      0.49733  0.22457  0.22007     H
C      0.49935  0.25574   0.5304     C
H       0.4994   0.1211   0.8011     H
H       0.5006   0.8789   0.1989     H
C      0.50065  0.74426   0.4696     C
H      0.50267  0.77543  0.77993     H
C      0.50577  0.22578  0.05377     C
H      0.50613  0.39487  0.25457     H
C      0.50963   0.2166  0.16297     C
N      0.51014  0.80969  0.47568     N
H      0.51023  0.11697  0.27107     H
C       0.5122  0.22817   0.5719     C
Zn     0.51353   0.8647  0.44334    Zn
C      0.51377  0.74778  0.97413     C
H       0.5164   0.2937   0.7263     H
C      0.51764  0.30065   0.5592     C
H      0.51853  0.21697  0.89677     H
O      0.51872  0.74163  0.07223     O
H      0.51963  0.07887  0.26447     H
O      0.52233  0.73188  0.89087     O
C      0.52234  0.21229  0.97187     C
H       0.5228   0.3229    0.403     H
N      0.52364  0.36712  0.14235     N
C      0.52524    0.314   0.6688     C
H       0.5259   0.8838   0.9821     H
N      0.52694  0.39725  0.21323     N
N      0.52783  0.88945  0.20819     N
C      0.52925   0.3313   0.4779     C
H       0.5309   0.9286   0.0123     H
C      0.53128  0.19592  0.18877     C
Zn     0.53137   0.6845  0.88999    Zn
C      0.53148  0.10866  0.28337     C
C      0.53203  0.76747    0.546     C
H      0.53323  0.18947  0.26367     H
H       0.5357   0.2138   0.7086     H
N      0.53697  0.80639  0.54656     N
H      0.54003  0.11307  0.36097     H
O      0.54289  0.14434  0.55754     O
O      0.54421  0.90568  0.55525     O
C      0.54457  0.19191  0.99787     C
C      0.54499  0.91181   0.0123     C
H      0.54557  0.71163  0.13443     H
C      0.54562  0.35661   0.6948     C
N      0.54614  0.88952  0.30567     N
C      0.54676  0.23599   0.6523     C
O      0.54701  0.63541  0.67821     O
H      0.54713  0.34477  0.95807     H
H       0.5497   0.7266   0.6044     H
C      0.54993  0.37363   0.5037     C
H       0.5503   0.3651   0.7699     H
C      0.55032  0.18431  0.10747     C
H      0.55047  0.69123  0.35123     H
H      0.55317  0.60763  0.93043     H
H       0.5536   0.7603   0.6943     H
H       0.5554   0.8272   0.5879     H
H      0.55603  0.18307  0.94037     H
N      0.55612  0.69495  0.12514     N
N      0.55619  0.67671  0.02766     N
O      0.55625  0.14795   0.7389     O
C      0.55668  0.90758   0.1276     C
H       0.5571   0.2635   0.6877     H
H       0.5579   0.3939   0.4466     H
C      0.55801  0.75616   0.6167     C
C      0.55911  0.38667   0.6129     C
H      0.55923  0.48037  0.26447     H
H      0.56057  0.60543  0.32713     H
C       0.5615  0.38264  0.09477     C
C      0.56586  0.43123  0.21267     C
C      0.56735   0.1529   0.6408     C
H      0.56853  0.97887  0.59037     H
C      0.56877  0.13464  0.21267     C
H      0.56903  0.33247  0.05377     H
C      0.56932   0.3559  0.01437     C
H       0.5699   0.2357   0.6129     H
H       0.5705   0.9258   0.9669     H
C      0.57059  0.90846  0.62897     C
O      0.57234   0.6948  0.77809     O
H      0.57303  0.45997  0.36097     H
C      0.57425  0.68423  0.20573     C
C      0.57506  0.65418  0.04703     C
C      0.57512   0.6712  0.70437     C
C      0.57694  0.16602  0.13627     C
C      0.57717  0.46852  0.28337     C
O      0.57827  0.88035  0.65513     O
C      0.57848  0.70015  0.32103     C
C      0.58078  0.62883  0.95893     C
C      0.58555  0.43265   0.6408     C
C      0.58663  0.60915  0.30113     C
C      0.58685  0.65787  0.15823     C
C      0.58745  0.98337  0.64917     C
C      0.58754  0.90839   0.2863     C
H       0.5878   0.7741   0.5978     H
C      0.58907  0.42306  0.13627     C
H      0.58967  0.56853  0.40963     H
O       0.5917  0.44375   0.7389     O
H      0.59247  0.68863  0.36643     H
C       0.5934  0.95064  0.68517     C
H      0.59527  0.61473  0.98983     H
H      0.59527  0.73103  0.32103     H
C      0.59564  0.92018   0.1751     C
H      0.59683  0.37307  0.97897     H
H      0.59767  0.64753  0.89883     H
O      0.60145  0.45711  0.55754     O
H      0.60183  0.64357  0.53647     H
H       0.6023   0.5309   0.9877     H
N      0.60275   0.1297  0.21323     N
C      0.60409  0.58745  0.35083     C
H      0.60513  0.11127  0.25457     H
H      0.60543  0.04487  0.67287     H
H       0.6061    0.164   0.4466     H
H      0.60673  0.48977  0.27107     H
C      0.60682  0.63632  0.21333     C
H      0.60763  0.05447  0.06957     H
C      0.60915  0.02253  0.69887     C
H       0.6122   0.8865   0.4029     H
C      0.61333  0.17244   0.6129     C
H      0.61473  0.01947  0.01017     H
H       0.6168    0.931   0.4345     H
C       0.6173  0.69057  0.64817     C
C      0.61736  0.17887  0.09477     C
C      0.61861  0.91411   0.3744     C
C      0.62066  0.95732  0.77227     C
H       0.6217   0.5006   0.8011     H
H       0.6218   0.8939   0.0062     H
C      0.62398  0.66999  0.56107     C
H      0.62493  0.93517  0.79687     H
C      0.62637   0.1763   0.5037     C
H      0.62693  0.22377  0.97897     H
H      0.62703  0.44397  0.94037     H
C      0.62883  0.04806  0.04107     C
N      0.63288  0.15653  0.14235     N
C      0.63318  0.54499   0.9877     C
C      0.63398  0.44968  0.10747     C
H       0.6349   0.1852   0.7699     H
O      0.63541  0.08839  0.32179     O
C      0.63632  0.02951  0.78667     C
C      0.63716  0.94015     0.12     C
N      0.63838  0.52783  0.79181     N
O      0.63854  0.54421  0.44475     O
C      0.64171  0.99642  0.82357     C
H       0.6421   0.5259   0.0179     H
C      0.64277   0.5934  0.31483     C
C      0.64339  0.18901   0.6948     C
H      0.64357  0.04173  0.46353     H
C       0.6441  0.21343  0.01437     C
C      0.64414  0.91996   0.0322     C
H       0.6447   0.5705   0.0331     H
C       0.6453  0.64171  0.17643     C
H      0.64553  0.74367  0.74297     H
H       0.6472   0.9286   0.3435     H
C      0.64733  0.45543  0.99787     C
H      0.64753  0.04987  0.10117     H
Zn     0.64883  0.51353  0.55666    Zn
C       0.6491  0.55668   0.8724     C
C      0.65003  0.72925  0.68417     C
C      0.65418  0.07913  0.95297     C
H      0.65523  0.20237  0.95807     H
H      0.65623  0.46677  0.26367     H
N      0.65662  0.54614  0.69433     N
C      0.65787  0.07103  0.84177     C
H      0.65927  0.65993  0.11603     H
H      0.65993  0.00067  0.88397     H
C      0.66214  0.57059  0.37103     C
C      0.66308  0.68804  0.50977     C
C      0.66335  0.62066  0.22773     C
C      0.66463  0.46872  0.18877     C
H       0.6658   0.4301   0.6129     H
H        0.666   0.9926   0.2173     H
H      0.66733  0.67407  0.44937     H
H      0.66753  0.23657  0.05377     H
C       0.6687  0.19795   0.4779     C
C      0.66999    0.046  0.43893     C
C      0.67025  0.97863   0.1569     C
C       0.6712  0.09607  0.29563     C
H       0.6734    0.666   0.7827     H
H      0.67407  0.00673  0.55063     H
C      0.67546  0.59564   0.8249     C
N      0.67671  0.12053  0.97234     N
H       0.6771   0.1999    0.403     H
H       0.6781   0.4643   0.7086     H
C      0.67915  0.58754   0.7137     C
C       0.6833  0.93742   0.9825     C
C      0.68423  0.10999  0.79427     C
Zn      0.6845  0.15314  0.11001    Zn
H       0.6858   0.6168   0.5655     H
C        0.686  0.21124   0.6688     C
H      0.68613  0.73807  0.32317     H
H       0.6878    0.923   0.9237     H
C      0.68804  0.02495  0.49023     C
H      0.68863  0.09617  0.63357     H
C      0.68919  0.74671  0.63447     C
C      0.68923  0.45324   0.6523     C
H      0.68977  0.62493  0.20313     H
C      0.68994  0.47766  0.97187     C
C      0.69057  0.07326  0.35183     C
H      0.69123  0.14077  0.64877     H
C      0.69162  0.67025   0.8431     C
O       0.6948  0.12245  0.22191     O
N      0.69495  0.13884  0.87486     N
C      0.69617  0.72652  0.54667     C
C      0.69701  0.63716     0.88     C
O      0.69793  0.57827  0.34487     O
H      0.69843  0.48147  0.89677     H
C      0.69935  0.21699   0.5592     C
C      0.70015  0.12168  0.67897     C
N      0.70045  0.51014  0.52432     N
C       0.7045  0.61861   0.6256     C
H       0.7063   0.2227   0.7263     H
H       0.7064   0.4429   0.6877     H
C      0.70696  0.49037  0.16297     C
H       0.7084   0.7315   0.8698     H
C      0.70935  0.99668   0.1056     C
H      0.71153  0.77277  0.66047     H
H      0.71163  0.16607  0.86557     H
C      0.71267  0.70935   0.8944     C
C      0.71472  0.75256  0.29227     C
C      0.71597   0.4878   0.5719     C
C      0.71603   0.9761   0.0185     C
H      0.71653  0.73567  0.23217     H
H       0.7186   0.6472   0.6565     H
C         0.72  0.49423  0.05377     C
H      0.72113  0.78017  0.26377     H
C      0.72418  0.64414   0.9678     C
H       0.7257   0.6122   0.5971     H
C      0.72652  0.03034  0.45333     C
H       0.7266   0.1769   0.3956     H
H      0.72723  0.50267  0.22007     H
H       0.7279   0.6218   0.9938     H
H       0.7282   0.5554   0.4121     H
C      0.72925  0.07921  0.31583     C
N      0.73058  0.53697  0.45344     N
H      0.73103  0.13577  0.67897     H
H       0.7315   0.0231   0.1302     H
O      0.73188  0.20956  0.10913     O
H      0.73567  0.01913  0.76783     H
H       0.7365   0.2936   0.6877     H
C      0.73769  0.74649  0.49157     C
H      0.73807  0.05193  0.67683     H
H      0.73807  0.93563  0.34563     H
C      0.73993  0.71603   0.9815     C
H      0.74087  0.97803  0.30023     H
O      0.74163  0.22292  0.92777     O
H      0.74367  0.09813  0.25703     H
C      0.74426  0.24361   0.5304     C
H      0.74553  0.89257  0.06887     H
C      0.74579  0.75828  0.38037     C
C      0.74588   0.6833   0.0175     C
C      0.74649  0.00879  0.50843     C
C      0.74671  0.05751  0.36553     C
C      0.74778  0.23402  0.02587     C
C      0.75256  0.03783  0.70773     C
C      0.75486  0.96651  0.34563     C
O      0.75506  0.78632  0.01154     O
C      0.75616  0.19815   0.3833     C
C      0.75639  0.50065   0.5304     C
C      0.75821  0.99547   0.9623     C
C      0.75828  0.01248  0.61963     C
C      0.75909  0.98243  0.46093     C
H       0.7603   0.2067   0.3057     H
O      0.76099  0.97187  0.88858     O
C      0.76274  0.75821   0.0377     C
H      0.76283  0.74087  0.69977     H
H      0.76343  0.43097  0.05377     H
C      0.76401  0.31077   0.6523     C
H       0.7643   0.3342   0.6129     H
C      0.76456  0.53203    0.454     C
H       0.7648   0.6878   0.0763     H
C      0.76598  0.51377  0.02587     C
C      0.76747  0.23544    0.454     C
C      0.77183  0.28403   0.5719     C
H      0.77277  0.06123  0.33953     H
H       0.7741   0.1863   0.4022     H
C      0.77422     0.28  0.05377     C
C      0.77532  0.91051  0.04997     C
H      0.77543  0.27277  0.22007     H
H      0.77623  0.40317  0.97897     H
C      0.77665  0.75909  0.53907     C
O      0.77708  0.51872  0.92777     O
N      0.77715  0.98995    0.639     N
N      0.77722  0.97171  0.54152     N
H       0.7773   0.4836   0.7263     H
H      0.77793  0.83947  0.07877     H
H      0.77973  0.90637  0.97237     H
H      0.78017  0.05903  0.73623     H
H      0.78287  0.97543  0.31543     H
C      0.78301  0.48236   0.5592     C
H      0.78303  0.30157  0.89677     H
C       0.7834  0.29304  0.16297     C
H      0.78363  0.94007  0.06227     H
H       0.7862   0.3219   0.7086     H
O      0.78632  0.03126  0.98846     O
C      0.78657  0.43068  0.01437     C
N      0.78719  0.77715    0.361     N
C      0.78771  0.31006  0.97187     C
H      0.78777  0.95503  0.53223     H
C      0.78834  0.75486  0.65437     C
C      0.78876  0.47476   0.6688     C
O      0.78912  0.76099  0.11142     O
O      0.79044  0.52233  0.10913     O
H       0.7933   0.5536   0.3057     H
N      0.79636  0.86028  0.12011     N
H      0.79763  0.45287  0.95807     H
H       0.8001   0.4772    0.403     H
C       0.8013   0.8992  0.12067     C
C      0.80185  0.55801   0.3833     C
Zn     0.80197  0.98216  0.77667    Zn
C      0.80205  0.47075   0.4779     C
H      0.80243  0.73807  0.65437     H
C      0.80408  0.33537  0.18877     C
N       0.8055  0.77722  0.45848     N
N      0.80639  0.26942  0.45344     N
H      0.80743  0.78287  0.68457     H
C      0.80809  0.35267  0.99787     C
N      0.80969  0.29955  0.52432     N
H      0.81053  0.34377  0.26367     H
C      0.81099  0.45438   0.6948     C
O      0.81101  0.93478  0.77579     O
H       0.8137   0.5878   0.4022     H
O      0.81462  0.92503  0.59443     O
H       0.8148   0.4497   0.7699     H
C      0.81569  0.36602  0.10747     C
H      0.81693  0.37297  0.94037     H
C      0.81957  0.91888  0.69253     C
Zn      0.8198  0.80197  0.22333    Zn
C      0.82113   0.4385  0.09477     C
H       0.8231   0.5497   0.3956     H
N      0.82319  0.85698  0.19099     N
C       0.8237  0.45007   0.5037     C
H       0.8272   0.2718   0.4121     H
C      0.82756  0.44089   0.6129     C
H      0.83067  0.89123  0.88673     H
C      0.83268  0.92241  0.19707     C
H      0.83273  0.78777  0.46777     H
H      0.83393  0.54557  0.86557     H
C      0.83398  0.41093  0.13627     C
H        0.836   0.4421   0.4466     H
C      0.83911  0.89244  0.72043     C
H      0.83947  0.06153  0.92123     H
C      0.84297  0.88326  0.82963     C
N      0.84347  0.47636  0.14235     N
H      0.84357  0.78363  0.93773     H
C      0.84553  0.89484  0.23857     C
Zn     0.84686  0.53137  0.11001    Zn
C       0.8471  0.41445   0.6408     C
H      0.84973  0.96037  0.39297     H
C      0.85097  0.96732  0.22587     C
H      0.85187  0.88363  0.56343     H
O      0.85205   0.4083   0.7389     O
H      0.85297  0.74553  0.93113     H
O      0.85566  0.39855  0.55754     O
C      0.85568  0.87895  0.63853     C
H      0.85613  0.98957  0.06967     H
N      0.85698  0.03378  0.80901     N
C      0.85857  0.98067  0.33547     C
H      0.85923  0.55047  0.64877     H
N      0.86028  0.06391  0.87989     N
N      0.86116  0.55612  0.87486     N
C      0.86258  0.99797  0.14457     C
H      0.86423  0.59527  0.67897     H
C      0.86462  0.86258  0.85543     C
Zn      0.8647  0.35117  0.55666    Zn
C      0.86482  0.77532  0.95003     C
C      0.86536  0.43414  0.21267     C
H      0.86657  0.85613  0.93033     H
H      0.86903  0.88047  0.37527     H
N       0.8703  0.47306  0.21323     N
H      0.87337  0.77973  0.02763     H
O      0.87622  0.81101  0.22421     O
O      0.87755  0.57234  0.22191     O
C      0.87791  0.85857  0.66453     C
C      0.87832  0.57848  0.67897     C
H       0.8789   0.3783   0.8011     H
C      0.87895  0.02328  0.36147     C
N      0.87947  0.55619  0.97234     N
C      0.88009  0.90266  0.31897     C
O      0.88035  0.30207  0.34487     O
H      0.88047  0.01143  0.62473     H
H      0.88303  0.39327  0.27107     H
C      0.88326   0.0403  0.17037     C
H      0.88363  0.03177  0.43657     H
C      0.88366  0.85097  0.77413     C
H       0.8838   0.3579   0.0179     H
H       0.8865   0.2743   0.5971     H
H      0.88693  0.42697  0.36097     H
H      0.88873  0.49387  0.25457     H
H      0.88937  0.84973  0.60703     H
N      0.88945  0.36162  0.79181     N
N      0.88952  0.34338  0.69433     N
O      0.88958  0.81462  0.40557     O
C      0.89001  0.57425  0.79427     C
H      0.89043  0.93017  0.35437     H
H      0.89123  0.06057  0.11327     H
C      0.89134  0.42283  0.28337     C
C      0.89244  0.05334  0.27957     C
H      0.89257  0.14703  0.93113     H
H       0.8939   0.2721   0.9938     H
C      0.89484   0.0493  0.76143     C
C       0.8992  0.09789  0.87933     C
C      0.90068  0.81957  0.30747     C
H      0.90187  0.64553  0.25703     H
C      0.90211   0.8013  0.87933     C
H      0.90237  0.99913  0.72043     H
C      0.90266  0.02256  0.68103     C
H      0.90323  0.90237  0.27957     H
H      0.90383  0.59247  0.63357     H
C      0.90393  0.57512  0.29563     C
O      0.90568  0.36146  0.44475     O
H      0.90637  0.12663  0.02763     H
C      0.90758   0.3509   0.8724     C
C      0.90839  0.32085   0.7137     C
C      0.90846  0.33786  0.37103     C
C      0.91028  0.83268  0.80293     C
C      0.91051  0.13518  0.95003     C
O      0.91161  0.54701  0.32179     O
C      0.91181  0.36682   0.9877     C
C      0.91411   0.2955   0.6256     C
C      0.91888  0.09932  0.30747     C
C      0.91996  0.27582   0.9678     C
C      0.92018  0.32454   0.8249     C
C      0.92079  0.65003  0.31583     C
C      0.92087  0.57506  0.95297     C
H      0.92113  0.44077  0.26447     H
C      0.92241  0.08972  0.80293     C
H        0.923   0.2352   0.0763     H
O      0.92503  0.11042  0.40557     O
H       0.9258   0.3553   0.0331     H
C      0.92674   0.6173  0.35183     C
H       0.9286   0.2814   0.6565     H
H       0.9286   0.3977   0.9877     H
C      0.92897  0.58685  0.84177     C
H      0.93017  0.03973  0.64563     H
H        0.931   0.3142   0.5655     H
O      0.93478  0.12378  0.22421     O
H      0.93517  0.31023  0.20313     H
H      0.93563  0.19757  0.65437     H
N      0.93609  0.79636  0.87989     N
C      0.93742  0.25412   0.0175     C
H      0.93847  0.77793  0.92123     H
H      0.93877  0.71153  0.33953     H
H      0.93943  0.83067  0.11327     H
H      0.94007  0.15643  0.93773     H
C      0.94015  0.30299     0.88     C
H      0.94097  0.72113  0.73623     H
C      0.94249  0.68919  0.36553     C
H      0.94553  0.55317  0.06957     H
C      0.94666  0.83911  0.27957     C
H      0.94807  0.68613  0.67683     H
H      0.95013  0.59767  0.10117     H
C      0.95064  0.35723  0.31483     C
C       0.9507  0.84553  0.76143     C
C      0.95194  0.58078  0.04107     C
C        0.954  0.62398  0.43893     C
H      0.95503  0.16727  0.46777     H
H      0.95513  0.56057  0.67287     H
C      0.95732  0.33665  0.22773     C
H      0.95827  0.60183  0.46353     H
C       0.9597  0.84297  0.17037     C
H      0.96027  0.89043  0.64563     H
H      0.96037  0.11063  0.60703     H
C      0.96217  0.71472  0.70773     C
N      0.96622  0.82319  0.80901     N
C      0.96651  0.21166  0.65437     C
C      0.96732  0.11634  0.77413     C
H      0.96823  0.85187  0.43657     H
O      0.96874  0.75506  0.98846     O
C      0.96966  0.69617  0.45333     C
C      0.97049  0.60682  0.78667     C
N      0.97171   0.1945  0.45848     N
O      0.97187  0.21088  0.11142     O
C      0.97505  0.66308  0.49023     C
H      0.97543  0.19257  0.68457     H
C       0.9761  0.26007   0.9815     C
C      0.97672  0.85568  0.36147     C
H       0.9769   0.7084   0.1302     H
C      0.97744  0.88009  0.68103     C
C      0.97747  0.58663  0.69887     C
H      0.97803  0.23717  0.69977     H
C      0.97863  0.30838   0.8431     C
H      0.97887  0.41033  0.40963     H
H      0.98053  0.59527  0.01017     H
C      0.98067  0.12209  0.66453     C
H      0.98087  0.71653  0.76783     H
Zn     0.98216   0.1802  0.22333    Zn
C      0.98243  0.22335  0.53907     C
C      0.98337  0.39591  0.35083     C
C      0.98752  0.74579  0.61963     C
H      0.98857  0.86903  0.62473     H
H      0.98957  0.13343  0.93033     H
N      0.98995  0.21281    0.361     N
C      0.99121  0.73769  0.50843     C
H       0.9926   0.3266   0.7827     H
H      0.99327  0.66733  0.55063     H
C      0.99547  0.23726   0.0377     C
C      0.99642   0.3547  0.17643     C
C      0.99668  0.28733   0.8944     C
C      0.99797  0.13538  0.85543     C
H      0.99913  0.09677  0.27957     H
H      0.99933  0.65927  0.88397     H
