data_I
_chemical_name_common  '/home/zhangsd/repos/MofS-CGCNN/ML/data/TSD/clean_cifs/GEGDED_clean'
_cell_length_a 12.24730
_cell_length_b 25.91400
_cell_length_c 25.91410
_cell_angle_alpha 90.00000
_cell_angle_beta  90.00000
_cell_angle_gamma 90.00000
_space_group_name_H-M_alt      'P 1'


loop_
_space_group_symop_operation_xyz
  'x, y, z' 

loop_
_atom_site_label
_atom_site_fract_x
_atom_site_fract_y
_atom_site_fract_z
_atom_site_type_symbol
H       0.0018   0.6244   0.1311     H
H       0.0018   0.6244   0.3689     H
H       0.0018   0.8756   0.6311     H
H       0.0018   0.8756   0.8689     H
O       0.0019  0.55159   0.0707     O
O       0.0019  0.55159   0.4293     O
O       0.0019  0.94841   0.5707     O
O       0.0019  0.94841   0.9293     O
Cu     0.00464  0.20295     0.75    Cu
Cu     0.00464  0.29705     0.25    Cu
C       0.0343    0.214  0.18098     C
C       0.0343    0.214  0.31902     C
C       0.0343    0.286  0.68098     C
C       0.0343    0.286  0.81902     C
O       0.0371  0.55218   0.5627     O
O       0.0371  0.55218   0.9373     O
O       0.0371  0.94782   0.0627     O
O       0.0371  0.94782   0.4373     O
O       0.0529  0.69264  0.19693     O
O       0.0529  0.69264  0.30307     O
O       0.0529  0.80736  0.69693     O
O       0.0529  0.80736  0.80307     O
C         0.06   0.1419  0.11755     C
C         0.06   0.1419  0.38245     C
C         0.06   0.3581  0.61755     C
C         0.06   0.3581  0.88245     C
O       0.0721  0.24487  0.69809     O
O       0.0721  0.24487  0.80191     O
O       0.0721  0.25513  0.19809     O
O       0.0721  0.25513  0.30191     O
Cu     0.07411  0.00601  0.53674    Cu
Cu     0.07411  0.00601  0.96326    Cu
Cu     0.07411  0.49399  0.03674    Cu
Cu     0.07411  0.49399  0.46326    Cu
C        0.078  0.07323  0.05025     C
C        0.078  0.07323  0.44975     C
C        0.078  0.42677  0.55025     C
C        0.078  0.42677  0.94975     C
O        0.083   0.6732  0.69778     O
O        0.083   0.6732  0.80222     O
O        0.083   0.8268  0.19778     O
O        0.083   0.8268  0.30222     O
C       0.0948   0.1884  0.13875     C
C       0.0948   0.1884  0.36125     C
C       0.0948   0.3116  0.63875     C
C       0.0948   0.3116  0.86125     C
H       0.0977   0.6144    0.629     H
H       0.0977   0.6144    0.871     H
H       0.0977   0.8856    0.129     H
H       0.0977   0.8856    0.371     H
C       0.1185  0.12139  0.07543     C
C       0.1185  0.12139  0.42457     C
C       0.1185  0.37861  0.57543     C
C       0.1185  0.37861  0.92457     C
O       0.1246  0.06088  0.00899     O
O       0.1246  0.06088  0.49101     O
O       0.1246  0.43912  0.50899     O
O       0.1246  0.43912  0.99101     O
C       0.1275  0.56322  0.54064     C
C       0.1275  0.56322  0.95936     C
C       0.1275  0.93678  0.04064     C
C       0.1275  0.93678  0.45936     C
Cu     0.14575  0.72377     0.25    Cu
Cu     0.14575  0.77623     0.75    Cu
C       0.1584   0.6284  0.61101     C
C       0.1584   0.6284  0.88899     C
C       0.1584   0.8716  0.11101     C
C       0.1584   0.8716  0.38899     C
O        0.163  0.54371    7e-05     O
O        0.163  0.54371  0.49993     O
O        0.163  0.95629  0.50007     O
O        0.163  0.95629  0.99993     O
C       0.1679   0.6958  0.67974     C
C       0.1679   0.6958  0.82026     C
C       0.1679   0.8042  0.17974     C
C       0.1679   0.8042  0.32026     C
C       0.1866   0.2136  0.11941     C
C       0.1866   0.2136  0.38059     C
C       0.1866   0.2864  0.61941     C
C       0.1866   0.2864  0.88059     C
C       0.1914   0.6064  0.56434     C
C       0.1914   0.6064  0.93566     C
C       0.1914   0.8936  0.06434     C
C       0.1914   0.8936  0.43566     C
C       0.2086    0.147  0.05558     C
C       0.2086    0.147  0.44442     C
C       0.2086    0.353  0.55558     C
C       0.2086    0.353  0.94442     C
H       0.2112   0.2446   0.1351     H
H       0.2112   0.2446   0.3649     H
H       0.2112   0.2554   0.6351     H
H       0.2112   0.2554   0.8649     H
C       0.2125  0.66977  0.63089     C
C       0.2125  0.66977  0.86911     C
C       0.2125  0.83023  0.13089     C
C       0.2125  0.83023  0.36911     C
O       0.2167  0.73454  0.69596     O
O       0.2167  0.73454  0.80404     O
O       0.2167  0.76546  0.19596     O
O       0.2167  0.76546  0.30404     O
C       0.2421   0.1936  0.07741     C
C       0.2421   0.1936  0.42259     C
C       0.2421   0.3064  0.57741     C
C       0.2421   0.3064  0.92259     C
H       0.2475   0.1328   0.0272     H
H       0.2475   0.1328   0.4728     H
H       0.2475   0.3672   0.5272     H
H       0.2475   0.3672   0.9728     H
C       0.2788   0.6271  0.53974     C
C       0.2788   0.6271  0.96026     C
C       0.2788   0.8729  0.03974     C
C       0.2788   0.8729  0.46026     C
C       0.3006   0.6907  0.60532     C
C       0.3006   0.6907  0.89468     C
C       0.3006   0.8093  0.10532     C
C       0.3006   0.8093  0.39468     C
H       0.3023   0.6122   0.5082     H
H       0.3023   0.6122   0.9918     H
H       0.3023   0.8878   0.0082     H
H       0.3023   0.8878   0.4918     H
O       0.3256  0.22237  0.06031     O
O       0.3256  0.22237  0.43969     O
O       0.3256  0.27763  0.56031     O
O       0.3256  0.27763  0.93969     O
C       0.3338  0.66854  0.55876     C
C       0.3338  0.66854  0.94124     C
C       0.3338  0.83146  0.05876     C
C       0.3338  0.83146  0.44124     C
H       0.3359   0.1947   0.5117     H
H       0.3359   0.1947   0.9883     H
H       0.3359   0.3053   0.0117     H
H       0.3359   0.3053   0.4883     H
H       0.3381   0.7197   0.6191     H
H       0.3381   0.7197   0.8809     H
H       0.3381   0.7803   0.1191     H
H       0.3381   0.7803   0.3809     H
C        0.386  0.20473  0.01653     C
C        0.386  0.20473  0.48347     C
C        0.386  0.29527  0.51653     C
C        0.386  0.29527  0.98347     C
O       0.4151  0.68672   0.5293     O
O       0.4151  0.68672   0.9707     O
O       0.4151  0.81328   0.0293     O
O       0.4151  0.81328   0.4707     O
H       0.4153   0.7409   0.0537     H
H       0.4153   0.7409   0.4463     H
H       0.4153   0.7591   0.5537     H
H       0.4153   0.7591   0.9463     H
H       0.4315   0.1746   0.0258     H
H       0.4315   0.1746   0.4742     H
H       0.4315   0.3254   0.5258     H
H       0.4315   0.3254   0.9742     H
C       0.4577     0.25      0.0     C
C       0.4577     0.25      0.5     C
C       0.4691    0.732  0.54503     C
C       0.4691    0.732  0.95497     C
C       0.4691    0.768  0.04503     C
C       0.4691    0.768  0.45497     C
H       0.4858    0.225    0.576     H
H       0.4858    0.225    0.924     H
H       0.4858    0.275    0.076     H
H       0.4858    0.275    0.424     H
H       0.5142    0.725    0.576     H
H       0.5142    0.725    0.924     H
H       0.5142    0.775    0.076     H
H       0.5142    0.775    0.424     H
C       0.5309    0.232  0.54503     C
C       0.5309    0.232  0.95497     C
C       0.5309    0.268  0.04503     C
C       0.5309    0.268  0.45497     C
C       0.5423     0.75      0.0     C
C       0.5423     0.75      0.5     C
H       0.5685   0.6746   0.0258     H
H       0.5685   0.6746   0.4742     H
H       0.5685   0.8254   0.5258     H
H       0.5685   0.8254   0.9742     H
H       0.5847   0.2409   0.0537     H
H       0.5847   0.2409   0.4463     H
H       0.5847   0.2591   0.5537     H
H       0.5847   0.2591   0.9463     H
O       0.5849  0.18672   0.5293     O
O       0.5849  0.18672   0.9707     O
O       0.5849  0.31328   0.0293     O
O       0.5849  0.31328   0.4707     O
C        0.614  0.70473  0.01653     C
C        0.614  0.70473  0.48347     C
C        0.614  0.79527  0.51653     C
C        0.614  0.79527  0.98347     C
H       0.6619   0.2197   0.6191     H
H       0.6619   0.2197   0.8809     H
H       0.6619   0.2803   0.1191     H
H       0.6619   0.2803   0.3809     H
H       0.6641   0.6947   0.5117     H
H       0.6641   0.6947   0.9883     H
H       0.6641   0.8053   0.0117     H
H       0.6641   0.8053   0.4883     H
C       0.6662  0.16854  0.55876     C
C       0.6662  0.16854  0.94124     C
C       0.6662  0.33146  0.05876     C
C       0.6662  0.33146  0.44124     C
O       0.6744  0.72237  0.06031     O
O       0.6744  0.72237  0.43969     O
O       0.6744  0.77763  0.56031     O
O       0.6744  0.77763  0.93969     O
H       0.6977   0.1122   0.5082     H
H       0.6977   0.1122   0.9918     H
H       0.6977   0.3878   0.0082     H
H       0.6977   0.3878   0.4918     H
C       0.6994   0.1907  0.60532     C
C       0.6994   0.1907  0.89468     C
C       0.6994   0.3093  0.10532     C
C       0.6994   0.3093  0.39468     C
C       0.7212   0.1271  0.53974     C
C       0.7212   0.1271  0.96026     C
C       0.7212   0.3729  0.03974     C
C       0.7212   0.3729  0.46026     C
H       0.7525   0.6328   0.0272     H
H       0.7525   0.6328   0.4728     H
H       0.7525   0.8672   0.5272     H
H       0.7525   0.8672   0.9728     H
C       0.7579   0.6936  0.07741     C
C       0.7579   0.6936  0.42259     C
C       0.7579   0.8064  0.57741     C
C       0.7579   0.8064  0.92259     C
O       0.7833  0.23454  0.69596     O
O       0.7833  0.23454  0.80404     O
O       0.7833  0.26546  0.19596     O
O       0.7833  0.26546  0.30404     O
C       0.7875  0.16977  0.63089     C
C       0.7875  0.16977  0.86911     C
C       0.7875  0.33023  0.13089     C
C       0.7875  0.33023  0.36911     C
H       0.7888   0.7446   0.1351     H
H       0.7888   0.7446   0.3649     H
H       0.7888   0.7554   0.6351     H
H       0.7888   0.7554   0.8649     H
C       0.7914    0.647  0.05558     C
C       0.7914    0.647  0.44442     C
C       0.7914    0.853  0.55558     C
C       0.7914    0.853  0.94442     C
C       0.8086   0.1064  0.56434     C
C       0.8086   0.1064  0.93566     C
C       0.8086   0.3936  0.06434     C
C       0.8086   0.3936  0.43566     C
C       0.8134   0.7136  0.11941     C
C       0.8134   0.7136  0.38059     C
C       0.8134   0.7864  0.61941     C
C       0.8134   0.7864  0.88059     C
C       0.8321   0.1958  0.67974     C
C       0.8321   0.1958  0.82026     C
C       0.8321   0.3042  0.17974     C
C       0.8321   0.3042  0.32026     C
O        0.837  0.04371    7e-05     O
O        0.837  0.04371  0.49993     O
O        0.837  0.45629  0.50007     O
O        0.837  0.45629  0.99993     O
C       0.8416   0.1284  0.61101     C
C       0.8416   0.1284  0.88899     C
C       0.8416   0.3716  0.11101     C
C       0.8416   0.3716  0.38899     C
Cu     0.85425  0.22377     0.25    Cu
Cu     0.85425  0.27623     0.75    Cu
C       0.8725  0.06322  0.54064     C
C       0.8725  0.06322  0.95936     C
C       0.8725  0.43678  0.04064     C
C       0.8725  0.43678  0.45936     C
O       0.8754  0.56088  0.00899     O
O       0.8754  0.56088  0.49101     O
O       0.8754  0.93912  0.50899     O
O       0.8754  0.93912  0.99101     O
C       0.8815  0.62139  0.07543     C
C       0.8815  0.62139  0.42457     C
C       0.8815  0.87861  0.57543     C
C       0.8815  0.87861  0.92457     C
H       0.9023   0.1144    0.629     H
H       0.9023   0.1144    0.871     H
H       0.9023   0.3856    0.129     H
H       0.9023   0.3856    0.371     H
C       0.9052   0.6884  0.13875     C
C       0.9052   0.6884  0.36125     C
C       0.9052   0.8116  0.63875     C
C       0.9052   0.8116  0.86125     C
O        0.917   0.1732  0.69778     O
O        0.917   0.1732  0.80222     O
O        0.917   0.3268  0.19778     O
O        0.917   0.3268  0.30222     O
C        0.922  0.57323  0.05025     C
C        0.922  0.57323  0.44975     C
C        0.922  0.92677  0.55025     C
C        0.922  0.92677  0.94975     C
Cu     0.92589  0.50601  0.53674    Cu
Cu     0.92589  0.50601  0.96326    Cu
Cu     0.92589  0.99399  0.03674    Cu
Cu     0.92589  0.99399  0.46326    Cu
O       0.9279  0.74487  0.69809     O
O       0.9279  0.74487  0.80191     O
O       0.9279  0.75513  0.19809     O
O       0.9279  0.75513  0.30191     O
C         0.94   0.6419  0.11755     C
C         0.94   0.6419  0.38245     C
C         0.94   0.8581  0.61755     C
C         0.94   0.8581  0.88245     C
O       0.9471  0.19264  0.19693     O
O       0.9471  0.19264  0.30307     O
O       0.9471  0.30736  0.69693     O
O       0.9471  0.30736  0.80307     O
O       0.9629  0.05218   0.5627     O
O       0.9629  0.05218   0.9373     O
O       0.9629  0.44782   0.0627     O
O       0.9629  0.44782   0.4373     O
C       0.9657    0.714  0.18098     C
C       0.9657    0.714  0.31902     C
C       0.9657    0.786  0.68098     C
C       0.9657    0.786  0.81902     C
Cu     0.99536  0.70295     0.75    Cu
Cu     0.99536  0.79705     0.25    Cu
O       0.9981  0.05159   0.0707     O
O       0.9981  0.05159   0.4293     O
O       0.9981  0.44841   0.5707     O
O       0.9981  0.44841   0.9293     O
H       0.9982   0.1244   0.1311     H
H       0.9982   0.1244   0.3689     H
H       0.9982   0.3756   0.6311     H
H       0.9982   0.3756   0.8689     H
