data_I
_chemical_name_common  '/home/zhangsd/repos/MofS-CGCNN/ML/data/TSD/clean_cifs/GEGGEG01_clean'
_cell_length_a 13.58200
_cell_length_b 10.81730
_cell_length_c 14.70370
_cell_angle_alpha 90.00000
_cell_angle_beta  110.62800
_cell_angle_gamma 90.00000
_space_group_name_H-M_alt      'P 1'


loop_
_space_group_symop_operation_xyz
  'x, y, z' 

loop_
_atom_site_label
_atom_site_fract_x
_atom_site_fract_y
_atom_site_fract_z
_atom_site_type_symbol
H       0.0012   0.0681   0.7106     H
H       0.0012   0.4319   0.2106     H
C      0.01772    0.703  0.08363     C
C      0.01772    0.797  0.58363     C
C      0.03455   0.7412  0.67372     C
C      0.03455   0.7588  0.17372     C
H       0.0503    0.182    0.456     H
H       0.0503    0.318    0.956     H
C      0.05419   0.2223  0.79054     C
C      0.05419   0.2777  0.29054     C
C      0.05648   0.1243  0.72964     C
C      0.05648   0.3757  0.22964     C
H       0.0885   0.6416   0.9927     H
H       0.0885   0.8584   0.4927     H
C      0.10104   0.6787   0.0528     C
C      0.10104   0.8213   0.5528     C
C      0.13718   0.7062  0.73032     C
C      0.13718   0.7938  0.23032     C
C      0.13865   0.1959  0.31731     C
C      0.13865   0.3041  0.81731     C
H       0.1388   0.1301    0.358     H
H       0.1388   0.3699    0.858     H
H       0.1399   0.0433   0.6565     H
H       0.1399   0.4567   0.1565     H
C      0.14014   0.1094  0.69701     C
C      0.14014   0.3906  0.19701     C
H       0.1497   0.6672   0.7897     H
H       0.1497   0.8328   0.2897     H
C      0.20311  0.70917  0.11085     C
C      0.20311  0.79083  0.61085     C
C      0.22048  0.72933  0.69863     C
C      0.22048  0.77067  0.19863     C
C      0.22301   0.2096   0.2851     C
C      0.22301   0.2904   0.7851     C
C      0.22444   0.1918  0.72402     C
C      0.22444   0.3082  0.22402     C
O      0.28447  0.65317  0.99858     O
O      0.28447  0.84683  0.49858     O
C      0.29655  0.66676  0.08686     C
C      0.29655  0.83324  0.58686     C
O      0.30172  0.03083   0.3716     O
O      0.30172  0.46917   0.8716     O
C      0.31113  0.11726  0.31921     C
C      0.31113  0.38274  0.81921     C
O      0.31142  0.21592  0.60944     O
O      0.31142  0.28408  0.10944     O
C       0.3148   0.1683  0.68789     C
C       0.3148   0.3317  0.18789     C
C      0.32856  0.68307  0.75933     C
C      0.32856  0.81693  0.25933     C
O      0.36636  0.72275  0.84504     O
O      0.36636  0.77725  0.34504     O
O      0.37018  0.60398  0.72118     O
O      0.37018  0.89602  0.22118     O
O      0.37858  0.64716  0.15776     O
O      0.37858  0.85284  0.65776     O
O      0.38447  0.09582  0.73928     O
O      0.38447  0.40418  0.23928     O
O      0.38877   0.1363  0.29235     O
O      0.38877   0.3637  0.79235     O
Co     0.40941  0.59746  0.96114    Co
Co     0.40941  0.90254  0.46114    Co
O      0.46114  0.04184  0.56762     O
O      0.46114  0.45816  0.06762     O
Co      0.4959  0.51046  0.20765    Co
Co      0.4959  0.98954  0.70765    Co
Co      0.5041  0.01046  0.29235    Co
Co      0.5041  0.48954  0.79235    Co
O      0.53886  0.54184  0.93238     O
O      0.53886  0.95816  0.43238     O
Co     0.59059  0.09746  0.53886    Co
Co     0.59059  0.40254  0.03886    Co
O      0.61123   0.6363  0.20765     O
O      0.61123   0.8637  0.70765     O
O      0.61553  0.59582  0.76072     O
O      0.61553  0.90418  0.26072     O
O      0.62142  0.14716  0.34224     O
O      0.62142  0.35284  0.84224     O
O      0.62982  0.10398  0.77882     O
O      0.62982  0.39602  0.27882     O
O      0.63364  0.22275  0.65496     O
O      0.63364  0.27725  0.15496     O
C      0.67144  0.18307  0.74067     C
C      0.67144  0.31693  0.24067     C
C       0.6852   0.6683  0.81211     C
C       0.6852   0.8317  0.31211     C
O      0.68858  0.71592  0.89056     O
O      0.68858  0.78408  0.39056     O
C      0.68887  0.61726  0.18079     C
C      0.68887  0.88274  0.68079     C
O      0.69828  0.53083   0.1284     O
O      0.69828  0.96917   0.6284     O
C      0.70345  0.16676  0.41314     C
C      0.70345  0.33324  0.91314     C
O      0.71553  0.15317  0.50142     O
O      0.71553  0.34683  0.00142     O
C      0.77556   0.6918  0.77598     C
C      0.77556   0.8082  0.27598     C
C      0.77699   0.7096   0.2149     C
C      0.77699   0.7904   0.7149     C
C      0.77952  0.22933  0.80137     C
C      0.77952  0.27067  0.30137     C
C      0.79689  0.20917  0.38915     C
C      0.79689  0.29083  0.88915     C
H       0.8503   0.1672   0.7103     H
H       0.8503   0.3328   0.2103     H
C      0.85986   0.6094  0.80299     C
C      0.85986   0.8906  0.30299     C
H       0.8601   0.5433   0.8435     H
H       0.8601   0.9567   0.3435     H
H       0.8612   0.6301    0.142     H
H       0.8612   0.8699    0.642     H
C      0.86135   0.6959  0.18269     C
C      0.86135   0.8041  0.68269     C
C      0.86282   0.2062  0.76968     C
C      0.86282   0.2938  0.26968     C
C      0.89896   0.1787   0.4472     C
C      0.89896   0.3213   0.9472     C
H       0.9115   0.1416   0.5073     H
H       0.9115   0.3584   0.0073     H
C      0.94352   0.6243  0.77036     C
C      0.94352   0.8757  0.27036     C
C      0.94581   0.7223  0.70946     C
C      0.94581   0.7777  0.20946     C
H       0.9497    0.682    0.044     H
H       0.9497    0.818    0.544     H
C      0.96545   0.2412  0.82628     C
C      0.96545   0.2588  0.32628     C
C      0.98228    0.203  0.41637     C
C      0.98228    0.297  0.91637     C
H       0.9988   0.5681   0.7894     H
H       0.9988   0.9319   0.2894     H
