data_I
_chemical_name_common  '/home/zhangsd/repos/MofS-CGCNN/ML/data/TSD/clean_cifs/GEGGIK01_clean'
_cell_length_a 13.51460
_cell_length_b 10.76920
_cell_length_c 14.62780
_cell_angle_alpha 90.00000
_cell_angle_beta  110.63100
_cell_angle_gamma 90.00000
_space_group_name_H-M_alt      'P 1'


loop_
_space_group_symop_operation_xyz
  'x, y, z' 

loop_
_atom_site_label
_atom_site_fract_x
_atom_site_fract_y
_atom_site_fract_z
_atom_site_type_symbol
H       0.0026   0.0674   0.7108     H
H       0.0026   0.4326   0.2108     H
C       0.0177   0.7031   0.0833     C
C       0.0177   0.7969   0.5833     C
C       0.0342    0.742   0.6743     C
C       0.0342    0.758   0.1743     C
H       0.0506    0.183   0.4571     H
H       0.0506    0.317   0.9571     H
C       0.0549   0.2226   0.7906     C
C       0.0549   0.2774   0.2906     C
C       0.0577   0.1246   0.7295     C
C       0.0577   0.3754   0.2295     C
H       0.0894   0.6413   0.9923     H
H       0.0894   0.8587   0.4923     H
C       0.1018   0.6785   0.0527     C
C       0.1018   0.8215   0.5527     C
C       0.1374   0.7068   0.7308     C
C       0.1374   0.7932   0.2308     C
C       0.1398   0.1948   0.3178     C
C       0.1398   0.3052   0.8178     C
H       0.1399   0.1287   0.3587     H
H       0.1399   0.3713   0.8587     H
H       0.1405   0.0451   0.6546     H
H       0.1405   0.4549   0.1546     H
C       0.1412   0.1106   0.6963     C
C       0.1412   0.3894   0.1963     C
H       0.1498   0.6674   0.7903     H
H       0.1498   0.8326   0.2903     H
C       0.2037   0.7085    0.111     C
C       0.2037   0.7915    0.611     C
C       0.2215   0.7295   0.6997     C
C       0.2215   0.7705   0.1997     C
C       0.2248   0.2086   0.2853     C
C       0.2248   0.2914   0.7853     C
C       0.2257   0.1925    0.724     C
C       0.2257   0.3075    0.224     C
O      0.28615   0.6519  0.99873     O
O      0.28615   0.8481  0.49873     O
C        0.298   0.6655   0.0875     C
C        0.298   0.8345   0.5875     C
O      0.30463    0.031  0.37377     O
O      0.30463    0.469  0.87377     O
O       0.3126   0.2155  0.60776     O
O       0.3126   0.2845  0.10776     O
C        0.313   0.1172   0.3191     C
C        0.313   0.3828   0.8191     C
C       0.3163    0.168    0.687     C
C       0.3163    0.332    0.187     C
C       0.3292   0.6835   0.7607     C
C       0.3292   0.8165   0.2607     C
O      0.36646    0.723   0.8471     O
O      0.36646    0.777   0.3471     O
O      0.37184   0.6044  0.72232     O
O      0.37184   0.8956  0.22232     O
O       0.3799   0.6458  0.15969     O
O       0.3799   0.8542  0.65969     O
O       0.3862   0.0958  0.73847     O
O       0.3862   0.4042  0.23847     O
O      0.38991    0.135  0.29059     O
O      0.38991    0.365  0.79059     O
Co     0.41043  0.59582  0.96172    Co
Co     0.41043  0.90418  0.46172    Co
O      0.46193   0.0405  0.56848     O
O      0.46193   0.4595  0.06848     O
Co     0.49616   0.5105  0.20779    Co
Co     0.49616   0.9895  0.70779    Co
Co     0.50384   0.0105  0.29221    Co
Co     0.50384   0.4895  0.79221    Co
O      0.53807   0.5405  0.93152     O
O      0.53807   0.9595  0.43152     O
Co     0.58957  0.09582  0.53828    Co
Co     0.58957  0.40418  0.03828    Co
O      0.61009    0.635  0.20941     O
O      0.61009    0.865  0.70941     O
O       0.6138   0.5958  0.76153     O
O       0.6138   0.9042  0.26153     O
O       0.6201   0.1458  0.34031     O
O       0.6201   0.3542  0.84031     O
O      0.62816   0.1044  0.77768     O
O      0.62816   0.3956  0.27768     O
O      0.63354    0.223   0.6529     O
O      0.63354    0.277   0.1529     O
C       0.6708   0.1835   0.7393     C
C       0.6708   0.3165   0.2393     C
C       0.6837    0.668    0.813     C
C       0.6837    0.832    0.313     C
C        0.687   0.6172   0.1809     C
C        0.687   0.8828   0.6809     C
O       0.6874   0.7155  0.89224     O
O       0.6874   0.7845  0.39224     O
O      0.69537    0.531  0.12623     O
O      0.69537    0.969  0.62623     O
C        0.702   0.1655   0.4125     C
C        0.702   0.3345   0.9125     C
O      0.71385   0.1519  0.50127     O
O      0.71385   0.3481  0.00127     O
C       0.7743   0.6925    0.776     C
C       0.7743   0.8075    0.276     C
C       0.7752   0.7086   0.2147     C
C       0.7752   0.7914   0.7147     C
C       0.7785   0.2295   0.8003     C
C       0.7785   0.2705   0.3003     C
C       0.7963   0.2085    0.389     C
C       0.7963   0.2915    0.889     C
H       0.8502   0.1674   0.7097     H
H       0.8502   0.3326   0.2097     H
C       0.8588   0.6106   0.8037     C
C       0.8588   0.8894   0.3037     C
H       0.8595   0.5451   0.8454     H
H       0.8595   0.9549   0.3454     H
H       0.8601   0.6287   0.1413     H
H       0.8601   0.8713   0.6413     H
C       0.8602   0.6948   0.1822     C
C       0.8602   0.8052   0.6822     C
C       0.8626   0.2068   0.7692     C
C       0.8626   0.2932   0.2692     C
C       0.8982   0.1785   0.4473     C
C       0.8982   0.3215   0.9473     C
H       0.9106   0.1413   0.5077     H
H       0.9106   0.3587   0.0077     H
C       0.9423   0.6246   0.7705     C
C       0.9423   0.8754   0.2705     C
C       0.9451   0.7226   0.7094     C
C       0.9451   0.7774   0.2094     C
H       0.9494    0.683   0.0429     H
H       0.9494    0.817   0.5429     H
C       0.9658    0.242   0.8257     C
C       0.9658    0.258   0.3257     C
C       0.9823   0.2031   0.4167     C
C       0.9823   0.2969   0.9167     C
H       0.9974   0.5674   0.7892     H
H       0.9974   0.9326   0.2892     H
