data_I
_chemical_name_common  '/home/zhangsd/repos/MofS-CGCNN/ML/data/TSD/clean_cifs/GEGGIK_clean'
_cell_length_a 13.56740
_cell_length_b 10.79420
_cell_length_c 14.68370
_cell_angle_alpha 90.00000
_cell_angle_beta  110.63800
_cell_angle_gamma 90.00000
_space_group_name_H-M_alt      'P 1'


loop_
_space_group_symop_operation_xyz
  'x, y, z' 

loop_
_atom_site_label
_atom_site_fract_x
_atom_site_fract_y
_atom_site_fract_z
_atom_site_type_symbol
H       0.0013    0.068   0.7102     H
H       0.0013    0.432   0.2102     H
C      0.01754  0.70296  0.08344     C
C      0.01754  0.79704  0.58344     C
C      0.03432  0.74144  0.67373     C
C      0.03432  0.75856  0.17373     C
H       0.0506   0.1822   0.4563     H
H       0.0506   0.3178   0.9563     H
C      0.05451  0.22268  0.79057     C
C      0.05451  0.27732  0.29057     C
C      0.05677  0.12433  0.72936     C
C      0.05677  0.37567  0.22936     C
H       0.0885   0.6411   0.9922     H
H       0.0885   0.8589   0.4922     H
C      0.10101  0.67834  0.05236     C
C      0.10101  0.82166  0.55236     C
C      0.13727  0.70662  0.73065     C
C      0.13727  0.79338  0.23065     C
C      0.13904  0.19568  0.31758     C
C      0.13904  0.30432  0.81758     C
H       0.1393   0.1297   0.3584     H
H       0.1393   0.3703   0.8584     H
H       0.1401   0.0433   0.6562     H
H       0.1401   0.4567   0.1562     H
C      0.14036  0.10948  0.69682     C
C      0.14036  0.39052  0.19682     C
H       0.1499   0.6678   0.7903     H
H       0.1499   0.8322   0.2903     H
C      0.20336  0.70915  0.11086     C
C      0.20336  0.79085  0.61086     C
C      0.22056  0.72953  0.69881     C
C      0.22056  0.77047  0.19881     C
C      0.22361  0.20968  0.28526     C
C      0.22361  0.29032  0.78526     C
C      0.22479    0.192  0.72402     C
C      0.22479    0.308  0.22402     C
O      0.28486  0.65291  0.99873     O
O      0.28486  0.84709  0.49873     O
C      0.29668  0.66615  0.08672     C
C      0.29668  0.83385  0.58672     C
O      0.30272  0.03092  0.37225     O
O      0.30272  0.46908  0.87225     O
O       0.3116  0.21591  0.60882     O
O       0.3116  0.28409  0.10882     O
C      0.31196  0.11703  0.31935     C
C      0.31196  0.38297  0.81935     C
C      0.31508  0.16823  0.68769     C
C      0.31508  0.33177  0.18769     C
C      0.32876  0.68362  0.75978     C
C      0.32876  0.81638  0.25978     C
O      0.36649    0.723  0.84575     O
O      0.36649    0.777  0.34575     O
O      0.37066  0.60445  0.72141     O
O      0.37066  0.89555  0.22141     O
O      0.37885  0.64649  0.15854     O
O      0.37885  0.85351  0.65854     O
O      0.38502  0.09592  0.73917     O
O      0.38502  0.40408  0.23917     O
O      0.38901  0.13589  0.29179     O
O      0.38901  0.36411  0.79179     O
Co     0.40987   0.5972  0.96142    Co
Co     0.40987   0.9028  0.46142    Co
O      0.46131  0.04123  0.56789     O
O      0.46131  0.45877  0.06789     O
Co     0.49598  0.51028  0.20778    Co
Co     0.49598  0.98972  0.70778    Co
Co     0.50402  0.01028  0.29222    Co
Co     0.50402  0.48972  0.79222    Co
O      0.53869  0.54123  0.93211     O
O      0.53869  0.95877  0.43211     O
Co     0.59012   0.0972  0.53858    Co
Co     0.59012   0.4028  0.03858    Co
O      0.61099  0.63589  0.20821     O
O      0.61099  0.86411  0.70821     O
O      0.61498  0.59592  0.76083     O
O      0.61498  0.90408  0.26083     O
O      0.62115  0.14649  0.34146     O
O      0.62115  0.35351  0.84146     O
O      0.62934  0.10445  0.77859     O
O      0.62934  0.39555  0.27859     O
O      0.63351    0.223  0.65425     O
O      0.63351    0.277  0.15425     O
C      0.67124  0.18362  0.74022     C
C      0.67124  0.31638  0.24022     C
C      0.68492  0.66823  0.81231     C
C      0.68492  0.83177  0.31231     C
C      0.68804  0.61703  0.18065     C
C      0.68804  0.88297  0.68065     C
O       0.6884  0.71591  0.89118     O
O       0.6884  0.78409  0.39118     O
O      0.69728  0.53092  0.12775     O
O      0.69728  0.96908  0.62775     O
C      0.70332  0.16615  0.41328     C
C      0.70332  0.33385  0.91328     C
O      0.71514  0.15291  0.50127     O
O      0.71514  0.34709  0.00127     O
C      0.77521    0.692  0.77598     C
C      0.77521    0.808  0.27598     C
C      0.77639  0.70968  0.21474     C
C      0.77639  0.79032  0.71474     C
C      0.77944  0.22953  0.80119     C
C      0.77944  0.27047  0.30119     C
C      0.79664  0.20915  0.38914     C
C      0.79664  0.29085  0.88914     C
H       0.8501   0.1678   0.7097     H
H       0.8501   0.3322   0.2097     H
C      0.85964  0.60948  0.80318     C
C      0.85964  0.89052  0.30318     C
H       0.8599   0.5433   0.8438     H
H       0.8599   0.9567   0.3438     H
H       0.8607   0.6297   0.1416     H
H       0.8607   0.8703   0.6416     H
C      0.86096  0.69568  0.18242     C
C      0.86096  0.80432  0.68242     C
C      0.86273  0.20662  0.76935     C
C      0.86273  0.29338  0.26935     C
C      0.89899  0.17834  0.44764     C
C      0.89899  0.32166  0.94764     C
H       0.9115   0.1411   0.5078     H
H       0.9115   0.3589   0.0078     H
C      0.94323  0.62433  0.77064     C
C      0.94323  0.87567  0.27064     C
C      0.94549  0.72268  0.70943     C
C      0.94549  0.77732  0.20943     C
H       0.9494   0.6822   0.0437     H
H       0.9494   0.8178   0.5437     H
C      0.96568  0.24144  0.82627     C
C      0.96568  0.25856  0.32627     C
C      0.98246  0.20296  0.41656     C
C      0.98246  0.29704  0.91656     C
H       0.9987    0.568   0.7898     H
H       0.9987    0.932   0.2898     H
