data_I
_chemical_name_common  '/home/zhangsd/repos/MofS-CGCNN/ML/data/TSD/clean_cifs/GETXAG_clean'
_cell_length_a  6.70980
_cell_length_b 13.09450
_cell_length_c 21.34200
_cell_angle_alpha 90.00000
_cell_angle_beta  90.00000
_cell_angle_gamma 102.50600
_space_group_name_H-M_alt      'P 1'


loop_
_space_group_symop_operation_xyz
  'x, y, z' 

loop_
_atom_site_label
_atom_site_fract_x
_atom_site_fract_y
_atom_site_fract_z
_atom_site_type_symbol
Co         0.0      0.0      0.5    Co
C        0.005   0.3602   0.7631     C
C       0.0154   0.2803  0.72174     C
Co     0.01802  0.54682  0.06693    Co
H       0.0259   0.2431   0.2521     H
H       0.0427   0.4179   0.5781     H
H       0.0431   0.1112   0.3226     H
H       0.0476    0.594   0.5688     H
C      0.05802  0.90292  0.91717     C
N      0.05811  0.13351  0.62383     N
C      0.06079  0.00839  0.92204     C
H       0.0616   0.9692   0.0787     H
H        0.066   0.1448   0.0869     H
C       0.0767   0.4538  0.42782     C
N      0.07852  0.23342  0.93534     N
C       0.0798   0.5598  0.42256     C
N      0.09016  0.23506   0.4555     N
H       0.0982   0.7487   0.3024     H
H       0.1015   0.5315   0.8211     H
H       0.1139   0.6145    0.234     H
N      0.13046  0.06676  0.58703     N
H        0.135    0.723   0.8933     H
N      0.13699  0.37989  0.15751     N
H        0.142    0.758    0.407     H
C       0.1438   0.2168  0.25443     C
N      0.14548  0.33428  0.95071     N
C       0.1538   0.1375  0.29667     C
N      0.15655  0.48535  0.84267     N
N       0.1574   0.1467  0.46224     N
C      0.17182  0.40262  0.80029     C
N      0.18853  0.44103  0.10664     N
C      0.19237  0.24267  0.71562     C
C      0.20502  0.16462  0.66681     C
O      0.21289  0.54999  0.98789     O
H       0.2152   0.9818   0.3526     H
N      0.23467  0.76017  0.91794     N
C      0.23808  0.86738  0.91829     C
C      0.24347  0.08147  0.92801     C
C      0.24437  0.19257  0.93865     C
C      0.25563  0.30743  0.43865     C
C      0.25653  0.41853  0.42801     C
C      0.26192  0.63262  0.41829     C
N      0.26533  0.73983  0.41794     N
H       0.2848   0.5182   0.8526     H
O      0.28711  0.95001  0.48789     O
C      0.29498  0.33538  0.16681     C
C      0.30763  0.25733  0.21562     C
N      0.31147  0.05897  0.60664     N
C      0.32818  0.09738  0.30029     C
N       0.3426   0.3533  0.96224     N
N      0.34345  0.01465  0.34267     N
C       0.3462   0.3625  0.79667     C
N      0.35452  0.16572  0.45071     N
C       0.3562   0.2832  0.75443     C
H        0.358    0.742    0.907     H
N      0.36301  0.12011  0.65751     N
H        0.365    0.777   0.3933     H
N      0.36954  0.43324  0.08703     N
H       0.3861   0.8855    0.734     H
H       0.3985   0.9685   0.3211     H
H       0.4018   0.7513   0.8024     H
N      0.40984  0.26494   0.9555     N
C       0.4202   0.9402  0.92256     C
N      0.42148  0.26658  0.43534     N
C       0.4233   0.0462  0.92782     C
H        0.434   0.3552   0.5869     H
H       0.4384   0.5308   0.5787     H
C      0.43921  0.49161  0.42204     C
N      0.44189  0.36649  0.12383     N
C      0.44198  0.59708  0.41717     C
H       0.4524    0.906   0.0688     H
H       0.4569   0.3888   0.8226     H
H       0.4573   0.0821   0.0781     H
H       0.4741   0.2569   0.7521     H
Co     0.48198  0.95318  0.56693    Co
C       0.4846   0.2197  0.22174     C
C        0.495   0.1398   0.2631     C
Co         0.5      0.5      0.0    Co
C        0.505   0.8602   0.7369     C
C       0.5154   0.7803  0.77826     C
Co     0.51802  0.04682  0.43307    Co
H       0.5259   0.7431   0.2479     H
H       0.5427   0.9179   0.9219     H
H       0.5431   0.6112   0.1774     H
H       0.5476    0.094   0.9312     H
C      0.55802  0.40292  0.58283     C
N      0.55811  0.63351  0.87617     N
C      0.56079  0.50839  0.57796     C
H       0.5616   0.4692   0.4213     H
H        0.566   0.6448   0.4131     H
C       0.5767   0.9538  0.07218     C
N      0.57852  0.73342  0.56466     N
C       0.5798   0.0598  0.07744     C
N      0.59016  0.73506   0.0445     N
H       0.5982   0.2487   0.1976     H
H       0.6015   0.0315   0.6789     H
H       0.6139   0.1145    0.266     H
N      0.63046  0.56676  0.91297     N
H        0.635    0.223   0.6067     H
N      0.63699  0.87989  0.34249     N
H        0.642    0.258    0.093     H
C       0.6438   0.7168  0.24557     C
N      0.64548  0.83428  0.54929     N
C       0.6538   0.6375  0.20333     C
N      0.65655  0.98535  0.65733     N
N       0.6574   0.6467  0.03776     N
C      0.67182  0.90262  0.69971     C
N      0.68853  0.94103  0.39336     N
C      0.69237  0.74267  0.78438     C
C      0.70502  0.66462  0.83319     C
O      0.71289  0.04999  0.51211     O
H       0.7152   0.4818   0.1474     H
N      0.73467  0.26017  0.58206     N
C      0.73808  0.36738  0.58171     C
C      0.74347  0.58147  0.57199     C
C      0.74437  0.69257  0.56135     C
C      0.75563  0.80743  0.06135     C
C      0.75653  0.91853  0.07199     C
C      0.76192  0.13262  0.08171     C
N      0.76533  0.23983  0.08206     N
H       0.7848   0.0182   0.6474     H
O      0.78711  0.45001  0.01211     O
C      0.79498  0.83538  0.33319     C
C      0.80763  0.75733  0.28438     C
N      0.81147  0.55897  0.89336     N
C      0.82818  0.59738  0.19971     C
N       0.8426   0.8533  0.53776     N
N      0.84345  0.51465  0.15733     N
C       0.8462   0.8625  0.70333     C
N      0.85452  0.66572  0.04929     N
C       0.8562   0.7832  0.74557     C
H        0.858    0.242    0.593     H
N      0.86301  0.62011  0.84249     N
H        0.865    0.277   0.1067     H
N      0.86954  0.93324  0.41297     N
H       0.8861   0.3855    0.766     H
H       0.8985   0.4685   0.1789     H
H       0.9018   0.2513   0.6976     H
N      0.90984  0.76494   0.5445     N
C       0.9202   0.4402  0.57744     C
N      0.92148  0.76658  0.06466     N
C       0.9233   0.5462  0.57218     C
H        0.934   0.8552   0.9131     H
H       0.9384   0.0308   0.9213     H
C      0.93921  0.99161  0.07796     C
N      0.94189  0.86649  0.37617     N
C      0.94198  0.09708  0.08283     C
H       0.9524    0.406   0.4312     H
H       0.9569   0.8888   0.6774     H
H       0.9573   0.5821   0.4219     H
H       0.9741   0.7569   0.7479     H
Co     0.98198  0.45318  0.93307    Co
C       0.9846   0.7197  0.27826     C
C        0.995   0.6398   0.2369     C
