data_I
_chemical_name_common  '/home/zhangsd/repos/MofS-CGCNN/ML/data/TSD/clean_cifs/GEZRAG_clean'
_cell_length_a 26.45290
_cell_length_b 26.45290
_cell_length_c 26.45290
_cell_angle_alpha 90.00000
_cell_angle_beta  90.00000
_cell_angle_gamma 90.00000
_space_group_name_H-M_alt      'P 1'


loop_
_space_group_symop_operation_xyz
  'x, y, z' 

loop_
_atom_site_label
_atom_site_fract_x
_atom_site_fract_y
_atom_site_fract_z
_atom_site_type_symbol
C        0.003   0.1932   0.2852     C
C        0.003   0.3068   0.7852     C
C       0.0072   0.7197   0.1707     C
C       0.0072   0.7803   0.6707     C
H       0.0188   0.2369   0.3455     H
H       0.0188   0.2631   0.8455     H
H       0.0289   0.1719    0.191     H
H       0.0289   0.3281    0.691     H
H       0.0336   0.6473   0.2633     H
H       0.0336   0.8527   0.7633     H
C       0.0378   0.6673   0.2347     C
C       0.0378   0.8327   0.7347     C
H       0.0396   0.2396   0.7233     H
H       0.0396   0.2604   0.2233     H
H       0.0463   0.1255   0.2233     H
H       0.0463   0.3745   0.7233     H
C       0.0552   0.1597   0.2134     C
C       0.0552   0.3403   0.7134     C
C       0.0553   0.7209   0.1507     C
C       0.0553   0.7791   0.6507     C
C       0.0564   0.1936   0.2616     C
C       0.0564   0.3064   0.7616     C
H       0.0572    0.639   0.8429     H
H       0.0572    0.861   0.3429     H
H       0.0604   0.7389   0.1209     H
H       0.0604   0.7611   0.6209     H
H       0.0616   0.2294   0.7773     H
H       0.0616   0.2706   0.2773     H
C       0.0653     0.25   0.2473     C
C       0.0653     0.25   0.7473     C
H       0.0811   0.6791   0.9016     H
H       0.0811   0.8209   0.4016     H
H       0.0821   0.1383   0.3117     H
H       0.0821   0.3617   0.8117     H
C       0.0851    0.671   0.2119     C
C       0.0851    0.829   0.7119     C
H       0.0886   0.1929   0.3336     H
H       0.0886   0.3071   0.8336     H
C       0.0925   0.1725   0.3034     C
C       0.0925   0.3275   0.8034     C
C        0.093   0.6404   0.8486     C
C        0.093   0.8596   0.3486     C
N       0.0945   0.6981   0.1713     N
N       0.0945   0.8019   0.6713     N
H       0.0984   0.5811   0.8209     H
H       0.0984   0.9189   0.3209     H
H       0.1006   0.6162   0.3411     H
H       0.1006   0.8838   0.8411     H
O      0.10155  0.15833  0.18654     O
O      0.10155  0.34167  0.68654     O
H       0.1078   0.6305   0.6186     H
C       0.1078   0.6643   0.8819     C
H       0.1078   0.6894   0.7918     H
H       0.1078   0.8106   0.2918     H
C       0.1078   0.8357   0.3819     C
H       0.1078   0.8695   0.1186     H
H       0.1117   0.6532   0.2264     H
H       0.1117   0.8468   0.7264     H
O      0.11389  0.24095  0.72575     O
O      0.11389  0.25905  0.22575     O
N        0.114    0.614    0.886     N
N        0.114    0.886    0.386     N
H       0.1162   0.1589   0.8994     H
H       0.1162   0.3411   0.3994     H
H       0.1171   0.6686   0.3633     H
H       0.1171   0.8314   0.8633     H
Co     0.11777  0.11777  0.11777    Co
Co     0.11777  0.38223  0.61777    Co
C       0.1181   0.6078   0.8357     C
C       0.1181   0.8922   0.3357     C
H       0.1186   0.1078   0.8695     H
H       0.1186   0.3922   0.3695     H
H       0.1209   0.0604   0.7389     H
H       0.1209   0.4396   0.2389     H
O       0.1226   0.1461   0.7829     O
O       0.1226   0.3539   0.2829     O
C       0.1234   0.6706   0.8186     C
C       0.1234   0.8294   0.3186     C
H       0.1255   0.2233   0.0463     H
H       0.1255   0.2767   0.5463     H
C       0.1265    0.634   0.3595     C
C       0.1265    0.866   0.8595     C
H       0.1286   0.7325   0.8503     H
H       0.1286   0.7675   0.3503     H
C       0.1303     0.17   0.8228     C
C       0.1303     0.33   0.3228     C
H       0.1305   0.6186   0.3922     H
H       0.1305   0.8814   0.8922     H
Co       0.132  0.22476  0.16149    Co
Co       0.132  0.27524  0.66149    Co
C        0.134   0.1405   0.8735     C
C        0.134   0.3595   0.3735     C
C       0.1361    0.697   0.8524     C
C       0.1361    0.803   0.3524     C
H       0.1367   0.6171   0.6686     H
H       0.1367   0.8829   0.1686     H
H       0.1383   0.1883   0.5821     H
H       0.1383   0.3117   0.0821     H
H        0.139   0.6571   0.9428     H
H        0.139   0.8429   0.4428     H
C       0.1404   0.6514    0.907     C
C       0.1404   0.8486    0.407     C
C       0.1405   0.6265    0.634     C
C       0.1405   0.8735    0.134     C
Co     0.14369  0.16836  0.71052    Co
Co     0.14369  0.33164  0.21052    Co
O      0.14426  0.17188  0.28942     O
O      0.14426  0.32812  0.78942     O
O       0.1461   0.7171   0.6226     O
O       0.1461   0.7829   0.1226     O
H       0.1468   0.7494    0.765     H
H       0.1468   0.7506    0.265     H
H       0.1473   0.2367   0.9664     H
H       0.1473   0.2633   0.4664     H
C       0.1476   0.6361    0.803     C
C       0.1476   0.8639    0.303     C
O       0.1485   0.2142   0.8264     O
O       0.1485   0.2858   0.3264     O
H       0.1497   0.6286   0.7675     H
H       0.1497   0.8714   0.2675     H
C       0.1507   0.0553   0.7209     C
C       0.1507   0.4447   0.2209     C
C       0.1514    0.593   0.8596     C
C       0.1514    0.907   0.3596     C
H       0.1532   0.2264   0.3883     H
H       0.1532   0.2736   0.8883     H
H       0.1545   0.5188   0.2369     H
H       0.1545   0.9812   0.7369     H
H       0.1571   0.5572    0.861     H
H       0.1571   0.9428    0.361     H
H       0.1583   0.7022   0.7313     H
H       0.1583   0.7978   0.2313     H
O      0.15833  0.18654  0.10155     O
O      0.15833  0.31346  0.60155     O
H       0.1589   0.6006   0.6162     H
H       0.1589   0.8994   0.1162     H
C       0.1597   0.2134   0.0552     C
C       0.1597   0.2866   0.5552     C
Co     0.16149    0.132  0.22476    Co
Co     0.16149    0.368  0.72476    Co
C       0.1643   0.6181   0.8922     C
C       0.1643   0.8819   0.3922     C
H       0.1664   0.5886   0.1929     H
H       0.1664   0.9114   0.6929     H
C       0.1673   0.2347   0.4622     C
C       0.1673   0.2653   0.9622     C
Co     0.16836  0.71052  0.14369    Co
Co     0.16836  0.78948  0.64369    Co
H       0.1686   0.1367   0.8829     H
H       0.1686   0.3633   0.3829     H
C         0.17   0.6772   0.6303     C
C         0.17   0.8228   0.1303     C
C       0.1706   0.6814   0.8766     C
C       0.1706   0.8186   0.3766     C
C       0.1707   0.0072   0.7197     C
C       0.1707   0.4928   0.2197     C
C        0.171   0.2119   0.4149     C
C        0.171   0.2881   0.9149     C
N       0.1713   0.0945   0.6981     N
N       0.1713   0.4055   0.1981     N
O      0.17188  0.21058  0.64426     O
O      0.17188  0.28942  0.14426     O
H       0.1719    0.191   0.0289     H
H       0.1719    0.309   0.5289     H
C       0.1725   0.1966   0.5925     C
C       0.1725   0.3034   0.0925     C
O       0.1736   0.6485   0.2858     O
O       0.1736   0.8515   0.7858     O
C       0.1737   0.7304    0.749     C
C       0.1737   0.7696    0.249     C
C       0.1753   0.6753   0.8247     C
C       0.1753   0.8247   0.3247     C
Co     0.17535  0.23982  0.26793    Co
Co     0.17535  0.26018  0.76793    Co
C       0.1772   0.6303     0.33     C
C       0.1772   0.8697     0.83     C
H       0.1791   0.5984   0.9189     H
H       0.1791   0.9016   0.4189     H
C       0.1814   0.6234   0.8294     C
C       0.1814   0.8766   0.3294     C
O      0.18654  0.10155  0.15833     O
O      0.18654  0.39845  0.65833     O
H       0.1883   0.5821   0.1383     H
H       0.1883   0.9179   0.6383     H
H       0.1894   0.7082   0.8922     H
H       0.1894   0.7918   0.3922     H
H        0.191   0.0289   0.1719     H
H        0.191   0.4711   0.6719     H
H       0.1929   0.1664   0.5886     H
H       0.1929   0.3336   0.0886     H
C       0.1932   0.2148    0.503     C
C       0.1932   0.2852    0.003     C
C       0.1936   0.2384   0.5564     C
C       0.1936   0.2616   0.0564     C
C       0.1966   0.5925   0.1725     C
C       0.1966   0.9075   0.6725     C
C        0.197   0.6476   0.8639     C
C        0.197   0.8524   0.3639     C
N       0.1981   0.1713   0.4055     N
N       0.1981   0.3287   0.9055     N
O      0.19832  0.73807  0.21326     O
O      0.19832  0.76193  0.71326     O
O      0.20004  0.20004  0.20004     O
O      0.20004  0.29996  0.70004     O
H       0.2022   0.7313   0.3417     H
H       0.2022   0.7687   0.8417     H
H       0.2082   0.6078   0.8106     H
H       0.2082   0.8922   0.3106     H
C       0.2092   0.7092   0.7908     C
C       0.2092   0.7908   0.2908     C
Co     0.21052  0.14369  0.33164    Co
Co     0.21052  0.35631  0.83164    Co
O      0.21058  0.64426  0.17188     O
O      0.21058  0.85574  0.67188     O
C       0.2119   0.0851    0.671     C
C       0.2119   0.4149    0.171     C
O      0.21326  0.19832  0.73807     O
O      0.21326  0.30168  0.23807     O
C       0.2134   0.0552   0.1597     C
C       0.2134   0.4448   0.6597     C
O       0.2142   0.6736   0.6485     O
O       0.2142   0.8264   0.1485     O
C       0.2148    0.503   0.1932     C
C       0.2148    0.997   0.6932     C
O       0.2171   0.6226   0.3539     O
O       0.2171   0.8774   0.8539     O
C       0.2197   0.1707   0.4928     C
C       0.2197   0.3293   0.9928     C
C       0.2209   0.1507   0.4447     C
C       0.2209   0.3493   0.9447     C
H       0.2227   0.5616   0.2706     H
H       0.2227   0.9384   0.7706     H
H       0.2233   0.0396   0.2604     H
H       0.2233   0.0463   0.1255     H
H       0.2233   0.4537   0.6255     H
H       0.2233   0.4604   0.7604     H
Co     0.22476  0.16149    0.132    Co
Co     0.22476  0.33851    0.632    Co
O      0.22575  0.11389  0.25905     O
O      0.22575  0.38611  0.75905     O
H       0.2264   0.1117   0.6532     H
H       0.2264   0.3883   0.1532     H
H       0.2294   0.7227   0.5616     H
H       0.2294   0.7773   0.0616     H
C       0.2304    0.749   0.3263     C
C       0.2304    0.751   0.8263     C
H       0.2313   0.1583   0.7978     H
H       0.2313   0.3417   0.2978     H
Co     0.23207  0.67535  0.23982    Co
Co     0.23207  0.82465  0.73982    Co
H       0.2325   0.6497   0.8714     H
H       0.2325   0.8503   0.3714     H
C       0.2347   0.0378   0.6673     C
C       0.2347   0.4622   0.1673     C
H        0.235   0.6468   0.7506     H
H        0.235   0.8532   0.2506     H
H       0.2367   0.5336   0.6473     H
H       0.2367   0.9664   0.1473     H
H       0.2369   0.1545   0.5188     H
H       0.2369   0.3455   0.0188     H
O      0.23807  0.21326  0.30168     O
O      0.23807  0.28674  0.80168     O
C       0.2384   0.5564   0.1936     C
C       0.2384   0.9436   0.6936     C
H       0.2389   0.1209   0.4396     H
H       0.2389   0.3791   0.9396     H
H       0.2396   0.7233   0.0396     H
H       0.2396   0.7767   0.5396     H
Co     0.23982  0.23207  0.67535    Co
Co     0.23982  0.26793  0.17535    Co
O      0.24095  0.72575  0.11389     O
O      0.24095  0.77425  0.61389     O
C       0.2473   0.0653     0.25     C
C       0.2473   0.4347     0.75     C
C        0.249   0.1737   0.7696     C
C        0.249   0.3263   0.2696     C
H       0.2494    0.735   0.8532     H
H       0.2494    0.765   0.3532     H
C         0.25   0.2473   0.0653     C
C         0.25   0.2527   0.5653     C
C         0.25   0.7473   0.0653     C
C         0.25   0.7527   0.5653     C
H       0.2506    0.235   0.8532     H
H       0.2506    0.265   0.3532     H
C        0.251   0.6737   0.7696     C
C        0.251   0.8263   0.2696     C
C       0.2527   0.5653     0.25     C
C       0.2527   0.9347     0.75     C
O      0.25905  0.22575  0.11389     O
O      0.25905  0.27425  0.61389     O
Co     0.26018  0.73207  0.67535    Co
Co     0.26018  0.76793  0.17535    Co
H       0.2604   0.2233   0.0396     H
H       0.2604   0.2767   0.5396     H
H       0.2611   0.6209   0.4396     H
H       0.2611   0.8791   0.9396     H
C       0.2616   0.0564   0.1936     C
C       0.2616   0.4436   0.6936     C
O      0.26193  0.71326  0.30168     O
O      0.26193  0.78674  0.80168     O
H       0.2631   0.6545   0.5188     H
H       0.2631   0.8455   0.0188     H
H       0.2633   0.0336   0.6473     H
H       0.2633   0.4664   0.1473     H
H        0.265   0.1468   0.7506     H
H        0.265   0.3532   0.2506     H
C       0.2653   0.5378   0.6673     C
C       0.2653   0.9622   0.1673     C
H       0.2675   0.1497   0.8714     H
H       0.2675   0.3503   0.3714     H
Co     0.26793  0.17535  0.23982    Co
Co     0.26793  0.32465  0.73982    Co
H       0.2687   0.6583   0.7978     H
H       0.2687   0.8417   0.2978     H
C       0.2696    0.249   0.3263     C
C       0.2696    0.251   0.8263     C
H       0.2706   0.2227   0.5616     H
H       0.2706   0.2773   0.0616     H
H       0.2736   0.6117   0.6532     H
H       0.2736   0.8883   0.1532     H
O      0.27425  0.61389  0.25905     O
O      0.27425  0.88611  0.75905     O
Co     0.27524  0.66149    0.132    Co
Co     0.27524  0.83851    0.632    Co
H       0.2767   0.5396   0.2604     H
H       0.2767   0.5463   0.1255     H
H       0.2767   0.9537   0.6255     H
H       0.2767   0.9604   0.7604     H
H       0.2773   0.0616   0.2706     H
H       0.2773   0.4384   0.7706     H
C       0.2791   0.6507   0.4447     C
C       0.2791   0.8493   0.9447     C
C       0.2803   0.6707   0.4928     C
C       0.2803   0.8293   0.9928     C
O       0.2829   0.1226   0.3539     O
O       0.2829   0.3774   0.8539     O
C       0.2852    0.003   0.1932     C
C       0.2852    0.497   0.6932     C
O       0.2858   0.1736   0.6485     O
O       0.2858   0.3264   0.1485     O
C       0.2866   0.5552   0.1597     C
C       0.2866   0.9448   0.6597     C
O      0.28674  0.69832  0.73807     O
O      0.28674  0.80168  0.23807     O
C       0.2881   0.5851    0.671     C
C       0.2881   0.9149    0.171     C
O      0.28942  0.14426  0.17188     O
O      0.28942  0.35574  0.67188     O
Co     0.28948  0.64369  0.33164    Co
Co     0.28948  0.85631  0.83164    Co
C       0.2908   0.2092   0.7908     C
C       0.2908   0.2908   0.2908     C
H       0.2918   0.1078   0.8106     H
H       0.2918   0.3922   0.3106     H
H       0.2978   0.2313   0.3417     H
H       0.2978   0.2687   0.8417     H
O      0.29996  0.70004  0.20004     O
O      0.29996  0.79996  0.70004     O
O      0.30168  0.23807  0.21326     O
O      0.30168  0.26193  0.71326     O
N       0.3019   0.6713   0.4055     N
N       0.3019   0.8287   0.9055     N
C        0.303   0.1476   0.8639     C
C        0.303   0.3524   0.3639     C
C       0.3034   0.0925   0.1725     C
C       0.3034   0.4075   0.6725     C
C       0.3064   0.7384   0.5564     C
C       0.3064   0.7616   0.0564     C
C       0.3068   0.7148    0.503     C
C       0.3068   0.7852    0.003     C
H       0.3071   0.6664   0.5886     H
H       0.3071   0.8336   0.0886     H
H        0.309   0.5289   0.1719     H
H        0.309   0.9711   0.6719     H
H       0.3106   0.2082   0.8922     H
H       0.3106   0.2918   0.3922     H
H       0.3117   0.0821   0.1383     H
H       0.3117   0.4179   0.6383     H
O      0.31346  0.60155  0.15833     O
O      0.31346  0.89845  0.65833     O
C       0.3186   0.1234   0.8294     C
C       0.3186   0.3766   0.3294     C
H       0.3209   0.0984   0.9189     H
H       0.3209   0.4016   0.4189     H
C       0.3228   0.1303     0.33     C
C       0.3228   0.3697     0.83     C
Co     0.32465  0.73982  0.26793    Co
Co     0.32465  0.76018  0.76793    Co
C       0.3247   0.1753   0.8247     C
C       0.3247   0.3247   0.3247     C
C       0.3263   0.2304    0.749     C
C       0.3263   0.2696    0.249     C
O       0.3264   0.1485   0.2858     O
O       0.3264   0.3515   0.7858     O
C       0.3275   0.6966   0.5925     C
C       0.3275   0.8034   0.0925     C
H       0.3281    0.691   0.0289     H
H       0.3281    0.809   0.5289     H
O      0.32812  0.71058  0.64426     O
O      0.32812  0.78942  0.14426     O
N       0.3287   0.5945   0.6981     N
N       0.3287   0.9055   0.1981     N
C        0.329   0.7119   0.4149     C
C        0.329   0.7881   0.9149     C
C       0.3293   0.5072   0.7197     C
C       0.3293   0.9928   0.2197     C
C       0.3294   0.1814   0.8766     C
C       0.3294   0.3186   0.3766     C
C         0.33   0.1772   0.6303     C
C         0.33   0.3228   0.1303     C
H       0.3314   0.6367   0.8829     H
H       0.3314   0.8633   0.3829     H
Co     0.33164  0.21052  0.14369    Co
Co     0.33164  0.28948  0.64369    Co
C       0.3327   0.7347   0.4622     C
C       0.3327   0.7653   0.9622     C
H       0.3336   0.0886   0.1929     H
H       0.3336   0.4114   0.6929     H
C       0.3357   0.1181   0.8922     C
C       0.3357   0.3819   0.3922     C
Co     0.33851    0.632  0.22476    Co
Co     0.33851    0.868  0.72476    Co
C       0.3403   0.7134   0.0552     C
C       0.3403   0.7866   0.5552     C
H       0.3411   0.1006   0.6162     H
H       0.3411   0.3994   0.1162     H
O      0.34167  0.68654  0.10155     O
O      0.34167  0.81346  0.60155     O
H       0.3417   0.2022   0.7313     H
H       0.3417   0.2978   0.2313     H
H       0.3429   0.0572    0.861     H
H       0.3429   0.4428    0.361     H
H       0.3455   0.0188   0.2369     H
H       0.3455   0.4812   0.7369     H
H       0.3468   0.7264   0.3883     H
H       0.3468   0.7736   0.8883     H
C       0.3486    0.093   0.8596     C
C       0.3486    0.407   0.3596     C
C       0.3493   0.5553   0.7209     C
C       0.3493   0.9447   0.2209     C
H       0.3503   0.1286   0.7675     H
H       0.3503   0.3714   0.2675     H
O       0.3515   0.7142   0.8264     O
O       0.3515   0.7858   0.3264     O
C       0.3524   0.1361    0.803     C
C       0.3524   0.3639    0.303     C
H       0.3527   0.7367   0.9664     H
H       0.3527   0.7633   0.4664     H
H       0.3532   0.2494    0.765     H
H       0.3532   0.2506    0.265     H
O       0.3539   0.2171   0.6226     O
O       0.3539   0.2829   0.1226     O
O      0.35574  0.67188  0.28942     O
O      0.35574  0.82812  0.78942     O
Co     0.35631  0.66836  0.71052    Co
Co     0.35631  0.83164  0.21052    Co
C       0.3595   0.1265    0.634     C
C       0.3595   0.3735    0.134     C
C       0.3596   0.1514    0.907     C
C       0.3596   0.3486    0.407     C
H        0.361   0.1571   0.9428     H
H        0.361   0.3429   0.4428     H
H       0.3617   0.6883   0.5821     H
H       0.3617   0.8117   0.0821     H
H       0.3633   0.1171   0.6686     H
H       0.3633   0.3829   0.1686     H
C       0.3639    0.197   0.8524     C
C       0.3639    0.303   0.3524     C
C        0.366   0.6405   0.8735     C
C        0.366   0.8595   0.3735     C
Co       0.368  0.72476  0.16149    Co
Co       0.368  0.77524  0.66149    Co
H       0.3695   0.1186   0.3922     H
H       0.3695   0.3814   0.8922     H
C       0.3697     0.67   0.8228     C
C       0.3697     0.83   0.3228     C
H       0.3714   0.2325   0.8503     H
H       0.3714   0.2675   0.3503     H
C       0.3735    0.134   0.3595     C
C       0.3735    0.366   0.8595     C
H       0.3745   0.7233   0.0463     H
H       0.3745   0.7767   0.5463     H
C       0.3766   0.1706   0.8186     C
C       0.3766   0.3294   0.3186     C
O       0.3774   0.6461   0.7829     O
O       0.3774   0.8539   0.2829     O
H       0.3791   0.5604   0.7389     H
H       0.3791   0.9396   0.2389     H
H       0.3814   0.6078   0.8695     H
H       0.3814   0.8922   0.3695     H
C       0.3819   0.1078   0.8357     C
C       0.3819   0.3922   0.3357     C
Co     0.38223  0.61777  0.11777    Co
Co     0.38223  0.88223  0.61777    Co
H       0.3829   0.1686   0.3633     H
H       0.3829   0.3314   0.8633     H
H       0.3838   0.6589   0.8994     H
H       0.3838   0.8411   0.3994     H
N        0.386    0.114    0.886     N
N        0.386    0.386    0.386     N
O      0.38611  0.74095  0.72575     O
O      0.38611  0.75905  0.22575     O
H       0.3883   0.1532   0.2264     H
H       0.3883   0.3468   0.7264     H
H       0.3922   0.1305   0.6186     H
C       0.3922   0.1643   0.8819     C
H       0.3922   0.1894   0.7918     H
H       0.3922   0.3106   0.2918     H
C       0.3922   0.3357   0.3819     C
H       0.3922   0.3695   0.1186     H
O      0.39845  0.65833  0.18654     O
O      0.39845  0.84167  0.68654     O
H       0.3994   0.1162   0.3411     H
H       0.3994   0.3838   0.8411     H
H       0.4016   0.0811   0.8209     H
H       0.4016   0.4189   0.3209     H
N       0.4055   0.1981   0.1713     N
N       0.4055   0.3019   0.6713     N
C        0.407   0.1404   0.8486     C
C        0.407   0.3596   0.3486     C
C       0.4075   0.6725   0.3034     C
C       0.4075   0.8275   0.8034     C
H       0.4114   0.6929   0.3336     H
H       0.4114   0.8071   0.8336     H
C       0.4149    0.171   0.2119     C
C       0.4149    0.329   0.7119     C
H       0.4179   0.6383   0.3117     H
H       0.4179   0.8617   0.8117     H
H       0.4189   0.1791   0.9016     H
H       0.4189   0.3209   0.4016     H
C       0.4347     0.75   0.2473     C
C       0.4347     0.75   0.7473     C
H       0.4384   0.7294   0.7773     H
H       0.4384   0.7706   0.2773     H
H       0.4396   0.2389   0.1209     H
H       0.4396   0.2611   0.6209     H
H       0.4428    0.139   0.8429     H
H       0.4428    0.361   0.3429     H
C       0.4436   0.6936   0.2616     C
C       0.4436   0.8064   0.7616     C
C       0.4447   0.2209   0.1507     C
C       0.4447   0.2791   0.6507     C
C       0.4448   0.6597   0.2134     C
C       0.4448   0.8403   0.7134     C
H       0.4537   0.6255   0.2233     H
H       0.4537   0.8745   0.7233     H
H       0.4604   0.7396   0.7233     H
H       0.4604   0.7604   0.2233     H
C       0.4622   0.1673   0.2347     C
C       0.4622   0.3327   0.7347     C
H       0.4664   0.1473   0.2633     H
H       0.4664   0.3527   0.7633     H
H       0.4711   0.6719    0.191     H
H       0.4711   0.8281    0.691     H
H       0.4812   0.7369   0.3455     H
H       0.4812   0.7631   0.8455     H
C       0.4928   0.2197   0.1707     C
C       0.4928   0.2803   0.6707     C
C        0.497   0.6932   0.2852     C
C        0.497   0.8068   0.7852     C
C        0.503   0.1932   0.2148     C
C        0.503   0.3068   0.7148     C
C       0.5072   0.7197   0.3293     C
C       0.5072   0.7803   0.8293     C
H       0.5188   0.2369   0.1545     H
H       0.5188   0.2631   0.6545     H
H       0.5289   0.1719    0.309     H
H       0.5289   0.3281    0.809     H
H       0.5336   0.6473   0.2367     H
H       0.5336   0.8527   0.7367     H
C       0.5378   0.6673   0.2653     C
C       0.5378   0.8327   0.7653     C
H       0.5396   0.2396   0.7767     H
H       0.5396   0.2604   0.2767     H
H       0.5463   0.1255   0.2767     H
H       0.5463   0.3745   0.7767     H
C       0.5552   0.1597   0.2866     C
C       0.5552   0.3403   0.7866     C
C       0.5553   0.7209   0.3493     C
C       0.5553   0.7791   0.8493     C
C       0.5564   0.1936   0.2384     C
C       0.5564   0.3064   0.7384     C
H       0.5572    0.639   0.6571     H
H       0.5572    0.861   0.1571     H
H       0.5604   0.7389   0.3791     H
H       0.5604   0.7611   0.8791     H
H       0.5616   0.2294   0.7227     H
H       0.5616   0.2706   0.2227     H
C       0.5653     0.25   0.2527     C
C       0.5653     0.25   0.7527     C
H       0.5811   0.6791   0.5984     H
H       0.5811   0.8209   0.0984     H
H       0.5821   0.1383   0.1883     H
H       0.5821   0.3617   0.6883     H
C       0.5851    0.671   0.2881     C
C       0.5851    0.829   0.7881     C
H       0.5886   0.1929   0.1664     H
H       0.5886   0.3071   0.6664     H
C       0.5925   0.1725   0.1966     C
C       0.5925   0.3275   0.6966     C
C        0.593   0.6404   0.6514     C
C        0.593   0.8596   0.1514     C
N       0.5945   0.6981   0.3287     N
N       0.5945   0.8019   0.8287     N
H       0.5984   0.5811   0.6791     H
H       0.5984   0.9189   0.1791     H
H       0.6006   0.6162   0.1589     H
H       0.6006   0.8838   0.6589     H
O      0.60155  0.15833  0.31346     O
O      0.60155  0.34167  0.81346     O
H       0.6078   0.6305   0.8814     H
C       0.6078   0.6643   0.6181     C
H       0.6078   0.6894   0.7082     H
H       0.6078   0.8106   0.2082     H
C       0.6078   0.8357   0.1181     C
H       0.6078   0.8695   0.3814     H
H       0.6117   0.6532   0.2736     H
H       0.6117   0.8468   0.7736     H
O      0.61389  0.24095  0.77425     O
O      0.61389  0.25905  0.27425     O
N        0.614    0.614    0.614     N
N        0.614    0.886    0.114     N
H       0.6162   0.1589   0.6006     H
H       0.6162   0.3411   0.1006     H
H       0.6171   0.6686   0.1367     H
H       0.6171   0.8314   0.6367     H
Co     0.61777  0.11777  0.38223    Co
Co     0.61777  0.38223  0.88223    Co
C       0.6181   0.6078   0.6643     C
C       0.6181   0.8922   0.1643     C
H       0.6186   0.1078   0.6305     H
H       0.6186   0.3922   0.1305     H
H       0.6209   0.0604   0.7611     H
H       0.6209   0.4396   0.2611     H
O       0.6226   0.1461   0.7171     O
O       0.6226   0.3539   0.2171     O
C       0.6234   0.6706   0.6814     C
C       0.6234   0.8294   0.1814     C
H       0.6255   0.2233   0.4537     H
H       0.6255   0.2767   0.9537     H
C       0.6265    0.634   0.1405     C
C       0.6265    0.866   0.6405     C
H       0.6286   0.7325   0.6497     H
H       0.6286   0.7675   0.1497     H
C       0.6303     0.17   0.6772     C
C       0.6303     0.33   0.1772     C
H       0.6305   0.6186   0.1078     H
H       0.6305   0.8814   0.6078     H
Co       0.632  0.22476  0.33851    Co
Co       0.632  0.27524  0.83851    Co
C        0.634   0.1405   0.6265     C
C        0.634   0.3595   0.1265     C
C       0.6361    0.697   0.6476     C
C       0.6361    0.803   0.1476     C
H       0.6367   0.6171   0.8314     H
H       0.6367   0.8829   0.3314     H
H       0.6383   0.1883   0.9179     H
H       0.6383   0.3117   0.4179     H
H        0.639   0.6571   0.5572     H
H        0.639   0.8429   0.0572     H
C       0.6404   0.6514    0.593     C
C       0.6404   0.8486    0.093     C
C       0.6405   0.6265    0.866     C
C       0.6405   0.8735    0.366     C
Co     0.64369  0.16836  0.78948    Co
Co     0.64369  0.33164  0.28948    Co
O      0.64426  0.17188  0.21058     O
O      0.64426  0.32812  0.71058     O
O       0.6461   0.7171   0.8774     O
O       0.6461   0.7829   0.3774     O
H       0.6468   0.7494    0.735     H
H       0.6468   0.7506    0.235     H
H       0.6473   0.2367   0.5336     H
H       0.6473   0.2633   0.0336     H
C       0.6476   0.6361    0.697     C
C       0.6476   0.8639    0.197     C
O       0.6485   0.2142   0.6736     O
O       0.6485   0.2858   0.1736     O
H       0.6497   0.6286   0.7325     H
H       0.6497   0.8714   0.2325     H
C       0.6507   0.0553   0.7791     C
C       0.6507   0.4447   0.2791     C
C       0.6514    0.593   0.6404     C
C       0.6514    0.907   0.1404     C
H       0.6532   0.2264   0.1117     H
H       0.6532   0.2736   0.6117     H
H       0.6545   0.5188   0.2631     H
H       0.6545   0.9812   0.7631     H
H       0.6571   0.5572    0.639     H
H       0.6571   0.9428    0.139     H
H       0.6583   0.7022   0.7687     H
H       0.6583   0.7978   0.2687     H
O      0.65833  0.18654  0.39845     O
O      0.65833  0.31346  0.89845     O
H       0.6589   0.6006   0.8838     H
H       0.6589   0.8994   0.3838     H
C       0.6597   0.2134   0.4448     C
C       0.6597   0.2866   0.9448     C
Co     0.66149    0.132  0.27524    Co
Co     0.66149    0.368  0.77524    Co
C       0.6643   0.6181   0.6078     C
C       0.6643   0.8819   0.1078     C
H       0.6664   0.5886   0.3071     H
H       0.6664   0.9114   0.8071     H
C       0.6673   0.2347   0.0378     C
C       0.6673   0.2653   0.5378     C
Co     0.66836  0.71052  0.35631    Co
Co     0.66836  0.78948  0.85631    Co
H       0.6686   0.1367   0.6171     H
H       0.6686   0.3633   0.1171     H
C         0.67   0.6772   0.8697     C
C         0.67   0.8228   0.3697     C
C       0.6706   0.6814   0.6234     C
C       0.6706   0.8186   0.1234     C
C       0.6707   0.0072   0.7803     C
C       0.6707   0.4928   0.2803     C
C        0.671   0.2119   0.0851     C
C        0.671   0.2881   0.5851     C
N       0.6713   0.0945   0.8019     N
N       0.6713   0.4055   0.3019     N
O      0.67188  0.21058  0.85574     O
O      0.67188  0.28942  0.35574     O
H       0.6719    0.191   0.4711     H
H       0.6719    0.309   0.9711     H
C       0.6725   0.1966   0.9075     C
C       0.6725   0.3034   0.4075     C
O       0.6736   0.6485   0.2142     O
O       0.6736   0.8515   0.7142     O
C       0.6737   0.7304    0.751     C
C       0.6737   0.7696    0.251     C
C       0.6753   0.6753   0.6753     C
C       0.6753   0.8247   0.1753     C
Co     0.67535  0.23982  0.23207    Co
Co     0.67535  0.26018  0.73207    Co
C       0.6772   0.6303     0.17     C
C       0.6772   0.8697     0.67     C
H       0.6791   0.5984   0.5811     H
H       0.6791   0.9016   0.0811     H
C       0.6814   0.6234   0.6706     C
C       0.6814   0.8766   0.1706     C
O      0.68654  0.10155  0.34167     O
O      0.68654  0.39845  0.84167     O
H       0.6883   0.5821   0.3617     H
H       0.6883   0.9179   0.8617     H
H       0.6894   0.7082   0.6078     H
H       0.6894   0.7918   0.1078     H
H        0.691   0.0289   0.3281     H
H        0.691   0.4711   0.8281     H
H       0.6929   0.1664   0.9114     H
H       0.6929   0.3336   0.4114     H
C       0.6932   0.2148    0.997     C
C       0.6932   0.2852    0.497     C
C       0.6936   0.2384   0.9436     C
C       0.6936   0.2616   0.4436     C
C       0.6966   0.5925   0.3275     C
C       0.6966   0.9075   0.8275     C
C        0.697   0.6476   0.6361     C
C        0.697   0.8524   0.1361     C
N       0.6981   0.1713   0.0945     N
N       0.6981   0.3287   0.5945     N
O      0.69832  0.73807  0.28674     O
O      0.69832  0.76193  0.78674     O
O      0.70004  0.20004  0.29996     O
O      0.70004  0.29996  0.79996     O
H       0.7022   0.7313   0.1583     H
H       0.7022   0.7687   0.6583     H
H       0.7082   0.6078   0.6894     H
H       0.7082   0.8922   0.1894     H
C       0.7092   0.7092   0.7092     C
C       0.7092   0.7908   0.2092     C
Co     0.71052  0.14369  0.16836    Co
Co     0.71052  0.35631  0.66836    Co
O      0.71058  0.64426  0.32812     O
O      0.71058  0.85574  0.82812     O
C       0.7119   0.0851    0.829     C
C       0.7119   0.4149    0.329     C
O      0.71326  0.19832  0.76193     O
O      0.71326  0.30168  0.26193     O
C       0.7134   0.0552   0.3403     C
C       0.7134   0.4448   0.8403     C
O       0.7142   0.6736   0.8515     O
O       0.7142   0.8264   0.3515     O
C       0.7148    0.503   0.3068     C
C       0.7148    0.997   0.8068     C
O       0.7171   0.6226   0.1461     O
O       0.7171   0.8774   0.6461     O
C       0.7197   0.1707   0.0072     C
C       0.7197   0.3293   0.5072     C
C       0.7209   0.1507   0.0553     C
C       0.7209   0.3493   0.5553     C
H       0.7227   0.5616   0.2294     H
H       0.7227   0.9384   0.7294     H
H       0.7233   0.0396   0.2396     H
H       0.7233   0.0463   0.3745     H
H       0.7233   0.4537   0.8745     H
H       0.7233   0.4604   0.7396     H
Co     0.72476  0.16149    0.368    Co
Co     0.72476  0.33851    0.868    Co
O      0.72575  0.11389  0.24095     O
O      0.72575  0.38611  0.74095     O
H       0.7264   0.1117   0.8468     H
H       0.7264   0.3883   0.3468     H
H       0.7294   0.7227   0.9384     H
H       0.7294   0.7773   0.4384     H
C       0.7304    0.749   0.1737     C
C       0.7304    0.751   0.6737     C
H       0.7313   0.1583   0.7022     H
H       0.7313   0.3417   0.2022     H
Co     0.73207  0.67535  0.26018    Co
Co     0.73207  0.82465  0.76018    Co
H       0.7325   0.6497   0.6286     H
H       0.7325   0.8503   0.1286     H
C       0.7347   0.0378   0.8327     C
C       0.7347   0.4622   0.3327     C
H        0.735   0.6468   0.7494     H
H        0.735   0.8532   0.2494     H
H       0.7367   0.5336   0.8527     H
H       0.7367   0.9664   0.3527     H
H       0.7369   0.1545   0.9812     H
H       0.7369   0.3455   0.4812     H
O      0.73807  0.21326  0.19832     O
O      0.73807  0.28674  0.69832     O
C       0.7384   0.5564   0.3064     C
C       0.7384   0.9436   0.8064     C
H       0.7389   0.1209   0.0604     H
H       0.7389   0.3791   0.5604     H
H       0.7396   0.7233   0.4604     H
H       0.7396   0.7767   0.9604     H
Co     0.73982  0.23207  0.82465    Co
Co     0.73982  0.26793  0.32465    Co
O      0.74095  0.72575  0.38611     O
O      0.74095  0.77425  0.88611     O
C       0.7473   0.0653     0.25     C
C       0.7473   0.4347     0.75     C
C        0.749   0.1737   0.7304     C
C        0.749   0.3263   0.2304     C
H       0.7494    0.735   0.6468     H
H       0.7494    0.765   0.1468     H
C         0.75   0.2473   0.4347     C
C         0.75   0.2527   0.9347     C
C         0.75   0.7473   0.4347     C
C         0.75   0.7527   0.9347     C
H       0.7506    0.235   0.6468     H
H       0.7506    0.265   0.1468     H
C        0.751   0.6737   0.7304     C
C        0.751   0.8263   0.2304     C
C       0.7527   0.5653     0.25     C
C       0.7527   0.9347     0.75     C
O      0.75905  0.22575  0.38611     O
O      0.75905  0.27425  0.88611     O
Co     0.76018  0.73207  0.82465    Co
Co     0.76018  0.76793  0.32465    Co
H       0.7604   0.2233   0.4604     H
H       0.7604   0.2767   0.9604     H
H       0.7611   0.6209   0.0604     H
H       0.7611   0.8791   0.5604     H
C       0.7616   0.0564   0.3064     C
C       0.7616   0.4436   0.8064     C
O      0.76193  0.71326  0.19832     O
O      0.76193  0.78674  0.69832     O
H       0.7631   0.6545   0.9812     H
H       0.7631   0.8455   0.4812     H
H       0.7633   0.0336   0.8527     H
H       0.7633   0.4664   0.3527     H
H        0.765   0.1468   0.7494     H
H        0.765   0.3532   0.2494     H
C       0.7653   0.5378   0.8327     C
C       0.7653   0.9622   0.3327     C
H       0.7675   0.1497   0.6286     H
H       0.7675   0.3503   0.1286     H
Co     0.76793  0.17535  0.26018    Co
Co     0.76793  0.32465  0.76018    Co
H       0.7687   0.6583   0.7022     H
H       0.7687   0.8417   0.2022     H
C       0.7696    0.249   0.1737     C
C       0.7696    0.251   0.6737     C
H       0.7706   0.2227   0.9384     H
H       0.7706   0.2773   0.4384     H
H       0.7736   0.6117   0.8468     H
H       0.7736   0.8883   0.3468     H
O      0.77425  0.61389  0.24095     O
O      0.77425  0.88611  0.74095     O
Co     0.77524  0.66149    0.368    Co
Co     0.77524  0.83851    0.868    Co
H       0.7767   0.5396   0.2396     H
H       0.7767   0.5463   0.3745     H
H       0.7767   0.9537   0.8745     H
H       0.7767   0.9604   0.7396     H
H       0.7773   0.0616   0.2294     H
H       0.7773   0.4384   0.7294     H
C       0.7791   0.6507   0.0553     C
C       0.7791   0.8493   0.5553     C
C       0.7803   0.6707   0.0072     C
C       0.7803   0.8293   0.5072     C
O       0.7829   0.1226   0.1461     O
O       0.7829   0.3774   0.6461     O
C       0.7852    0.003   0.3068     C
C       0.7852    0.497   0.8068     C
O       0.7858   0.1736   0.8515     O
O       0.7858   0.3264   0.3515     O
C       0.7866   0.5552   0.3403     C
C       0.7866   0.9448   0.8403     C
O      0.78674  0.69832  0.76193     O
O      0.78674  0.80168  0.26193     O
C       0.7881   0.5851    0.829     C
C       0.7881   0.9149    0.329     C
O      0.78942  0.14426  0.32812     O
O      0.78942  0.35574  0.82812     O
Co     0.78948  0.64369  0.16836    Co
Co     0.78948  0.85631  0.66836    Co
C       0.7908   0.2092   0.7092     C
C       0.7908   0.2908   0.2092     C
H       0.7918   0.1078   0.6894     H
H       0.7918   0.3922   0.1894     H
H       0.7978   0.2313   0.1583     H
H       0.7978   0.2687   0.6583     H
O      0.79996  0.70004  0.29996     O
O      0.79996  0.79996  0.79996     O
O      0.80168  0.23807  0.28674     O
O      0.80168  0.26193  0.78674     O
N       0.8019   0.6713   0.0945     N
N       0.8019   0.8287   0.5945     N
C        0.803   0.1476   0.6361     C
C        0.803   0.3524   0.1361     C
C       0.8034   0.0925   0.3275     C
C       0.8034   0.4075   0.8275     C
C       0.8064   0.7384   0.9436     C
C       0.8064   0.7616   0.4436     C
C       0.8068   0.7148    0.997     C
C       0.8068   0.7852    0.497     C
H       0.8071   0.6664   0.9114     H
H       0.8071   0.8336   0.4114     H
H        0.809   0.5289   0.3281     H
H        0.809   0.9711   0.8281     H
H       0.8106   0.2082   0.6078     H
H       0.8106   0.2918   0.1078     H
H       0.8117   0.0821   0.3617     H
H       0.8117   0.4179   0.8617     H
O      0.81346  0.60155  0.34167     O
O      0.81346  0.89845  0.84167     O
C       0.8186   0.1234   0.6706     C
C       0.8186   0.3766   0.1706     C
H       0.8209   0.0984   0.5811     H
H       0.8209   0.4016   0.0811     H
C       0.8228   0.1303     0.17     C
C       0.8228   0.3697     0.67     C
Co     0.82465  0.73982  0.23207    Co
Co     0.82465  0.76018  0.73207    Co
C       0.8247   0.1753   0.6753     C
C       0.8247   0.3247   0.1753     C
C       0.8263   0.2304    0.751     C
C       0.8263   0.2696    0.251     C
O       0.8264   0.1485   0.2142     O
O       0.8264   0.3515   0.7142     O
C       0.8275   0.6966   0.9075     C
C       0.8275   0.8034   0.4075     C
H       0.8281    0.691   0.4711     H
H       0.8281    0.809   0.9711     H
O      0.82812  0.71058  0.85574     O
O      0.82812  0.78942  0.35574     O
N       0.8287   0.5945   0.8019     N
N       0.8287   0.9055   0.3019     N
C        0.829   0.7119   0.0851     C
C        0.829   0.7881   0.5851     C
C       0.8293   0.5072   0.7803     C
C       0.8293   0.9928   0.2803     C
C       0.8294   0.1814   0.6234     C
C       0.8294   0.3186   0.1234     C
C         0.83   0.1772   0.8697     C
C         0.83   0.3228   0.3697     C
H       0.8314   0.6367   0.6171     H
H       0.8314   0.8633   0.1171     H
Co     0.83164  0.21052  0.35631    Co
Co     0.83164  0.28948  0.85631    Co
C       0.8327   0.7347   0.0378     C
C       0.8327   0.7653   0.5378     C
H       0.8336   0.0886   0.3071     H
H       0.8336   0.4114   0.8071     H
C       0.8357   0.1181   0.6078     C
C       0.8357   0.3819   0.1078     C
Co     0.83851    0.632  0.27524    Co
Co     0.83851    0.868  0.77524    Co
C       0.8403   0.7134   0.4448     C
C       0.8403   0.7866   0.9448     C
H       0.8411   0.1006   0.8838     H
H       0.8411   0.3994   0.3838     H
O      0.84167  0.68654  0.39845     O
O      0.84167  0.81346  0.89845     O
H       0.8417   0.2022   0.7687     H
H       0.8417   0.2978   0.2687     H
H       0.8429   0.0572    0.639     H
H       0.8429   0.4428    0.139     H
H       0.8455   0.0188   0.2631     H
H       0.8455   0.4812   0.7631     H
H       0.8468   0.7264   0.1117     H
H       0.8468   0.7736   0.6117     H
C       0.8486    0.093   0.6404     C
C       0.8486    0.407   0.1404     C
C       0.8493   0.5553   0.7791     C
C       0.8493   0.9447   0.2791     C
H       0.8503   0.1286   0.7325     H
H       0.8503   0.3714   0.2325     H
O       0.8515   0.7142   0.6736     O
O       0.8515   0.7858   0.1736     O
C       0.8524   0.1361    0.697     C
C       0.8524   0.3639    0.197     C
H       0.8527   0.7367   0.5336     H
H       0.8527   0.7633   0.0336     H
H       0.8532   0.2494    0.735     H
H       0.8532   0.2506    0.235     H
O       0.8539   0.2171   0.8774     O
O       0.8539   0.2829   0.3774     O
O      0.85574  0.67188  0.21058     O
O      0.85574  0.82812  0.71058     O
Co     0.85631  0.66836  0.78948    Co
Co     0.85631  0.83164  0.28948    Co
C       0.8595   0.1265    0.866     C
C       0.8595   0.3735    0.366     C
C       0.8596   0.1514    0.593     C
C       0.8596   0.3486    0.093     C
H        0.861   0.1571   0.5572     H
H        0.861   0.3429   0.0572     H
H       0.8617   0.6883   0.9179     H
H       0.8617   0.8117   0.4179     H
H       0.8633   0.1171   0.8314     H
H       0.8633   0.3829   0.3314     H
C       0.8639    0.197   0.6476     C
C       0.8639    0.303   0.1476     C
C        0.866   0.6405   0.6265     C
C        0.866   0.8595   0.1265     C
Co       0.868  0.72476  0.33851    Co
Co       0.868  0.77524  0.83851    Co
H       0.8695   0.1186   0.1078     H
H       0.8695   0.3814   0.6078     H
C       0.8697     0.67   0.6772     C
C       0.8697     0.83   0.1772     C
H       0.8714   0.2325   0.6497     H
H       0.8714   0.2675   0.1497     H
C       0.8735    0.134   0.1405     C
C       0.8735    0.366   0.6405     C
H       0.8745   0.7233   0.4537     H
H       0.8745   0.7767   0.9537     H
C       0.8766   0.1706   0.6814     C
C       0.8766   0.3294   0.1814     C
O       0.8774   0.6461   0.7171     O
O       0.8774   0.8539   0.2171     O
H       0.8791   0.5604   0.7611     H
H       0.8791   0.9396   0.2611     H
H       0.8814   0.6078   0.6305     H
H       0.8814   0.8922   0.1305     H
C       0.8819   0.1078   0.6643     C
C       0.8819   0.3922   0.1643     C
Co     0.88223  0.61777  0.38223    Co
Co     0.88223  0.88223  0.88223    Co
H       0.8829   0.1686   0.1367     H
H       0.8829   0.3314   0.6367     H
H       0.8838   0.6589   0.6006     H
H       0.8838   0.8411   0.1006     H
N        0.886    0.114    0.614     N
N        0.886    0.386    0.114     N
O      0.88611  0.74095  0.77425     O
O      0.88611  0.75905  0.27425     O
H       0.8883   0.1532   0.2736     H
H       0.8883   0.3468   0.7736     H
H       0.8922   0.1305   0.8814     H
C       0.8922   0.1643   0.6181     C
H       0.8922   0.1894   0.7082     H
H       0.8922   0.3106   0.2082     H
C       0.8922   0.3357   0.1181     C
H       0.8922   0.3695   0.3814     H
O      0.89845  0.65833  0.31346     O
O      0.89845  0.84167  0.81346     O
H       0.8994   0.1162   0.1589     H
H       0.8994   0.3838   0.6589     H
H       0.9016   0.0811   0.6791     H
H       0.9016   0.4189   0.1791     H
N       0.9055   0.1981   0.3287     N
N       0.9055   0.3019   0.8287     N
C        0.907   0.1404   0.6514     C
C        0.907   0.3596   0.1514     C
C       0.9075   0.6725   0.1966     C
C       0.9075   0.8275   0.6966     C
H       0.9114   0.6929   0.1664     H
H       0.9114   0.8071   0.6664     H
C       0.9149    0.171   0.2881     C
C       0.9149    0.329   0.7881     C
H       0.9179   0.6383   0.1883     H
H       0.9179   0.8617   0.6883     H
H       0.9189   0.1791   0.5984     H
H       0.9189   0.3209   0.0984     H
C       0.9347     0.75   0.2527     C
C       0.9347     0.75   0.7527     C
H       0.9384   0.7294   0.7227     H
H       0.9384   0.7706   0.2227     H
H       0.9396   0.2389   0.3791     H
H       0.9396   0.2611   0.8791     H
H       0.9428    0.139   0.6571     H
H       0.9428    0.361   0.1571     H
C       0.9436   0.6936   0.2384     C
C       0.9436   0.8064   0.7384     C
C       0.9447   0.2209   0.3493     C
C       0.9447   0.2791   0.8493     C
C       0.9448   0.6597   0.2866     C
C       0.9448   0.8403   0.7866     C
H       0.9537   0.6255   0.2767     H
H       0.9537   0.8745   0.7767     H
H       0.9604   0.7396   0.7767     H
H       0.9604   0.7604   0.2767     H
C       0.9622   0.1673   0.2653     C
C       0.9622   0.3327   0.7653     C
H       0.9664   0.1473   0.2367     H
H       0.9664   0.3527   0.7367     H
H       0.9711   0.6719    0.309     H
H       0.9711   0.8281    0.809     H
H       0.9812   0.7369   0.1545     H
H       0.9812   0.7631   0.6545     H
C       0.9928   0.2197   0.3293     C
C       0.9928   0.2803   0.8293     C
C        0.997   0.6932   0.2148     C
C        0.997   0.8068   0.7148     C
