data_I
_chemical_name_common  '/home/zhangsd/repos/MofS-CGCNN/ML/data/TSD/clean_cifs/GEZYOB_clean'
_cell_length_a 13.41250
_cell_length_b 13.41250
_cell_length_c 27.80030
_cell_angle_alpha 90.00000
_cell_angle_beta  90.00000
_cell_angle_gamma 120.00000
_space_group_name_H-M_alt      'P 1'


loop_
_space_group_symop_operation_xyz
  'x, y, z' 

loop_
_atom_site_label
_atom_site_fract_x
_atom_site_fract_y
_atom_site_fract_z
_atom_site_type_symbol
V          0.0      0.0      0.0     V
V          0.0      0.0  0.16429     V
V          0.0      0.0  0.33571     V
V          0.0      0.0      0.5     V
V          0.0      0.0  0.66429     V
V          0.0      0.0  0.83571     V
O       0.0005   0.5697  0.04991     O
O       0.0005   0.5697  0.45009     O
P      0.02467  0.18748  0.58404     P
P      0.02467  0.18748  0.91596     P
O       0.0286   0.8922   0.0405     O
O       0.0286   0.8922   0.4595     O
H        0.036     0.23     0.75     H
O       0.0526   0.3106  0.02606     O
O       0.0526   0.3106  0.47394     O
H         0.06    0.801   0.1039     H
H         0.06    0.801   0.3961     H
O       0.0605   0.1412  0.20447     O
O       0.0605   0.1412  0.29553     O
H        0.065    0.255    0.027     H
H        0.065    0.255    0.473     H
P      0.06594  0.87473     0.25     P
O       0.0704   0.1417  0.62249     O
O       0.0704   0.1417  0.87751     O
O       0.0713   0.9296  0.62249     O
O       0.0713   0.9296  0.87751     O
O       0.0807   0.9395  0.20447     O
O       0.0807   0.9395  0.29553     O
O       0.1078   0.1364   0.0405     O
O       0.1078   0.1364   0.4595     O
H       0.1147   0.7591     0.25     H
O       0.1204    0.307   0.5698     O
O       0.1204    0.307   0.9302     O
P      0.12527  0.19121     0.25     P
P       0.1269  0.63024  0.03614     P
P       0.1269  0.63024  0.46386     P
O       0.1364   0.0286   0.5405     O
O       0.1364   0.0286   0.9595     O
O       0.1412   0.0807  0.70447     O
O       0.1412   0.0807  0.79553     O
O       0.1417   0.0713  0.12249     O
O       0.1417   0.0713  0.37751     O
V      0.14315  0.43566  0.52686     V
V      0.14315  0.43566  0.97314     V
O       0.1502    0.717  0.50377     O
O       0.1502    0.717  0.99623     O
O       0.1506   0.8297     0.25     O
P      0.16281  0.97533  0.58404     P
P      0.16281  0.97533  0.91596     P
H        0.165    0.674   0.0802     H
H        0.165    0.674   0.4198     H
O       0.1682   0.5471  0.02433     O
O       0.1682   0.5471  0.47567     O
O       0.1703   0.3209     0.25     O
O       0.1866   0.8796   0.5698     O
O       0.1866   0.8796   0.9302     O
P      0.18748  0.16281  0.08404     P
P      0.18748  0.16281  0.41596     P
H         0.19    0.935    0.027     H
H         0.19    0.935    0.473     H
P      0.19121  0.06594     0.75     P
H        0.194    0.964     0.75     H
H        0.199    0.259   0.1039     H
H        0.199    0.259   0.3961     H
O       0.2274   0.5534  0.57592     O
O       0.2274   0.5534  0.92408     O
H         0.23    0.194     0.25     H
H       0.2409   0.3556     0.25     H
H        0.255     0.19    0.527     H
H        0.255     0.19    0.973     H
O        0.258   0.9474  0.02606     O
O        0.258   0.9474  0.47394     O
H        0.259     0.06   0.6039     H
H        0.259     0.06   0.8961     H
O        0.283   0.4332  0.50377     O
O        0.283   0.4332  0.99623     O
V      0.29251  0.85685  0.52686     V
V      0.29251  0.85685  0.97314     V
O        0.307   0.1866   0.0698     O
O        0.307   0.1866   0.4302     O
O       0.3106    0.258  0.52606     O
O       0.3106    0.258  0.97394     O
O       0.3209   0.1506     0.75     O
H        0.326    0.491   0.0802     H
H        0.326    0.491   0.4198     H
O        0.326   0.7726  0.57592     O
O        0.326   0.7726  0.92408     O
P      0.33333  0.66667  0.58962     P
H      0.33333  0.66667   0.6384     H
H      0.33333  0.66667   0.8616     H
P      0.33333  0.66667  0.91038     P
H       0.3556   0.1147     0.75     H
P      0.36976  0.49666  0.03614     P
P      0.36976  0.49666  0.46386     P
O       0.3789   0.8318  0.02433     O
O       0.3789   0.8318  0.47567     O
O       0.4303   0.4308  0.04991     O
O       0.4303   0.4308  0.45009     O
O       0.4308   0.0005  0.54991     O
O       0.4308   0.0005  0.95009     O
O       0.4332   0.1502  0.00377     O
O       0.4332   0.1502  0.49623     O
V      0.43566  0.29251  0.02686     V
V      0.43566  0.29251  0.47314     V
O       0.4466    0.674  0.57592     O
O       0.4466    0.674  0.92408     O
O       0.4529   0.6211  0.02433     O
O       0.4529   0.6211  0.47567     O
H        0.491    0.165   0.5802     H
H        0.491    0.165   0.9198     H
P      0.49666   0.1269  0.53614     P
P      0.49666   0.1269  0.96386     P
P      0.50334   0.8731  0.03614     P
P      0.50334   0.8731  0.46386     P
H        0.509    0.835   0.0802     H
H        0.509    0.835   0.4198     H
O       0.5471   0.3789  0.52433     O
O       0.5471   0.3789  0.97567     O
O       0.5534    0.326  0.07592     O
O       0.5534    0.326  0.42408     O
V      0.56434  0.70749  0.52686     V
V      0.56434  0.70749  0.97314     V
O       0.5668   0.8498  0.50377     O
O       0.5668   0.8498  0.99623     O
O       0.5692   0.9995  0.04991     O
O       0.5692   0.9995  0.45009     O
O       0.5697   0.5692  0.54991     O
O       0.5697   0.5692  0.95009     O
O       0.6211   0.1682  0.52433     O
O       0.6211   0.1682  0.97567     O
P      0.63024  0.50334  0.53614     P
P      0.63024  0.50334  0.96386     P
H       0.6444   0.8853     0.25     H
P      0.66667  0.33333  0.08962     P
H      0.66667  0.33333   0.1384     H
H      0.66667  0.33333   0.3616     H
P      0.66667  0.33333  0.41038     P
O        0.674   0.2274  0.07592     O
O        0.674   0.2274  0.42408     O
H        0.674    0.509   0.5802     H
H        0.674    0.509   0.9198     H
O       0.6791   0.8494     0.25     O
O       0.6894    0.742  0.02606     O
O       0.6894    0.742  0.47394     O
O        0.693   0.8134   0.5698     O
O        0.693   0.8134   0.9302     O
V      0.70749  0.14315  0.02686     V
V      0.70749  0.14315  0.47314     V
O        0.717   0.5668  0.00377     O
O        0.717   0.5668  0.49623     O
H        0.741     0.94   0.1039     H
H        0.741     0.94   0.3961     H
O        0.742   0.0526  0.52606     O
O        0.742   0.0526  0.97394     O
H        0.745     0.81    0.027     H
H        0.745     0.81    0.473     H
H       0.7591   0.6444     0.75     H
H         0.77    0.806     0.75     H
O       0.7726   0.4466  0.07592     O
O       0.7726   0.4466  0.42408     O
H        0.801    0.741   0.6039     H
H        0.801    0.741   0.8961     H
H        0.806    0.036     0.25     H
P      0.80879  0.93406     0.25     P
H         0.81    0.065    0.527     H
H         0.81    0.065    0.973     H
P      0.81252  0.83719  0.58404     P
P      0.81252  0.83719  0.91596     P
O       0.8134   0.1204   0.0698     O
O       0.8134   0.1204   0.4302     O
O       0.8297   0.6791     0.75     O
O       0.8318   0.4529  0.52433     O
O       0.8318   0.4529  0.97567     O
H        0.835    0.326   0.5802     H
H        0.835    0.326   0.9198     H
P      0.83719  0.02467  0.08404     P
P      0.83719  0.02467  0.41596     P
O       0.8494   0.1703     0.75     O
O       0.8498    0.283  0.00377     O
O       0.8498    0.283  0.49623     O
V      0.85685  0.56434  0.02686     V
V      0.85685  0.56434  0.47314     V
O       0.8583   0.9287  0.62249     O
O       0.8583   0.9287  0.87751     O
O       0.8588   0.9193  0.20447     O
O       0.8588   0.9193  0.29553     O
O       0.8636   0.9714   0.0405     O
O       0.8636   0.9714   0.4595     O
P       0.8731  0.36976  0.53614     P
P       0.8731  0.36976  0.96386     P
P      0.87473  0.80879     0.75     P
O       0.8796    0.693   0.0698     O
O       0.8796    0.693   0.4302     O
H       0.8853   0.2409     0.75     H
O       0.8922   0.8636   0.5405     O
O       0.8922   0.8636   0.9595     O
O       0.9193   0.0605  0.70447     O
O       0.9193   0.0605  0.79553     O
O       0.9287   0.0704  0.12249     O
O       0.9287   0.0704  0.37751     O
O       0.9296   0.8583  0.12249     O
O       0.9296   0.8583  0.37751     O
P      0.93406  0.12527     0.75     P
H        0.935    0.745    0.527     H
H        0.935    0.745    0.973     H
O       0.9395   0.8588  0.70447     O
O       0.9395   0.8588  0.79553     O
H         0.94    0.199   0.6039     H
H         0.94    0.199   0.8961     H
O       0.9474   0.6894  0.52606     O
O       0.9474   0.6894  0.97394     O
H        0.964     0.77     0.25     H
O       0.9714   0.1078   0.5405     O
O       0.9714   0.1078   0.9595     O
P      0.97533  0.81252  0.08404     P
P      0.97533  0.81252  0.41596     P
O       0.9995   0.4303  0.54991     O
O       0.9995   0.4303  0.95009     O
