data_I
_chemical_name_common  '/home/zhangsd/repos/MofS-CGCNN/ML/data/TSD/clean_cifs/GIFFAE_clean'
_cell_length_a 12.77480
_cell_length_b 12.79760
_cell_length_c 13.33170
_cell_angle_alpha 90.00000
_cell_angle_beta  90.00000
_cell_angle_gamma 90.00000
_space_group_name_H-M_alt      'P 1'


loop_
_space_group_symop_operation_xyz
  'x, y, z' 

loop_
_atom_site_label
_atom_site_fract_x
_atom_site_fract_y
_atom_site_fract_z
_atom_site_type_symbol
C        0.002    0.736    0.489     C
C        0.004    0.364    0.649     C
N        0.006    0.514    0.561     N
O        0.008    0.204    0.569     O
C        0.008    0.252    0.657     C
N        0.008    0.962    0.155     N
C        0.009    0.053    0.213     C
N        0.009    0.409    0.559     N
O        0.014    0.206    0.738     O
C        0.026    0.035    0.322     C
O        0.027    0.114    0.379     O
O        0.032    0.943    0.353     O
Sm      0.0397   0.2919   0.4052    Sm
O        0.041    0.767    0.905     O
Sm      0.0426   0.7893   0.2458    Sm
O        0.047    0.755    0.072     O
C        0.119    0.746     0.49     C
O        0.137     0.71    0.715     O
N        0.163    0.759    0.393     N
O        0.196    0.257      0.3     O
C          0.2     0.75    0.553     C
N        0.207    0.269    0.497     N
C        0.214    0.736    0.664     C
N        0.235    0.272    0.598     N
N        0.265    0.772    0.402     N
C        0.286    0.236    0.336     C
N        0.293    0.769    0.503     N
C          0.3     0.25    0.447     C
O        0.304    0.757      0.7     O
N        0.337    0.259    0.607     N
O        0.363     0.21    0.285     O
C        0.381    0.246     0.51     C
O        0.453    0.255    0.928     O
Sm      0.4574   0.2893   0.7542    Sm
O        0.459    0.267    0.095     O
Sm      0.4603   0.7919   0.5948    Sm
O        0.468    0.443    0.647     O
O        0.473    0.614    0.621     O
C        0.474    0.535    0.678     C
O        0.486    0.706    0.262     O
C        0.491    0.553    0.787     C
N        0.491    0.909    0.441     N
N        0.492    0.462    0.845     N
O        0.492    0.704    0.431     O
C        0.492    0.752    0.343     C
N        0.494    0.014    0.439     N
C        0.496    0.864    0.351     C
C        0.498    0.236    0.511     C
C        0.502    0.264    0.011     C
C        0.504    0.636    0.851     C
N        0.506    0.486    0.939     N
N        0.508    0.038    0.345     N
C        0.508    0.748    0.843     C
O        0.508    0.796    0.931     O
N        0.509    0.591    0.941     N
C        0.509    0.947    0.287     C
O        0.514    0.794    0.762     O
C        0.526    0.965    0.178     C
O        0.527    0.886    0.121     O
O        0.532    0.057    0.147     O
Sm      0.5397   0.7081   0.0948    Sm
O        0.541    0.233    0.595     O
Sm      0.5426   0.2107   0.2542    Sm
O        0.547    0.245    0.428     O
C        0.619    0.254     0.01     C
O        0.637     0.29    0.785     O
N        0.663    0.241    0.107     N
O        0.696    0.743      0.2     O
C          0.7     0.25    0.947     C
N        0.707    0.731    0.003     N
C        0.714    0.264    0.836     C
N        0.735    0.728    0.902     N
N        0.765    0.228    0.098     N
C        0.786    0.764    0.164     C
N        0.793    0.231    0.997     N
C          0.8     0.75    0.053     C
O        0.804    0.243      0.8     O
N        0.837    0.741    0.893     N
O        0.863     0.79    0.215     O
C        0.881    0.754     0.99     C
O        0.953    0.745    0.572     O
Sm      0.9574   0.7107   0.7458    Sm
O        0.959    0.733    0.405     O
Sm      0.9603   0.2081   0.9052    Sm
O        0.968    0.557    0.853     O
O        0.973    0.386    0.879     O
C        0.974    0.465    0.822     C
O        0.986    0.294    0.238     O
N        0.991    0.091    0.059     N
C        0.991    0.447    0.713     C
C        0.992    0.248    0.157     C
O        0.992    0.296    0.069     O
N        0.992    0.538    0.655     N
N        0.994    0.986    0.061     N
C        0.996    0.136    0.149     C
C        0.998    0.764    0.989     C
