data_I
_chemical_name_common  '/home/zhangsd/repos/MofS-CGCNN/ML/data/TSD/clean_cifs/GITVEL_clean'
_cell_length_a 18.02080
_cell_length_b 27.01110
_cell_length_c 27.01110
_cell_angle_alpha 120.00000
_cell_angle_beta  90.00000
_cell_angle_gamma 90.00000
_space_group_name_H-M_alt      'P 1'


loop_
_space_group_symop_operation_xyz
  'x, y, z' 

loop_
_atom_site_label
_atom_site_fract_x
_atom_site_fract_y
_atom_site_fract_z
_atom_site_type_symbol
C          0.0   0.3876     -0.0     C
C          0.0   0.3876   0.3876     C
H          0.0    0.422     -0.0     H
H          0.0    0.422    0.422     H
H          0.0    0.578     -0.0     H
H          0.0    0.578    0.578     H
C          0.0   0.6124   0.6124     C
H          0.0      1.0    0.422     H
C       0.0176    0.326   0.0254     C
C       0.0176    0.326   0.3006     C
C       0.0176   0.6994   0.0254     C
C       0.0176   0.6994    0.674     C
C       0.0176   0.9746   0.3006     C
C       0.0176   0.9746    0.674     C
C       0.0177   0.1828    0.415     C
C       0.0177   0.1828   0.7678     C
C       0.0177   0.2322    0.415     C
C       0.0177   0.2322   0.8172     C
C       0.0177    0.585   0.7678     C
C       0.0177    0.585   0.8172     C
C       0.0262   0.1127   0.5323     C
C       0.0262   0.1127   0.5804     C
C       0.0262   0.4196   0.5323     C
C       0.0262   0.4196   0.8873     C
C       0.0262   0.4677   0.5804     C
C       0.0262   0.4677   0.8873     C
N       0.0279  0.38187  0.04234     N
N       0.0279  0.38187  0.33953     N
N       0.0279  0.66047  0.04234     N
N       0.0279  0.66047  0.61813     N
N       0.0279  0.95766  0.33953     N
N       0.0279  0.95766  0.61813     N
H       0.0323   0.3081   0.0456     H
H       0.0323   0.3081   0.2625     H
H       0.0323   0.7375   0.0456     H
H       0.0323   0.7375   0.6919     H
H       0.0323   0.9544   0.2625     H
H       0.0323   0.9544   0.6919     H
N       0.0456  0.44194  0.17962     N
N       0.0456  0.44194  0.26232     N
N       0.0456  0.73768  0.17962     N
N       0.0456  0.73768  0.55806     N
N       0.0456  0.82038  0.26232     N
N       0.0456  0.82038  0.55806     N
N       0.0463  0.51737  0.11764     N
N       0.0463  0.51737  0.39973     N
N       0.0463  0.60027  0.11764     N
N       0.0463  0.60027  0.48263     N
N       0.0463  0.88236  0.39973     N
N       0.0463  0.88236  0.48263     N
H       0.0546    0.155   0.3993     H
H       0.0546    0.155   0.7557     H
H       0.0546   0.2443   0.3993     H
H       0.0546   0.2443    0.845     H
H       0.0546   0.6007   0.7557     H
H       0.0546   0.6007    0.845     H
H       0.0683   0.1099   0.5111     H
H       0.0683   0.1099   0.5988     H
H       0.0683   0.4012   0.5111     H
H       0.0683   0.4012   0.8901     H
H       0.0683   0.4889   0.5988     H
H       0.0683   0.4889   0.8901     H
C       0.0773    0.443   0.2215     C
C       0.0773   0.7785   0.2215     C
C       0.0773   0.7785    0.557     C
C       0.0791  0.55375   0.1075     C
C       0.0791  0.55375  0.44625     C
C       0.0791   0.8925  0.44625     C
Zn     0.07967  0.44353  0.11074    Zn
Zn     0.07967  0.44353  0.33279    Zn
Zn     0.07967  0.66721  0.11074    Zn
Zn     0.07967  0.66721  0.55647    Zn
Zn     0.07967  0.88926  0.33279    Zn
Zn     0.07967  0.88926  0.55647    Zn
H        0.127   0.5464   0.0928     H
H        0.127   0.5464   0.4536     H
H        0.127   0.9072   0.4536     H
H       0.1288   0.4446   0.2223     H
H       0.1288   0.7777   0.2223     H
H       0.1288   0.7777   0.5554     H
H       0.1828   0.3457   0.0163     H
H       0.1828   0.3457   0.3294     H
H       0.1828   0.6706   0.0163     H
H       0.1828   0.6706   0.6543     H
H       0.1828   0.9837   0.3294     H
H       0.1828   0.9837   0.6543     H
N       0.1879   0.4223    0.091     N
N       0.1879   0.4223   0.3313     N
N       0.1879   0.6687    0.091     N
N       0.1879   0.6687   0.5777     N
N       0.1879    0.909   0.3313     N
N       0.1879    0.909   0.5777     N
O       0.1903   0.5225   0.1904     O
O       0.1903   0.5225   0.3321     O
O       0.1903   0.6679   0.1904     O
O       0.1903   0.6679   0.4775     O
O       0.1903   0.8096   0.3321     O
O       0.1903   0.8096   0.4775     O
C       0.2127   0.3741    0.044     C
C       0.2127   0.3741   0.3301     C
C       0.2127   0.6699    0.044     C
C       0.2127   0.6699   0.6259     C
C       0.2127    0.956   0.3301     C
C       0.2127    0.956   0.6259     C
C         0.25   0.4472   0.1158     C
C         0.25   0.4472   0.3314     C
N         0.25   0.5012   0.1694     N
N         0.25   0.5012   0.3318     N
N         0.25   0.6682   0.1694     N
N         0.25   0.6682   0.4988     N
C         0.25   0.6686   0.1158     C
C         0.25   0.6686   0.5528     C
N         0.25   0.8306   0.3318     N
N         0.25   0.8306   0.4988     N
C         0.25   0.8842   0.3314     C
C         0.25   0.8842   0.5528     C
C       0.2873   0.3741    0.044     C
C       0.2873   0.3741   0.3301     C
C       0.2873   0.6699    0.044     C
C       0.2873   0.6699   0.6259     C
C       0.2873    0.956   0.3301     C
C       0.2873    0.956   0.6259     C
O       0.3097   0.5225   0.1904     O
O       0.3097   0.5225   0.3321     O
O       0.3097   0.6679   0.1904     O
O       0.3097   0.6679   0.4775     O
O       0.3097   0.8096   0.3321     O
O       0.3097   0.8096   0.4775     O
N       0.3121   0.4223    0.091     N
N       0.3121   0.4223   0.3313     N
N       0.3121   0.6687    0.091     N
N       0.3121   0.6687   0.5777     N
N       0.3121    0.909   0.3313     N
N       0.3121    0.909   0.5777     N
H       0.3172   0.3457   0.0163     H
H       0.3172   0.3457   0.3294     H
H       0.3172   0.6706   0.0163     H
H       0.3172   0.6706   0.6543     H
H       0.3172   0.9837   0.3294     H
H       0.3172   0.9837   0.6543     H
H       0.3712   0.4446   0.2223     H
H       0.3712   0.7777   0.2223     H
H       0.3712   0.7777   0.5554     H
H        0.373   0.5464   0.0928     H
H        0.373   0.5464   0.4536     H
H        0.373   0.9072   0.4536     H
Zn     0.42033  0.44353  0.11074    Zn
Zn     0.42033  0.44353  0.33279    Zn
Zn     0.42033  0.66721  0.11074    Zn
Zn     0.42033  0.66721  0.55647    Zn
Zn     0.42033  0.88926  0.33279    Zn
Zn     0.42033  0.88926  0.55647    Zn
C       0.4209  0.55375   0.1075     C
C       0.4209  0.55375  0.44625     C
C       0.4209   0.8925  0.44625     C
C       0.4227    0.443   0.2215     C
C       0.4227   0.7785   0.2215     C
C       0.4227   0.7785    0.557     C
H       0.4317   0.1099   0.5111     H
H       0.4317   0.1099   0.5988     H
H       0.4317   0.4012   0.5111     H
H       0.4317   0.4012   0.8901     H
H       0.4317   0.4889   0.5988     H
H       0.4317   0.4889   0.8901     H
H       0.4454    0.155   0.3993     H
H       0.4454    0.155   0.7557     H
H       0.4454   0.2443   0.3993     H
H       0.4454   0.2443    0.845     H
H       0.4454   0.6007   0.7557     H
H       0.4454   0.6007    0.845     H
N       0.4537  0.51737  0.11764     N
N       0.4537  0.51737  0.39973     N
N       0.4537  0.60027  0.11764     N
N       0.4537  0.60027  0.48263     N
N       0.4537  0.88236  0.39973     N
N       0.4537  0.88236  0.48263     N
N       0.4544  0.44194  0.17962     N
N       0.4544  0.44194  0.26232     N
N       0.4544  0.73768  0.17962     N
N       0.4544  0.73768  0.55806     N
N       0.4544  0.82038  0.26232     N
N       0.4544  0.82038  0.55806     N
H       0.4677   0.3081   0.0456     H
H       0.4677   0.3081   0.2625     H
H       0.4677   0.7375   0.0456     H
H       0.4677   0.7375   0.6919     H
H       0.4677   0.9544   0.2625     H
H       0.4677   0.9544   0.6919     H
N       0.4721  0.38187  0.04234     N
N       0.4721  0.38187  0.33953     N
N       0.4721  0.66047  0.04234     N
N       0.4721  0.66047  0.61813     N
N       0.4721  0.95766  0.33953     N
N       0.4721  0.95766  0.61813     N
C       0.4738   0.1127   0.5323     C
C       0.4738   0.1127   0.5804     C
C       0.4738   0.4196   0.5323     C
C       0.4738   0.4196   0.8873     C
C       0.4738   0.4677   0.5804     C
C       0.4738   0.4677   0.8873     C
C       0.4823   0.1828    0.415     C
C       0.4823   0.1828   0.7678     C
C       0.4823   0.2322    0.415     C
C       0.4823   0.2322   0.8172     C
C       0.4823    0.585   0.7678     C
C       0.4823    0.585   0.8172     C
C       0.4824    0.326   0.0254     C
C       0.4824    0.326   0.3006     C
C       0.4824   0.6994   0.0254     C
C       0.4824   0.6994    0.674     C
C       0.4824   0.9746   0.3006     C
C       0.4824   0.9746    0.674     C
C          0.5      0.0   0.3876     C
C          0.5   0.3876     -0.0     C
C          0.5   0.3876   0.3876     C
H          0.5    0.422      0.0     H
H          0.5    0.422    0.422     H
H          0.5    0.578      0.0     H
H          0.5    0.578    0.578     H
C          0.5   0.6124      0.0     C
C          0.5   0.6124   0.6124     C
H          0.5      1.0    0.422     H
H          0.5      1.0    0.578     H
C          0.5      1.0   0.6124     C
C       0.5176   0.0254    0.326     C
C       0.5176   0.0254   0.6994     C
C       0.5176   0.3006    0.326     C
C       0.5176   0.3006   0.9746     C
C       0.5176    0.674   0.6994     C
C       0.5176    0.674   0.9746     C
C       0.5177    0.415   0.1828     C
C       0.5177    0.415   0.2322     C
C       0.5177   0.7678   0.1828     C
C       0.5177   0.7678    0.585     C
C       0.5177   0.8172   0.2322     C
C       0.5177   0.8172    0.585     C
C       0.5262   0.5323   0.1127     C
C       0.5262   0.5323   0.4196     C
C       0.5262   0.5804   0.1127     C
C       0.5262   0.5804   0.4677     C
C       0.5262   0.8873   0.4196     C
C       0.5262   0.8873   0.4677     C
N       0.5279  0.04234  0.38187     N
N       0.5279  0.04234  0.66047     N
N       0.5279  0.33953  0.38187     N
N       0.5279  0.33953  0.95766     N
N       0.5279  0.61813  0.66047     N
N       0.5279  0.61813  0.95766     N
H       0.5323   0.0456   0.3081     H
H       0.5323   0.0456   0.7375     H
H       0.5323   0.2625   0.3081     H
H       0.5323   0.2625   0.9544     H
H       0.5323   0.6919   0.7375     H
H       0.5323   0.6919   0.9544     H
N       0.5456  0.17962  0.44194     N
N       0.5456  0.17962  0.73768     N
N       0.5456  0.26232  0.44194     N
N       0.5456  0.26232  0.82038     N
N       0.5456  0.55806  0.73768     N
N       0.5456  0.55806  0.82038     N
N       0.5463  0.11764  0.51737     N
N       0.5463  0.11764  0.60027     N
N       0.5463  0.39973  0.51737     N
N       0.5463  0.39973  0.88236     N
N       0.5463  0.48263  0.60027     N
N       0.5463  0.48263  0.88236     N
H       0.5546   0.3993    0.155     H
H       0.5546   0.3993   0.2443     H
H       0.5546   0.7557    0.155     H
H       0.5546   0.7557   0.6007     H
H       0.5546    0.845   0.2443     H
H       0.5546    0.845   0.6007     H
H       0.5683   0.5111   0.1099     H
H       0.5683   0.5111   0.4012     H
H       0.5683   0.5988   0.1099     H
H       0.5683   0.5988   0.4889     H
H       0.5683   0.8901   0.4012     H
H       0.5683   0.8901   0.4889     H
C       0.5773   0.2215    0.443     C
C       0.5773   0.2215   0.7785     C
C       0.5773    0.557   0.7785     C
C       0.5791   0.1075  0.55375     C
C       0.5791  0.44625  0.55375     C
C       0.5791  0.44625   0.8925     C
Zn     0.57967  0.11074  0.44353    Zn
Zn     0.57967  0.11074  0.66721    Zn
Zn     0.57967  0.33279  0.44353    Zn
Zn     0.57967  0.33279  0.88926    Zn
Zn     0.57967  0.55647  0.66721    Zn
Zn     0.57967  0.55647  0.88926    Zn
H        0.627   0.0928   0.5464     H
H        0.627   0.4536   0.5464     H
H        0.627   0.4536   0.9072     H
H       0.6288   0.2223   0.4446     H
H       0.6288   0.2223   0.7777     H
H       0.6288   0.5554   0.7777     H
H       0.6828   0.0163   0.3457     H
H       0.6828   0.0163   0.6706     H
H       0.6828   0.3294   0.3457     H
H       0.6828   0.3294   0.9837     H
H       0.6828   0.6543   0.6706     H
H       0.6828   0.6543   0.9837     H
N       0.6879    0.091   0.4223     N
N       0.6879    0.091   0.6687     N
N       0.6879   0.3313   0.4223     N
N       0.6879   0.3313    0.909     N
N       0.6879   0.5777   0.6687     N
N       0.6879   0.5777    0.909     N
O       0.6903   0.1904   0.5225     O
O       0.6903   0.1904   0.6679     O
O       0.6903   0.3321   0.5225     O
O       0.6903   0.3321   0.8096     O
O       0.6903   0.4775   0.6679     O
O       0.6903   0.4775   0.8096     O
C       0.7127    0.044   0.3741     C
C       0.7127    0.044   0.6699     C
C       0.7127   0.3301   0.3741     C
C       0.7127   0.3301    0.956     C
C       0.7127   0.6259   0.6699     C
C       0.7127   0.6259    0.956     C
C         0.75   0.1158   0.4472     C
C         0.75   0.1158   0.6686     C
N         0.75   0.1694   0.5012     N
N         0.75   0.1694   0.6682     N
C         0.75   0.3314   0.4472     C
C         0.75   0.3314   0.8842     C
N         0.75   0.3318   0.5012     N
N         0.75   0.3318   0.8306     N
N         0.75   0.4988   0.6682     N
N         0.75   0.4988   0.8306     N
C         0.75   0.5528   0.6686     C
C         0.75   0.5528   0.8842     C
C       0.7873    0.044   0.3741     C
C       0.7873    0.044   0.6699     C
C       0.7873   0.3301   0.3741     C
C       0.7873   0.3301    0.956     C
C       0.7873   0.6259   0.6699     C
C       0.7873   0.6259    0.956     C
O       0.8097   0.1904   0.5225     O
O       0.8097   0.1904   0.6679     O
O       0.8097   0.3321   0.5225     O
O       0.8097   0.3321   0.8096     O
O       0.8097   0.4775   0.6679     O
O       0.8097   0.4775   0.8096     O
N       0.8121    0.091   0.4223     N
N       0.8121    0.091   0.6687     N
N       0.8121   0.3313   0.4223     N
N       0.8121   0.3313    0.909     N
N       0.8121   0.5777   0.6687     N
N       0.8121   0.5777    0.909     N
H       0.8172   0.0163   0.3457     H
H       0.8172   0.0163   0.6706     H
H       0.8172   0.3294   0.3457     H
H       0.8172   0.3294   0.9837     H
H       0.8172   0.6543   0.6706     H
H       0.8172   0.6543   0.9837     H
H       0.8712   0.2223   0.4446     H
H       0.8712   0.2223   0.7777     H
H       0.8712   0.5554   0.7777     H
H        0.873   0.0928   0.5464     H
H        0.873   0.4536   0.5464     H
H        0.873   0.4536   0.9072     H
Zn     0.92033  0.11074  0.44353    Zn
Zn     0.92033  0.11074  0.66721    Zn
Zn     0.92033  0.33279  0.44353    Zn
Zn     0.92033  0.33279  0.88926    Zn
Zn     0.92033  0.55647  0.66721    Zn
Zn     0.92033  0.55647  0.88926    Zn
C       0.9209   0.1075  0.55375     C
C       0.9209  0.44625  0.55375     C
C       0.9209  0.44625   0.8925     C
C       0.9227   0.2215    0.443     C
C       0.9227   0.2215   0.7785     C
C       0.9227    0.557   0.7785     C
H       0.9317   0.5111   0.1099     H
H       0.9317   0.5111   0.4012     H
H       0.9317   0.5988   0.1099     H
H       0.9317   0.5988   0.4889     H
H       0.9317   0.8901   0.4012     H
H       0.9317   0.8901   0.4889     H
H       0.9454   0.3993    0.155     H
H       0.9454   0.3993   0.2443     H
H       0.9454   0.7557    0.155     H
H       0.9454   0.7557   0.6007     H
H       0.9454    0.845   0.2443     H
H       0.9454    0.845   0.6007     H
N       0.9537  0.11764  0.51737     N
N       0.9537  0.11764  0.60027     N
N       0.9537  0.39973  0.51737     N
N       0.9537  0.39973  0.88236     N
N       0.9537  0.48263  0.60027     N
N       0.9537  0.48263  0.88236     N
N       0.9544  0.17962  0.44194     N
N       0.9544  0.17962  0.73768     N
N       0.9544  0.26232  0.44194     N
N       0.9544  0.26232  0.82038     N
N       0.9544  0.55806  0.73768     N
N       0.9544  0.55806  0.82038     N
H       0.9677   0.0456   0.3081     H
H       0.9677   0.0456   0.7375     H
H       0.9677   0.2625   0.3081     H
H       0.9677   0.2625   0.9544     H
H       0.9677   0.6919   0.7375     H
H       0.9677   0.6919   0.9544     H
N       0.9721  0.04234  0.38187     N
N       0.9721  0.04234  0.66047     N
N       0.9721  0.33953  0.38187     N
N       0.9721  0.33953  0.95766     N
N       0.9721  0.61813  0.66047     N
N       0.9721  0.61813  0.95766     N
C       0.9738   0.5323   0.1127     C
C       0.9738   0.5323   0.4196     C
C       0.9738   0.5804   0.1127     C
C       0.9738   0.5804   0.4677     C
C       0.9738   0.8873   0.4196     C
C       0.9738   0.8873   0.4677     C
C       0.9823    0.415   0.1828     C
C       0.9823    0.415   0.2322     C
C       0.9823   0.7678   0.1828     C
C       0.9823   0.7678    0.585     C
C       0.9823   0.8172   0.2322     C
C       0.9823   0.8172    0.585     C
C       0.9824   0.0254    0.326     C
C       0.9824   0.0254   0.6994     C
C       0.9824   0.3006    0.326     C
C       0.9824   0.3006   0.9746     C
C       0.9824    0.674   0.6994     C
C       0.9824    0.674   0.9746     C
C          1.0      0.0   0.3876     C
C          1.0   0.6124     -0.0     C
H          1.0      1.0    0.578     H
C          1.0      1.0   0.6124     C
