data_I
_chemical_name_common  '/home/zhangsd/repos/MofS-CGCNN/ML/data/TSD/clean_cifs/GITVEL01_clean'
_cell_length_a 18.02080
_cell_length_b 27.01110
_cell_length_c 27.01110
_cell_angle_alpha 120.00000
_cell_angle_beta  90.00000
_cell_angle_gamma 90.00000
_space_group_name_H-M_alt      'P 1'


loop_
_space_group_symop_operation_xyz
  'x, y, z' 

loop_
_atom_site_label
_atom_site_fract_x
_atom_site_fract_y
_atom_site_fract_z
_atom_site_type_symbol
C          0.0  0.38708  0.38708     C
H          0.0   0.4215     -0.0     H
H          0.0   0.4215   0.4215     H
H          0.0   0.5785      0.0     H
H          0.0   0.5785   0.5785     H
C          0.0  0.61292  0.61292     C
H          0.0      1.0   0.5785     H
C        0.017  0.32612  0.02573     C
C        0.017  0.32612  0.30039     C
C        0.017  0.69961  0.02573     C
C        0.017  0.69961  0.67388     C
C        0.017  0.97427  0.30039     C
C        0.017  0.97427  0.67388     C
C       0.0186   0.1817   0.4142     C
C       0.0186   0.1817   0.7675     C
C       0.0186   0.2325   0.4142     C
C       0.0186   0.2325   0.8183     C
C       0.0186   0.5858   0.7675     C
C       0.0186   0.5858   0.8183     C
C       0.0264   0.1112   0.5307     C
C       0.0264   0.1112   0.5805     C
C       0.0264   0.4195   0.5307     C
C       0.0264   0.4195   0.8888     C
C       0.0264   0.4693   0.5805     C
C       0.0264   0.4693   0.8888     C
N      0.02836  0.38191  0.04231     N
N      0.02836  0.38191   0.3396     N
N      0.02836   0.6604  0.04231     N
N      0.02836   0.6604  0.61809     N
N      0.02836  0.95769   0.3396     N
N      0.02836  0.95769  0.61809     N
H       0.0304   0.3084   0.0464     H
H       0.0304   0.3084    0.262     H
H       0.0304    0.738   0.0464     H
H       0.0304    0.738   0.6916     H
H       0.0304   0.9536    0.262     H
H       0.0304   0.9536   0.6916     H
N      0.04544   0.4425  0.17988     N
N      0.04544   0.4425  0.26262     N
N      0.04544  0.73738  0.17988     N
N      0.04544  0.73738   0.5575     N
N      0.04544  0.82012  0.26262     N
N      0.04544  0.82012   0.5575     N
N       0.0462  0.51741  0.11761     N
N       0.0462  0.51741   0.3998     N
N       0.0462   0.6002  0.11761     N
N       0.0462   0.6002  0.48259     N
N       0.0462  0.88239   0.3998     N
N       0.0462  0.88239  0.48259     N
H       0.0548   0.1534   0.3981     H
H       0.0548   0.1534   0.7553     H
H       0.0548   0.2447   0.3981     H
H       0.0548   0.2447   0.8466     H
H       0.0548   0.6019   0.7553     H
H       0.0548   0.6019   0.8466     H
H        0.068   0.1076   0.5089     H
H        0.068   0.1076   0.5987     H
H        0.068   0.4013   0.5089     H
H        0.068   0.4013   0.8924     H
H        0.068   0.4911   0.5987     H
H        0.068   0.4911   0.8924     H
C       0.0774  0.44412  0.22206     C
C       0.0774  0.77794  0.22206     C
C       0.0774  0.77794  0.55588     C
C       0.0795   0.5536   0.1072     C
C       0.0795   0.5536   0.4464     C
C       0.0795   0.8928   0.4464     C
Zn     0.07966  0.44352  0.11074    Zn
Zn     0.07966  0.44352  0.33278    Zn
Zn     0.07966  0.66722  0.11074    Zn
Zn     0.07966  0.66722  0.55648    Zn
Zn     0.07966  0.88926  0.33278    Zn
Zn     0.07966  0.88926  0.55648    Zn
H       0.1273  0.54615   0.0923     H
H       0.1273  0.54615  0.45385     H
H       0.1273   0.9077  0.45385     H
H       0.1289   0.4468   0.2234     H
H       0.1289   0.7766   0.2234     H
H       0.1289   0.7766   0.5532     H
H       0.1821   0.3473   0.0154     H
H       0.1821   0.3473   0.3319     H
H       0.1821   0.6681   0.0154     H
H       0.1821   0.6681   0.6527     H
H       0.1821   0.9846   0.3319     H
H       0.1821   0.9846   0.6527     H
N       0.1876   0.4221  0.09101     N
N       0.1876   0.4221  0.33109     N
N       0.1876  0.66891  0.09101     N
N       0.1876  0.66891   0.5779     N
N       0.1876  0.90899  0.33109     N
N       0.1876  0.90899   0.5779     N
O      0.19035  0.52274  0.19062     O
O      0.19035  0.52274  0.33212     O
O      0.19035  0.66788  0.19062     O
O      0.19035  0.66788  0.47726     O
O      0.19035  0.80938  0.33212     O
O      0.19035  0.80938  0.47726     O
C        0.212   0.3752   0.0436     C
C        0.212   0.3752   0.3316     C
C        0.212   0.6684   0.0436     C
C        0.212   0.6684   0.6248     C
C        0.212   0.9564   0.3316     C
C        0.212   0.9564   0.6248     C
C         0.25  0.44716  0.11563     C
C         0.25  0.44716  0.33153     C
N         0.25  0.50153  0.16954     N
N         0.25  0.50153  0.33199     N
N         0.25  0.66801  0.16954     N
N         0.25  0.66801  0.49847     N
C         0.25  0.66847  0.11563     C
C         0.25  0.66847  0.55284     C
N         0.25  0.83046  0.33199     N
N         0.25  0.83046  0.49847     N
C         0.25  0.88437  0.33153     C
C         0.25  0.88437  0.55284     C
C        0.288   0.3752   0.0436     C
C        0.288   0.3752   0.3316     C
C        0.288   0.6684   0.0436     C
C        0.288   0.6684   0.6248     C
C        0.288   0.9564   0.3316     C
C        0.288   0.9564   0.6248     C
O      0.30965  0.52274  0.19062     O
O      0.30965  0.52274  0.33212     O
O      0.30965  0.66788  0.19062     O
O      0.30965  0.66788  0.47726     O
O      0.30965  0.80938  0.33212     O
O      0.30965  0.80938  0.47726     O
N       0.3124   0.4221  0.09101     N
N       0.3124   0.4221  0.33109     N
N       0.3124  0.66891  0.09101     N
N       0.3124  0.66891   0.5779     N
N       0.3124  0.90899  0.33109     N
N       0.3124  0.90899   0.5779     N
H       0.3179   0.3473   0.0154     H
H       0.3179   0.3473   0.3319     H
H       0.3179   0.6681   0.0154     H
H       0.3179   0.6681   0.6527     H
H       0.3179   0.9846   0.3319     H
H       0.3179   0.9846   0.6527     H
H       0.3711   0.4468   0.2234     H
H       0.3711   0.7766   0.2234     H
H       0.3711   0.7766   0.5532     H
H       0.3727  0.54615   0.0923     H
H       0.3727  0.54615  0.45385     H
H       0.3727   0.9077  0.45385     H
Zn     0.42034  0.44352  0.11074    Zn
Zn     0.42034  0.44352  0.33278    Zn
Zn     0.42034  0.66722  0.11074    Zn
Zn     0.42034  0.66722  0.55648    Zn
Zn     0.42034  0.88926  0.33278    Zn
Zn     0.42034  0.88926  0.55648    Zn
C       0.4205   0.5536   0.1072     C
C       0.4205   0.5536   0.4464     C
C       0.4205   0.8928   0.4464     C
C       0.4226  0.44412  0.22206     C
C       0.4226  0.77794  0.22206     C
C       0.4226  0.77794  0.55588     C
H        0.432   0.1076   0.5089     H
H        0.432   0.1076   0.5987     H
H        0.432   0.4013   0.5089     H
H        0.432   0.4013   0.8924     H
H        0.432   0.4911   0.5987     H
H        0.432   0.4911   0.8924     H
H       0.4452   0.1534   0.3981     H
H       0.4452   0.1534   0.7553     H
H       0.4452   0.2447   0.3981     H
H       0.4452   0.2447   0.8466     H
H       0.4452   0.6019   0.7553     H
H       0.4452   0.6019   0.8466     H
N       0.4538  0.51741  0.11761     N
N       0.4538  0.51741   0.3998     N
N       0.4538   0.6002  0.11761     N
N       0.4538   0.6002  0.48259     N
N       0.4538  0.88239   0.3998     N
N       0.4538  0.88239  0.48259     N
N      0.45456   0.4425  0.17988     N
N      0.45456   0.4425  0.26262     N
N      0.45456  0.73738  0.17988     N
N      0.45456  0.73738   0.5575     N
N      0.45456  0.82012  0.26262     N
N      0.45456  0.82012   0.5575     N
H       0.4696   0.3084   0.0464     H
H       0.4696   0.3084    0.262     H
H       0.4696    0.738   0.0464     H
H       0.4696    0.738   0.6916     H
H       0.4696   0.9536    0.262     H
H       0.4696   0.9536   0.6916     H
N      0.47164  0.38191  0.04231     N
N      0.47164  0.38191   0.3396     N
N      0.47164   0.6604  0.04231     N
N      0.47164   0.6604  0.61809     N
N      0.47164  0.95769   0.3396     N
N      0.47164  0.95769  0.61809     N
C       0.4736   0.1112   0.5307     C
C       0.4736   0.1112   0.5805     C
C       0.4736   0.4195   0.5307     C
C       0.4736   0.4195   0.8888     C
C       0.4736   0.4693   0.5805     C
C       0.4736   0.4693   0.8888     C
C       0.4814   0.1817   0.4142     C
C       0.4814   0.1817   0.7675     C
C       0.4814   0.2325   0.4142     C
C       0.4814   0.2325   0.8183     C
C       0.4814   0.5858   0.7675     C
C       0.4814   0.5858   0.8183     C
C        0.483  0.32612  0.02573     C
C        0.483  0.32612  0.30039     C
C        0.483  0.69961  0.02573     C
C        0.483  0.69961  0.67388     C
C        0.483  0.97427  0.30039     C
C        0.483  0.97427  0.67388     C
C          0.5      0.0  0.38708     C
H          0.5      0.0   0.4215     H
C          0.5      0.0  0.61292     C
C          0.5  0.38708      0.0     C
C          0.5  0.38708  0.38708     C
H          0.5   0.4215     -0.0     H
H          0.5   0.4215   0.4215     H
H          0.5   0.5785      0.0     H
H          0.5   0.5785   0.5785     H
C          0.5  0.61292      0.0     C
C          0.5  0.61292  0.61292     C
H          0.5      1.0   0.5785     H
C        0.517  0.02573  0.32612     C
C        0.517  0.02573  0.69961     C
C        0.517  0.30039  0.32612     C
C        0.517  0.30039  0.97427     C
C        0.517  0.67388  0.69961     C
C        0.517  0.67388  0.97427     C
C       0.5186   0.4142   0.1817     C
C       0.5186   0.4142   0.2325     C
C       0.5186   0.7675   0.1817     C
C       0.5186   0.7675   0.5858     C
C       0.5186   0.8183   0.2325     C
C       0.5186   0.8183   0.5858     C
C       0.5264   0.5307   0.1112     C
C       0.5264   0.5307   0.4195     C
C       0.5264   0.5805   0.1112     C
C       0.5264   0.5805   0.4693     C
C       0.5264   0.8888   0.4195     C
C       0.5264   0.8888   0.4693     C
N      0.52836  0.04231  0.38191     N
N      0.52836  0.04231   0.6604     N
N      0.52836   0.3396  0.38191     N
N      0.52836   0.3396  0.95769     N
N      0.52836  0.61809   0.6604     N
N      0.52836  0.61809  0.95769     N
H       0.5304   0.0464   0.3084     H
H       0.5304   0.0464    0.738     H
H       0.5304    0.262   0.3084     H
H       0.5304    0.262   0.9536     H
H       0.5304   0.6916    0.738     H
H       0.5304   0.6916   0.9536     H
N      0.54544  0.17988   0.4425     N
N      0.54544  0.17988  0.73738     N
N      0.54544  0.26262   0.4425     N
N      0.54544  0.26262  0.82012     N
N      0.54544   0.5575  0.73738     N
N      0.54544   0.5575  0.82012     N
N       0.5462  0.11761  0.51741     N
N       0.5462  0.11761   0.6002     N
N       0.5462   0.3998  0.51741     N
N       0.5462   0.3998  0.88239     N
N       0.5462  0.48259   0.6002     N
N       0.5462  0.48259  0.88239     N
H       0.5548   0.3981   0.1534     H
H       0.5548   0.3981   0.2447     H
H       0.5548   0.7553   0.1534     H
H       0.5548   0.7553   0.6019     H
H       0.5548   0.8466   0.2447     H
H       0.5548   0.8466   0.6019     H
H        0.568   0.5089   0.1076     H
H        0.568   0.5089   0.4013     H
H        0.568   0.5987   0.1076     H
H        0.568   0.5987   0.4911     H
H        0.568   0.8924   0.4013     H
H        0.568   0.8924   0.4911     H
C       0.5774  0.22206  0.44412     C
C       0.5774  0.22206  0.77794     C
C       0.5774  0.55588  0.77794     C
C       0.5795   0.1072   0.5536     C
C       0.5795   0.4464   0.5536     C
C       0.5795   0.4464   0.8928     C
Zn     0.57966  0.11074  0.44352    Zn
Zn     0.57966  0.11074  0.66722    Zn
Zn     0.57966  0.33278  0.44352    Zn
Zn     0.57966  0.33278  0.88926    Zn
Zn     0.57966  0.55648  0.66722    Zn
Zn     0.57966  0.55648  0.88926    Zn
H       0.6273   0.0923  0.54615     H
H       0.6273  0.45385  0.54615     H
H       0.6273  0.45385   0.9077     H
H       0.6289   0.2234   0.4468     H
H       0.6289   0.2234   0.7766     H
H       0.6289   0.5532   0.7766     H
H       0.6821   0.0154   0.3473     H
H       0.6821   0.0154   0.6681     H
H       0.6821   0.3319   0.3473     H
H       0.6821   0.3319   0.9846     H
H       0.6821   0.6527   0.6681     H
H       0.6821   0.6527   0.9846     H
N       0.6876  0.09101   0.4221     N
N       0.6876  0.09101  0.66891     N
N       0.6876  0.33109   0.4221     N
N       0.6876  0.33109  0.90899     N
N       0.6876   0.5779  0.66891     N
N       0.6876   0.5779  0.90899     N
O      0.69035  0.19062  0.52274     O
O      0.69035  0.19062  0.66788     O
O      0.69035  0.33212  0.52274     O
O      0.69035  0.33212  0.80938     O
O      0.69035  0.47726  0.66788     O
O      0.69035  0.47726  0.80938     O
C        0.712   0.0436   0.3752     C
C        0.712   0.0436   0.6684     C
C        0.712   0.3316   0.3752     C
C        0.712   0.3316   0.9564     C
C        0.712   0.6248   0.6684     C
C        0.712   0.6248   0.9564     C
C         0.75  0.11563  0.44716     C
C         0.75  0.11563  0.66847     C
N         0.75  0.16954  0.50153     N
N         0.75  0.16954  0.66801     N
C         0.75  0.33153  0.44716     C
C         0.75  0.33153  0.88437     C
N         0.75  0.33199  0.50153     N
N         0.75  0.33199  0.83046     N
N         0.75  0.49847  0.66801     N
N         0.75  0.49847  0.83046     N
C         0.75  0.55284  0.66847     C
C         0.75  0.55284  0.88437     C
C        0.788   0.0436   0.3752     C
C        0.788   0.0436   0.6684     C
C        0.788   0.3316   0.3752     C
C        0.788   0.3316   0.9564     C
C        0.788   0.6248   0.6684     C
C        0.788   0.6248   0.9564     C
O      0.80965  0.19062  0.52274     O
O      0.80965  0.19062  0.66788     O
O      0.80965  0.33212  0.52274     O
O      0.80965  0.33212  0.80938     O
O      0.80965  0.47726  0.66788     O
O      0.80965  0.47726  0.80938     O
N       0.8124  0.09101   0.4221     N
N       0.8124  0.09101  0.66891     N
N       0.8124  0.33109   0.4221     N
N       0.8124  0.33109  0.90899     N
N       0.8124   0.5779  0.66891     N
N       0.8124   0.5779  0.90899     N
H       0.8179   0.0154   0.3473     H
H       0.8179   0.0154   0.6681     H
H       0.8179   0.3319   0.3473     H
H       0.8179   0.3319   0.9846     H
H       0.8179   0.6527   0.6681     H
H       0.8179   0.6527   0.9846     H
H       0.8711   0.2234   0.4468     H
H       0.8711   0.2234   0.7766     H
H       0.8711   0.5532   0.7766     H
H       0.8727   0.0923  0.54615     H
H       0.8727  0.45385  0.54615     H
H       0.8727  0.45385   0.9077     H
Zn     0.92034  0.11074  0.44352    Zn
Zn     0.92034  0.11074  0.66722    Zn
Zn     0.92034  0.33278  0.44352    Zn
Zn     0.92034  0.33278  0.88926    Zn
Zn     0.92034  0.55648  0.66722    Zn
Zn     0.92034  0.55648  0.88926    Zn
C       0.9205   0.1072   0.5536     C
C       0.9205   0.4464   0.5536     C
C       0.9205   0.4464   0.8928     C
C       0.9226  0.22206  0.44412     C
C       0.9226  0.22206  0.77794     C
C       0.9226  0.55588  0.77794     C
H        0.932   0.5089   0.1076     H
H        0.932   0.5089   0.4013     H
H        0.932   0.5987   0.1076     H
H        0.932   0.5987   0.4911     H
H        0.932   0.8924   0.4013     H
H        0.932   0.8924   0.4911     H
H       0.9452   0.3981   0.1534     H
H       0.9452   0.3981   0.2447     H
H       0.9452   0.7553   0.1534     H
H       0.9452   0.7553   0.6019     H
H       0.9452   0.8466   0.2447     H
H       0.9452   0.8466   0.6019     H
N       0.9538  0.11761  0.51741     N
N       0.9538  0.11761   0.6002     N
N       0.9538   0.3998  0.51741     N
N       0.9538   0.3998  0.88239     N
N       0.9538  0.48259   0.6002     N
N       0.9538  0.48259  0.88239     N
N      0.95456  0.17988   0.4425     N
N      0.95456  0.17988  0.73738     N
N      0.95456  0.26262   0.4425     N
N      0.95456  0.26262  0.82012     N
N      0.95456   0.5575  0.73738     N
N      0.95456   0.5575  0.82012     N
H       0.9696   0.0464   0.3084     H
H       0.9696   0.0464    0.738     H
H       0.9696    0.262   0.3084     H
H       0.9696    0.262   0.9536     H
H       0.9696   0.6916    0.738     H
H       0.9696   0.6916   0.9536     H
N      0.97164  0.04231  0.38191     N
N      0.97164  0.04231   0.6604     N
N      0.97164   0.3396  0.38191     N
N      0.97164   0.3396  0.95769     N
N      0.97164  0.61809   0.6604     N
N      0.97164  0.61809  0.95769     N
C       0.9736   0.5307   0.1112     C
C       0.9736   0.5307   0.4195     C
C       0.9736   0.5805   0.1112     C
C       0.9736   0.5805   0.4693     C
C       0.9736   0.8888   0.4195     C
C       0.9736   0.8888   0.4693     C
C       0.9814   0.4142   0.1817     C
C       0.9814   0.4142   0.2325     C
C       0.9814   0.7675   0.1817     C
C       0.9814   0.7675   0.5858     C
C       0.9814   0.8183   0.2325     C
C       0.9814   0.8183   0.5858     C
C        0.983  0.02573  0.32612     C
C        0.983  0.02573  0.69961     C
C        0.983  0.30039  0.32612     C
C        0.983  0.30039  0.97427     C
C        0.983  0.67388  0.69961     C
C        0.983  0.67388  0.97427     C
C          1.0      0.0  0.38708     C
H          1.0      0.0   0.4215     H
C          1.0      0.0  0.61292     C
C          1.0  0.38708      0.0     C
C          1.0  0.61292     -0.0     C
