data_I
_chemical_name_common  '/home/zhangsd/repos/MofS-CGCNN/ML/data/TSD/clean_cifs/GIYSIR_clean'
_cell_length_a  9.62500
_cell_length_b 11.78000
_cell_length_c 18.71400
_cell_angle_alpha 90.00000
_cell_angle_beta  98.18000
_cell_angle_gamma 90.00000
_space_group_name_H-M_alt      'P 1'


loop_
_space_group_symop_operation_xyz
  'x, y, z' 

loop_
_atom_site_label
_atom_site_fract_x
_atom_site_fract_y
_atom_site_fract_z
_atom_site_type_symbol
Mo         0.0  0.37149     0.25    Mo
Mo         0.0  0.62851     0.75    Mo
C       0.0017   0.4686   0.0243     C
C       0.0017   0.5314   0.5243     C
H       0.0225   0.2409   0.9731     H
H       0.0225   0.7591   0.4731     H
Cu     0.03612  0.37256  0.10948    Cu
Cu     0.03612  0.62744  0.60948    Cu
H        0.089   0.0669   0.9271     H
H        0.089   0.9331   0.4271     H
C       0.0898   0.1956   0.0024     C
C       0.0898   0.8044   0.5024     C
S       0.1196  0.26523  0.33638     S
S       0.1196  0.73477  0.83638     S
C       0.1328   0.0935   0.9727     C
C       0.1328   0.9065   0.4727     C
N       0.1368   0.2328   0.0684     N
N       0.1368   0.7672   0.5684     N
S       0.1526   0.4784  0.20099     S
S       0.1526   0.5216  0.70099     S
H       0.2091   0.4456   0.8904     H
H       0.2091   0.5544   0.3904     H
H       0.2157   0.1093   0.4497     H
H       0.2157   0.8907   0.9497     H
C       0.2359   0.1702    0.106     C
C       0.2359   0.8298    0.606     C
C       0.2405   0.0336   0.0122     C
C       0.2405   0.9664   0.5122     C
H       0.2713   0.1936   0.1537     H
H       0.2713   0.8064   0.6537     H
Cu     0.28037  0.36987   0.2889    Cu
Cu     0.28037  0.63013   0.7889    Cu
C       0.2906   0.0731   0.0798     C
C       0.2906   0.9269   0.5798     C
C       0.2957   0.0713   0.4794     C
C       0.2957   0.9287   0.9794     C
H       0.3077   0.1797   0.5657     H
H       0.3077   0.8203   0.0657     H
C       0.3087   0.4413   0.8982     C
C       0.3087   0.5587   0.3982     C
H       0.3101   0.4217   0.5724     H
H       0.3101   0.5783   0.0724     H
H       0.3166   0.3143   0.9722     H
H       0.3166   0.6857   0.4722     H
H       0.3233    0.298   0.4643     H
H       0.3233    0.702   0.9643     H
H       0.3614   0.0466   0.4462     H
H       0.3614   0.9534   0.9462     H
H       0.3637   0.0332   0.1089     H
H       0.3637   0.9668   0.6089     H
C       0.3695   0.1577     0.53     C
C       0.3695   0.8423     0.03     C
C       0.3725   0.3615   0.9465     C
C       0.3725   0.6385   0.4465     C
N       0.3802   0.4887   0.3626     N
N       0.3802   0.5113   0.8626     N
C       0.4093   0.2634   0.4908     C
C       0.4093   0.7366   0.9908     C
C       0.4097   0.4243   0.5789     C
C       0.4097   0.5757   0.0789     C
H       0.4272   0.4471   0.1497     H
H       0.4272   0.5529   0.6497     H
N       0.4458   0.2942   0.2591     N
N       0.4458   0.7058   0.7591     N
H       0.4555   0.1234   0.5566     H
H       0.4555   0.8766   0.0566     H
H        0.471   0.2415   0.4551     H
H        0.471   0.7585   0.9551     H
C       0.4809   0.4977    0.125     C
C       0.4809   0.5023    0.625     C
C       0.4843   0.3503   0.5424     C
C       0.4843   0.6497   0.0424     C
C       0.5157   0.3503   0.9576     C
C       0.5157   0.6497   0.4576     C
C       0.5191   0.4977    0.375     C
C       0.5191   0.5023    0.875     C
H        0.529   0.2415   0.0449     H
H        0.529   0.7585   0.5449     H
H       0.5445   0.1234   0.9434     H
H       0.5445   0.8766   0.4434     H
N       0.5542   0.2942   0.2409     N
N       0.5542   0.7058   0.7409     N
H       0.5728   0.4471   0.3503     H
H       0.5728   0.5529   0.8503     H
C       0.5903   0.4243   0.9211     C
C       0.5903   0.5757   0.4211     C
C       0.5907   0.2634   0.0092     C
C       0.5907   0.7366   0.5092     C
N       0.6198   0.4887   0.1374     N
N       0.6198   0.5113   0.6374     N
C       0.6275   0.3615   0.5535     C
C       0.6275   0.6385   0.0535     C
C       0.6305   0.1577     0.97     C
C       0.6305   0.8423     0.47     C
H       0.6363   0.0332   0.3911     H
H       0.6363   0.9668   0.8911     H
H       0.6386   0.0466   0.0538     H
H       0.6386   0.9534   0.5538     H
H       0.6767    0.298   0.0357     H
H       0.6767    0.702   0.5357     H
H       0.6834   0.3143   0.5278     H
H       0.6834   0.6857   0.0278     H
H       0.6899   0.4217   0.9276     H
H       0.6899   0.5783   0.4276     H
C       0.6913   0.4413   0.6018     C
C       0.6913   0.5587   0.1018     C
H       0.6923   0.1797   0.9343     H
H       0.6923   0.8203   0.4343     H
C       0.7043   0.0713   0.0206     C
C       0.7043   0.9287   0.5206     C
C       0.7094   0.0731   0.4202     C
C       0.7094   0.9269   0.9202     C
Cu     0.71963  0.36987   0.2111    Cu
Cu     0.71963  0.63013   0.7111    Cu
H       0.7287   0.1936   0.3463     H
H       0.7287   0.8064   0.8463     H
C       0.7595   0.0336   0.4878     C
C       0.7595   0.9664   0.9878     C
C       0.7641   0.1702    0.394     C
C       0.7641   0.8298    0.894     C
H       0.7843   0.1093   0.0503     H
H       0.7843   0.8907   0.5503     H
H       0.7909   0.4456   0.6096     H
H       0.7909   0.5544   0.1096     H
S       0.8474   0.4784  0.29901     S
S       0.8474   0.5216  0.79901     S
N       0.8632   0.2328   0.4316     N
N       0.8632   0.7672   0.9316     N
C       0.8672   0.0935   0.5273     C
C       0.8672   0.9065   0.0273     C
S       0.8804  0.26523  0.16362     S
S       0.8804  0.73477  0.66362     S
C       0.9102   0.1956   0.4976     C
C       0.9102   0.8044   0.9976     C
H        0.911   0.0669   0.5729     H
H        0.911   0.9331   0.0729     H
Cu     0.96388  0.37256  0.39052    Cu
Cu     0.96388  0.62744  0.89052    Cu
H       0.9775   0.2409   0.5269     H
H       0.9775   0.7591   0.0269     H
C       0.9983   0.4686   0.4757     C
C       0.9983   0.5314   0.9757     C
