data_I
_chemical_name_common  '/home/zhangsd/repos/MofS-CGCNN/ML/data/TSD/clean_cifs/GOBSUM_clean'
_cell_length_a 31.71700
_cell_length_b  9.43330
_cell_length_c 18.17390
_cell_angle_alpha 90.00000
_cell_angle_beta  119.89400
_cell_angle_gamma 90.00000
_space_group_name_H-M_alt      'P 1'


loop_
_space_group_symop_operation_xyz
  'x, y, z' 

loop_
_atom_site_label
_atom_site_fract_x
_atom_site_fract_y
_atom_site_fract_z
_atom_site_type_symbol
C      0.01999   0.2618  0.84131     C
C      0.01999   0.7382  0.34131     C
H       0.0241   0.2036   0.8898     H
H       0.0241   0.7964   0.3898     H
C      0.02803   0.0484  0.77694     C
C      0.02803   0.9516  0.27694     C
H       0.0337   0.3569   0.8631     H
H       0.0337   0.6431   0.3631     H
C      0.03426   0.2753  0.72382     C
C      0.03426   0.7247  0.22382     C
H       0.0384   0.0104   0.3282     H
H       0.0384   0.9896   0.8282     H
H       0.0419   0.0064   0.7437     H
H       0.0419   0.9936   0.2437     H
H       0.0426   0.3765    0.738     H
H       0.0426   0.6235    0.238     H
N      0.04677    0.195  0.80252     N
N      0.04677    0.805  0.30252     N
H       0.0537   0.2387    0.699     H
H       0.0537   0.7613    0.199     H
H       0.1009   0.4393   0.0642     H
H       0.1009   0.5607   0.5642     H
H       0.1046   0.4502   0.6821     H
H       0.1046   0.5498   0.1821     H
Co     0.12372  0.18536  0.89208    Co
Co     0.12372  0.81464  0.39208    Co
O      0.12833   0.3522  0.96592     O
O      0.12833   0.6478  0.46592     O
C      0.13024   0.4834    0.105     C
C      0.13024   0.5166    0.605     C
C      0.13241    0.451   0.6753     C
C      0.13241    0.549   0.1753     C
O       0.1392   0.2888  0.81065     O
O       0.1392   0.7112  0.31065     O
O       0.1433   0.0258  0.36644     O
O       0.1433   0.9742  0.86644     O
C      0.16911   0.4055  0.01985     C
C      0.16911   0.5945  0.51985     C
C      0.17036   0.4816  0.09382     C
C      0.17036   0.5184  0.59382     C
C       0.1752   0.3865  0.73579     C
C       0.1752   0.6135  0.23579     C
C      0.17882   0.3164   0.8134     C
C      0.17882   0.6836   0.3134     C
C      0.18347   0.0147  0.43338     C
C      0.18347   0.9853  0.93338     C
H       0.1869   0.2539   0.3587     H
H       0.1869   0.7461   0.8587     H
O       0.1948  0.10098  0.97516     O
O       0.1948  0.89902  0.47516     O
O      0.20767  0.39891  0.01773     O
O      0.20767  0.60109  0.51773     O
C      0.21258   0.2523  0.41596     C
C      0.21258   0.7477  0.91596     C
C      0.21317   0.4561  0.65484     C
C      0.21317   0.5439  0.15484     C
C      0.21559   0.3907  0.72518     C
C      0.21559   0.6093  0.22518     C
C      0.21786   0.1369  0.46752     C
C      0.21786   0.8631  0.96752     C
O      0.22078   0.2924  0.87307     O
O      0.22078   0.7076  0.37307     O
H       0.2411   0.4583   0.6485     H
H       0.2411   0.5417   0.1485     H
H       0.2416   0.4439   0.4132     H
H       0.2416   0.5561   0.9132     H
C      0.24492   0.3654   0.4484     C
C      0.24492   0.6346   0.9484     C
H       0.2452   0.3483   0.7665     H
H       0.2452   0.6517   0.2665     H
Co        0.25     0.25      0.0    Co
Co        0.25     0.75      0.5    Co
H       0.2548   0.1517   0.2335     H
H       0.2548   0.8483   0.7335     H
C      0.25508   0.1346   0.5516     C
C      0.25508   0.8654   0.0516     C
H       0.2584   0.0561   0.5868     H
H       0.2584   0.9439   0.0868     H
H       0.2589   0.0417   0.3515     H
H       0.2589   0.9583   0.8515     H
O      0.27922   0.2076  0.12693     O
O      0.27922   0.7924  0.62693     O
C      0.28214   0.3631  0.53248     C
C      0.28214   0.6369  0.03248     C
C      0.28441   0.1093  0.27482     C
C      0.28441   0.8907  0.77482     C
C      0.28683   0.0439  0.34516     C
C      0.28683   0.9561  0.84516     C
C      0.28742   0.2477  0.58404     C
C      0.28742   0.7523  0.08404     C
O      0.29233  0.10109  0.98227     O
O      0.29233  0.89891  0.48227     O
O       0.3052  0.39902  0.02484     O
O       0.3052  0.60098  0.52484     O
H       0.3131   0.2461   0.6413     H
H       0.3131   0.7539   0.1413     H
C      0.31653   0.4853  0.56662     C
C      0.31653   0.5147  0.06662     C
C      0.32118   0.1836   0.1866     C
C      0.32118   0.8164   0.6866     C
C       0.3248   0.1135  0.26421     C
C       0.3248   0.8865  0.76421     C
C      0.32964   0.0184  0.90618     C
C      0.32964   0.9816  0.40618     C
C      0.33089   0.0945  0.98015     C
C      0.33089   0.9055  0.48015     C
O       0.3567   0.4742  0.63356     O
O       0.3567   0.5258  0.13356     O
O       0.3608   0.2112  0.18935     O
O       0.3608   0.7888  0.68935     O
C      0.36759    0.049   0.3247     C
C      0.36759    0.951   0.8247     C
C      0.36976   0.0166    0.895     C
C      0.36976   0.9834    0.395     C
O      0.37167   0.1478  0.03408     O
O      0.37167   0.8522  0.53408     O
Co     0.37628  0.31464  0.10792    Co
Co     0.37628  0.68536  0.60792    Co
H       0.3954   0.0498   0.3179     H
H       0.3954   0.9502   0.8179     H
H       0.3991   0.0607   0.9358     H
H       0.3991   0.9393   0.4358     H
H       0.4463   0.2613    0.301     H
H       0.4463   0.7387    0.801     H
N      0.45323    0.305  0.19748     N
N      0.45323    0.695  0.69748     N
H       0.4574   0.1235    0.262     H
H       0.4574   0.8765    0.762     H
H       0.4581   0.4936   0.2563     H
H       0.4581   0.5064   0.7563     H
H       0.4616   0.4896   0.6718     H
H       0.4616   0.5104   0.1718     H
C      0.46574   0.2247  0.27618     C
C      0.46574   0.7753  0.77618     C
H       0.4663   0.1431   0.1369     H
H       0.4663   0.8569   0.6369     H
C      0.47197   0.4516  0.22306     C
C      0.47197   0.5484  0.72306     C
H       0.4759   0.2964   0.1102     H
H       0.4759   0.7036   0.6102     H
C      0.48001   0.2382  0.15869     C
C      0.48001   0.7618  0.65869     C
C      0.51999   0.2382  0.34131     C
C      0.51999   0.7618  0.84131     C
H       0.5241   0.2964   0.3898     H
H       0.5241   0.7036   0.8898     H
C      0.52803   0.4516  0.27694     C
C      0.52803   0.5484  0.77694     C
H       0.5337   0.1431   0.3631     H
H       0.5337   0.8569   0.8631     H
C      0.53426   0.2247  0.22382     C
C      0.53426   0.7753  0.72382     C
H       0.5384   0.4896   0.8282     H
H       0.5384   0.5104   0.3282     H
H       0.5419   0.4936   0.2437     H
H       0.5419   0.5064   0.7437     H
H       0.5426   0.1235    0.238     H
H       0.5426   0.8765    0.738     H
N      0.54677    0.305  0.30252     N
N      0.54677    0.695  0.80252     N
H       0.5537   0.2613    0.199     H
H       0.5537   0.7387    0.699     H
H       0.6009   0.0607   0.5642     H
H       0.6009   0.9393   0.0642     H
H       0.6046   0.0498   0.1821     H
H       0.6046   0.9502   0.6821     H
Co     0.62372  0.31464  0.39208    Co
Co     0.62372  0.68536  0.89208    Co
O      0.62833   0.1478  0.46592     O
O      0.62833   0.8522  0.96592     O
C      0.63024   0.0166    0.605     C
C      0.63024   0.9834    0.105     C
C      0.63241    0.049   0.1753     C
C      0.63241    0.951   0.6753     C
O       0.6392   0.2112  0.31065     O
O       0.6392   0.7888  0.81065     O
O       0.6433   0.4742  0.86644     O
O       0.6433   0.5258  0.36644     O
C      0.66911   0.0945  0.51985     C
C      0.66911   0.9055  0.01985     C
C      0.67036   0.0184  0.59382     C
C      0.67036   0.9816  0.09382     C
C       0.6752   0.1135  0.23579     C
C       0.6752   0.8865  0.73579     C
C      0.67882   0.1836   0.3134     C
C      0.67882   0.8164   0.8134     C
C      0.68347   0.4853  0.93338     C
C      0.68347   0.5147  0.43338     C
H       0.6869   0.2461   0.8587     H
H       0.6869   0.7539   0.3587     H
O       0.6948  0.39902  0.47516     O
O       0.6948  0.60098  0.97516     O
O      0.70767  0.10109  0.51773     O
O      0.70767  0.89891  0.01773     O
C      0.71258   0.2477  0.91596     C
C      0.71258   0.7523  0.41596     C
C      0.71317   0.0439  0.15484     C
C      0.71317   0.9561  0.65484     C
C      0.71559   0.1093  0.22518     C
C      0.71559   0.8907  0.72518     C
C      0.71786   0.3631  0.96752     C
C      0.71786   0.6369  0.46752     C
O      0.72078   0.2076  0.37307     O
O      0.72078   0.7924  0.87307     O
H       0.7411   0.0417   0.1485     H
H       0.7411   0.9583   0.6485     H
H       0.7416   0.0561   0.9132     H
H       0.7416   0.9439   0.4132     H
C      0.74492   0.1346   0.9484     C
C      0.74492   0.8654   0.4484     C
H       0.7452   0.1517   0.2665     H
H       0.7452   0.8483   0.7665     H
Co        0.75     0.25      0.5    Co
Co        0.75     0.75      0.0    Co
H       0.7548   0.3483   0.7335     H
H       0.7548   0.6517   0.2335     H
C      0.75508   0.3654   0.0516     C
C      0.75508   0.6346   0.5516     C
H       0.7584   0.4439   0.0868     H
H       0.7584   0.5561   0.5868     H
H       0.7589   0.4583   0.8515     H
H       0.7589   0.5417   0.3515     H
O      0.77922   0.2924  0.62693     O
O      0.77922   0.7076  0.12693     O
C      0.78214   0.1369  0.03248     C
C      0.78214   0.8631  0.53248     C
C      0.78441   0.3907  0.77482     C
C      0.78441   0.6093  0.27482     C
C      0.78683   0.4561  0.84516     C
C      0.78683   0.5439  0.34516     C
C      0.78742   0.2523  0.08404     C
C      0.78742   0.7477  0.58404     C
O      0.79233  0.39891  0.48227     O
O      0.79233  0.60109  0.98227     O
O       0.8052  0.10098  0.52484     O
O       0.8052  0.89902  0.02484     O
H       0.8131   0.2539   0.1413     H
H       0.8131   0.7461   0.6413     H
C      0.81653   0.0147  0.06662     C
C      0.81653   0.9853  0.56662     C
C      0.82118   0.3164   0.6866     C
C      0.82118   0.6836   0.1866     C
C       0.8248   0.3865  0.76421     C
C       0.8248   0.6135  0.26421     C
C      0.82964   0.4816  0.40618     C
C      0.82964   0.5184  0.90618     C
C      0.83089   0.4055  0.48015     C
C      0.83089   0.5945  0.98015     C
O       0.8567   0.0258  0.13356     O
O       0.8567   0.9742  0.63356     O
O       0.8608   0.2888  0.68935     O
O       0.8608   0.7112  0.18935     O
C      0.86759    0.451   0.8247     C
C      0.86759    0.549   0.3247     C
C      0.86976   0.4834    0.395     C
C      0.86976   0.5166    0.895     C
O      0.87167   0.3522  0.53408     O
O      0.87167   0.6478  0.03408     O
Co     0.87628  0.18536  0.60792    Co
Co     0.87628  0.81464  0.10792    Co
H       0.8954   0.4502   0.8179     H
H       0.8954   0.5498   0.3179     H
H       0.8991   0.4393   0.4358     H
H       0.8991   0.5607   0.9358     H
H       0.9463   0.2387    0.801     H
H       0.9463   0.7613    0.301     H
N      0.95323    0.195  0.69748     N
N      0.95323    0.805  0.19748     N
H       0.9574   0.3765    0.762     H
H       0.9574   0.6235    0.262     H
H       0.9581   0.0064   0.7563     H
H       0.9581   0.9936   0.2563     H
H       0.9616   0.0104   0.1718     H
H       0.9616   0.9896   0.6718     H
C      0.96574   0.2753  0.77618     C
C      0.96574   0.7247  0.27618     C
H       0.9663   0.3569   0.6369     H
H       0.9663   0.6431   0.1369     H
C      0.97197   0.0484  0.72306     C
C      0.97197   0.9516  0.22306     C
H       0.9759   0.2036   0.6102     H
H       0.9759   0.7964   0.1102     H
C      0.98001   0.2618  0.65869     C
C      0.98001   0.7382  0.15869     C
