data_I
_chemical_name_common  '/home/zhangsd/repos/MofS-CGCNN/ML/data/TSD/clean_cifs/GOMREG_clean'
_cell_length_a 14.87790
_cell_length_b 13.06330
_cell_length_c 15.41910
_cell_angle_alpha 90.00000
_cell_angle_beta  110.74500
_cell_angle_gamma 90.00000
_space_group_name_H-M_alt      'P 1'


loop_
_space_group_symop_operation_xyz
  'x, y, z' 

loop_
_atom_site_label
_atom_site_fract_x
_atom_site_fract_y
_atom_site_fract_z
_atom_site_type_symbol
O       0.0012   0.2038   0.6396     O
O       0.0012   0.7962   0.1396     O
O       0.0269   0.1878   0.3799     O
O       0.0269   0.8122   0.8799     O
O       0.0586   0.0259   0.6405     O
O       0.0586   0.9741   0.1405     O
Al     0.08384   0.1094  0.16377    Al
Mn     0.08384   0.8906  0.66377    Mn
P      0.08877  0.13398  0.67098     P
P      0.08877  0.86602  0.17098     P
Al      0.1227  0.19245  0.87591    Al
Al      0.1227  0.80755  0.37591    Al
P      0.12587  0.19095  0.37344     P
P      0.12587  0.80905  0.87344     P
O       0.1315   0.1322   0.2921     O
O       0.1315   0.8678   0.7921     O
O        0.137   0.1354   0.7755     O
O        0.137   0.8646   0.2755     O
O       0.1504   0.3039   0.3696     O
O       0.1504   0.6961   0.8696     O
O       0.1579   0.1719   0.6263     O
O       0.1579   0.8281   0.1263     O
O       0.1632   0.3229   0.8912     O
O       0.1632   0.6771   0.3912     O
O       0.1746   0.1564   0.1162     O
O       0.1746   0.8436   0.6162     O
O       0.2016   0.1167   0.9706     O
O       0.2016   0.8833   0.4706     O
O       0.2019   0.1436   0.4579     O
O       0.2019   0.8564   0.9579     O
O       0.2281   0.4957   0.8937     O
O       0.2281   0.5043   0.3937     O
Mn     0.24283  0.12585  0.57967    Mn
Al     0.24283  0.87415  0.07967    Al
P      0.24469  0.11429  0.07551     P
P      0.24469  0.88571  0.57551     P
P      0.25531  0.38571  0.92449     P
P      0.25531  0.61429  0.42449     P
Al     0.25717  0.37415  0.42033    Al
Mn     0.25717  0.62585  0.92033    Mn
O       0.2719   0.0043   0.1063     O
O       0.2719   0.9957   0.6063     O
O       0.2981   0.3564   0.5421     O
O       0.2981   0.6436   0.0421     O
O       0.2984   0.3833   0.0294     O
O       0.2984   0.6167   0.5294     O
O       0.3254   0.3436   0.8838     O
O       0.3254   0.6564   0.3838     O
O       0.3368   0.1771   0.1088     O
O       0.3368   0.8229   0.6088     O
O       0.3421   0.3281   0.3737     O
O       0.3421   0.6719   0.8737     O
O       0.3496   0.1961   0.6304     O
O       0.3496   0.8039   0.1304     O
O        0.363   0.3646   0.2245     O
O        0.363   0.6354   0.7245     O
O       0.3685   0.3678   0.7079     O
O       0.3685   0.6322   0.2079     O
P      0.37413  0.30905  0.62656     P
P      0.37413  0.69095  0.12656     P
Al      0.3773  0.30755  0.12409    Al
Al      0.3773  0.69245  0.62409    Al
P      0.41123  0.36602  0.32902     P
P      0.41123  0.63398  0.82902     P
Al     0.41616   0.3906  0.83623    Al
Mn     0.41616   0.6094  0.33623    Mn
O       0.4414   0.4741   0.3595     O
O       0.4414   0.5259   0.8595     O
O       0.4731   0.3122   0.6201     O
O       0.4731   0.6878   0.1201     O
O       0.4988   0.2962   0.3604     O
O       0.4988   0.7038   0.8604     O
O       0.5012   0.2962   0.1396     O
O       0.5012   0.7038   0.6396     O
O       0.5269   0.3122   0.8799     O
O       0.5269   0.6878   0.3799     O
O       0.5586   0.4741   0.1405     O
O       0.5586   0.5259   0.6405     O
Mn     0.58384   0.3906  0.66377    Mn
Al     0.58384   0.6094  0.16377    Al
P      0.58877  0.36602  0.17098     P
P      0.58877  0.63398  0.67098     P
Al      0.6227  0.30755  0.37591    Al
Al      0.6227  0.69245  0.87591    Al
P      0.62587  0.30905  0.87344     P
P      0.62587  0.69095  0.37344     P
O       0.6315   0.3678   0.7921     O
O       0.6315   0.6322   0.2921     O
O        0.637   0.3646   0.2755     O
O        0.637   0.6354   0.7755     O
O       0.6504   0.1961   0.8696     O
O       0.6504   0.8039   0.3696     O
O       0.6579   0.3281   0.1263     O
O       0.6579   0.6719   0.6263     O
O       0.6632   0.1771   0.3912     O
O       0.6632   0.8229   0.8912     O
O       0.6746   0.3436   0.6162     O
O       0.6746   0.6564   0.1162     O
O       0.7016   0.3833   0.4706     O
O       0.7016   0.6167   0.9706     O
O       0.7019   0.3564   0.9579     O
O       0.7019   0.6436   0.4579     O
O       0.7281   0.0043   0.3937     O
O       0.7281   0.9957   0.8937     O
Al     0.74283  0.37415  0.07967    Al
Mn     0.74283  0.62585  0.57967    Mn
P      0.74469  0.38571  0.57551     P
P      0.74469  0.61429  0.07551     P
P      0.75531  0.11429  0.42449     P
P      0.75531  0.88571  0.92449     P
Mn     0.75717  0.12585  0.92033    Mn
Al     0.75717  0.87415  0.42033    Al
O       0.7719   0.4957   0.6063     O
O       0.7719   0.5043   0.1063     O
O       0.7981   0.1436   0.0421     O
O       0.7981   0.8564   0.5421     O
O       0.7984   0.1167   0.5294     O
O       0.7984   0.8833   0.0294     O
O       0.8254   0.1564   0.3838     O
O       0.8254   0.8436   0.8838     O
O       0.8368   0.3229   0.6088     O
O       0.8368   0.6771   0.1088     O
O       0.8421   0.1719   0.8737     O
O       0.8421   0.8281   0.3737     O
O       0.8496   0.3039   0.1304     O
O       0.8496   0.6961   0.6304     O
O        0.863   0.1354   0.7245     O
O        0.863   0.8646   0.2245     O
O       0.8685   0.1322   0.2079     O
O       0.8685   0.8678   0.7079     O
P      0.87413  0.19095  0.12656     P
P      0.87413  0.80905  0.62656     P
Al      0.8773  0.19245  0.62409    Al
Al      0.8773  0.80755  0.12409    Al
P      0.91123  0.13398  0.82902     P
P      0.91123  0.86602  0.32902     P
Mn     0.91616   0.1094  0.33623    Mn
Al     0.91616   0.8906  0.83623    Al
O       0.9414   0.0259   0.8595     O
O       0.9414   0.9741   0.3595     O
O       0.9731   0.1878   0.1201     O
O       0.9731   0.8122   0.6201     O
O       0.9988   0.2038   0.8604     O
O       0.9988   0.7962   0.3604     O
