data_I
_chemical_name_common  '/home/zhangsd/repos/MofS-CGCNN/ML/data/TSD/clean_cifs/GOMRAC_clean'
_cell_length_a 14.73300
_cell_length_b 13.07900
_cell_length_c 15.21000
_cell_angle_alpha 90.00000
_cell_angle_beta  110.99000
_cell_angle_gamma 90.00000
_space_group_name_H-M_alt      'P 1'


loop_
_space_group_symop_operation_xyz
  'x, y, z' 

loop_
_atom_site_label
_atom_site_fract_x
_atom_site_fract_y
_atom_site_fract_z
_atom_site_type_symbol
O       0.0002   0.2011   0.6401     O
O       0.0002   0.7989   0.1401     O
O       0.0279   0.1735   0.3867     O
O       0.0279   0.8265   0.8867     O
O       0.0624   0.0242   0.6365     O
O       0.0624   0.9758   0.1365     O
Zn     0.08313  0.10676  0.16279    Zn
Zn     0.08313  0.89324  0.66279    Zn
P      0.09085  0.13246  0.67012     P
P      0.09085  0.86754  0.17012     P
O       0.1238    0.128   0.2855     O
O       0.1238    0.872   0.7855     O
P      0.12433  0.18606  0.37228     P
P      0.12433  0.81394  0.87228     P
Al     0.12485  0.19052  0.87611    Al
Al     0.12485  0.80948  0.37611    Al
O       0.1391   0.3007   0.3636     O
O       0.1391   0.6993   0.8636     O
O       0.1405   0.1304   0.7769     O
O       0.1405   0.8696   0.2769     O
O       0.1589   0.1762   0.6259     O
O       0.1589   0.8238   0.1259     O
O       0.1654   0.3195   0.8896     O
O       0.1654   0.6805   0.3896     O
O       0.1723   0.1525   0.1205     O
O       0.1723   0.8475   0.6205     O
O       0.2005   0.1137   0.9728     O
O       0.2005   0.8863   0.4728     O
O       0.2085   0.1426   0.4543     O
O       0.2085   0.8574   0.9543     O
O       0.2212    0.494   0.8873     O
O       0.2212    0.506   0.3873     O
P      0.24608  0.11273  0.07913     P
P      0.24608  0.88727  0.57913     P
Al     0.24894  0.12612  0.58201    Al
Zn     0.24894  0.87388  0.08201    Zn
Al     0.25106  0.37388  0.41799    Al
Zn     0.25106  0.62612  0.91799    Zn
P      0.25392  0.38727  0.92087     P
P      0.25392  0.61273  0.42087     P
O       0.2788    0.006   0.1127     O
O       0.2788    0.994   0.6127     O
O       0.2915   0.3574   0.5457     O
O       0.2915   0.6426   0.0457     O
O       0.2995   0.3863   0.0272     O
O       0.2995   0.6137   0.5272     O
O       0.3277   0.3475   0.8795     O
O       0.3277   0.6525   0.3795     O
O       0.3346   0.1805   0.1104     O
O       0.3346   0.8195   0.6104     O
O       0.3411   0.3238   0.3741     O
O       0.3411   0.6762   0.8741     O
O       0.3595   0.3696   0.2231     O
O       0.3595   0.6304   0.7231     O
O       0.3609   0.1993   0.6364     O
O       0.3609   0.8007   0.1364     O
Al     0.37515  0.30948  0.12389    Al
Al     0.37515  0.69052  0.62389    Al
P      0.37567  0.31394  0.62772     P
P      0.37567  0.68606  0.12772     P
O       0.3762    0.372   0.7145     O
O       0.3762    0.628   0.2145     O
P      0.40915  0.36754  0.32988     P
P      0.40915  0.63246  0.82988     P
Al     0.41687  0.39324  0.83721    Al
Al     0.41687  0.60676  0.33721    Al
O       0.4376   0.4758   0.3635     O
O       0.4376   0.5242   0.8635     O
O       0.4721   0.3265   0.6133     O
O       0.4721   0.6735   0.1133     O
O       0.4998   0.2989   0.3599     O
O       0.4998   0.7011   0.8599     O
O       0.5002   0.2989   0.1401     O
O       0.5002   0.7011   0.6401     O
O       0.5279   0.3265   0.8867     O
O       0.5279   0.6735   0.3867     O
O       0.5624   0.4758   0.1365     O
O       0.5624   0.5242   0.6365     O
Al     0.58313  0.39324  0.66279    Al
Al     0.58313  0.60676  0.16279    Al
P      0.59085  0.36754  0.17012     P
P      0.59085  0.63246  0.67012     P
O       0.6238    0.372   0.7855     O
O       0.6238    0.628   0.2855     O
P      0.62433  0.31394  0.87228     P
P      0.62433  0.68606  0.37228     P
Al     0.62485  0.30948  0.37611    Al
Al     0.62485  0.69052  0.87611    Al
O       0.6391   0.1993   0.8636     O
O       0.6391   0.8007   0.3636     O
O       0.6405   0.3696   0.2769     O
O       0.6405   0.6304   0.7769     O
O       0.6589   0.3238   0.1259     O
O       0.6589   0.6762   0.6259     O
O       0.6654   0.1805   0.3896     O
O       0.6654   0.8195   0.8896     O
O       0.6723   0.3475   0.6205     O
O       0.6723   0.6525   0.1205     O
O       0.7005   0.3863   0.4728     O
O       0.7005   0.6137   0.9728     O
O       0.7085   0.3574   0.9543     O
O       0.7085   0.6426   0.4543     O
O       0.7212    0.006   0.3873     O
O       0.7212    0.994   0.8873     O
P      0.74608  0.38727  0.57913     P
P      0.74608  0.61273  0.07913     P
Zn     0.74894  0.37388  0.08201    Zn
Al     0.74894  0.62612  0.58201    Al
Zn     0.75106  0.12612  0.91799    Zn
Al     0.75106  0.87388  0.41799    Al
P      0.75392  0.11273  0.42087     P
P      0.75392  0.88727  0.92087     P
O       0.7788    0.494   0.6127     O
O       0.7788    0.506   0.1127     O
O       0.7915   0.1426   0.0457     O
O       0.7915   0.8574   0.5457     O
O       0.7995   0.1137   0.5272     O
O       0.7995   0.8863   0.0272     O
O       0.8277   0.1525   0.3795     O
O       0.8277   0.8475   0.8795     O
O       0.8346   0.3195   0.6104     O
O       0.8346   0.6805   0.1104     O
O       0.8411   0.1762   0.8741     O
O       0.8411   0.8238   0.3741     O
O       0.8595   0.1304   0.7231     O
O       0.8595   0.8696   0.2231     O
O       0.8609   0.3007   0.1364     O
O       0.8609   0.6993   0.6364     O
Al     0.87515  0.19052  0.62389    Al
Al     0.87515  0.80948  0.12389    Al
P      0.87567  0.18606  0.12772     P
P      0.87567  0.81394  0.62772     P
O       0.8762    0.128   0.2145     O
O       0.8762    0.872   0.7145     O
P      0.90915  0.13246  0.82988     P
P      0.90915  0.86754  0.32988     P
Zn     0.91687  0.10676  0.33721    Zn
Zn     0.91687  0.89324  0.83721    Zn
O       0.9376   0.0242   0.8635     O
O       0.9376   0.9758   0.3635     O
O       0.9721   0.1735   0.1133     O
O       0.9721   0.8265   0.6133     O
O       0.9998   0.2011   0.8599     O
O       0.9998   0.7989   0.3599     O
