data_I
_chemical_name_common  '/home/zhangsd/repos/MofS-CGCNN/ML/data/TSD/clean_cifs/GONTAG_clean'
_cell_length_a 10.95000
_cell_length_b 17.70000
_cell_length_c  7.84300
_cell_angle_alpha 90.00000
_cell_angle_beta  102.33000
_cell_angle_gamma 90.00000
_space_group_name_H-M_alt      'P 1'


loop_
_space_group_symop_operation_xyz
  'x, y, z' 

loop_
_atom_site_label
_atom_site_fract_x
_atom_site_fract_y
_atom_site_fract_z
_atom_site_type_symbol
Ca         0.0  0.03217     0.25    Ca
Ca         0.0  0.96783     0.75    Ca
F       0.0047  0.22824   0.9881     F
F       0.0047  0.77176   0.4881     F
O       0.0884  0.06761   0.0156     O
O       0.0884  0.93239   0.5156     O
F       0.1048  0.36471   0.0712     F
F       0.1048  0.63529   0.5712     F
C       0.1274   0.2376    0.994     C
C       0.1274   0.7624    0.494     C
C        0.141      0.1   0.9075     C
C        0.141      0.9   0.4075     C
O       0.1463  0.07399   0.7628     O
O       0.1463  0.92601   0.2628     O
C       0.1788   0.3077   0.0379     C
C       0.1788   0.6923   0.5379     C
C       0.1974   0.1768   0.9559     C
C       0.1974   0.8232   0.4559     C
C       0.3026   0.3232   0.0441     C
C       0.3026   0.6768   0.5441     C
C       0.3212   0.1923   0.9621     C
C       0.3212   0.8077   0.4621     C
O       0.3537  0.42601   0.2372     O
O       0.3537  0.57399   0.7372     O
C        0.359      0.4   0.0925     C
C        0.359      0.6   0.5925     C
C       0.3726   0.2624    0.006     C
C       0.3726   0.7376    0.506     C
F       0.3952  0.13529   0.9288     F
F       0.3952  0.86471   0.4288     F
O       0.4116  0.43239   0.9844     O
O       0.4116  0.56761   0.4844     O
F       0.4953  0.27176   0.0119     F
F       0.4953  0.72824   0.5119     F
Ca         0.5  0.46783     0.75    Ca
Ca         0.5  0.53217     0.25    Ca
F       0.5047  0.27176   0.4881     F
F       0.5047  0.72824   0.9881     F
O       0.5884  0.43239   0.5156     O
O       0.5884  0.56761   0.0156     O
F       0.6048  0.13529   0.5712     F
F       0.6048  0.86471   0.0712     F
C       0.6274   0.2624    0.494     C
C       0.6274   0.7376    0.994     C
C        0.641      0.4   0.4075     C
C        0.641      0.6   0.9075     C
O       0.6463  0.42601   0.2628     O
O       0.6463  0.57399   0.7628     O
C       0.6788   0.1923   0.5379     C
C       0.6788   0.8077   0.0379     C
C       0.6974   0.3232   0.4559     C
C       0.6974   0.6768   0.9559     C
C       0.8026   0.1768   0.5441     C
C       0.8026   0.8232   0.0441     C
C       0.8212   0.3077   0.4621     C
C       0.8212   0.6923   0.9621     C
O       0.8537  0.07399   0.7372     O
O       0.8537  0.92601   0.2372     O
C        0.859      0.1   0.5925     C
C        0.859      0.9   0.0925     C
C       0.8726   0.2376    0.506     C
C       0.8726   0.7624    0.006     C
F       0.8952  0.36471   0.4288     F
F       0.8952  0.63529   0.9288     F
O       0.9116  0.06761   0.4844     O
O       0.9116  0.93239   0.9844     O
F       0.9953  0.22824   0.5119     F
F       0.9953  0.77176   0.0119     F
