data_I
_chemical_name_common  '/home/zhangsd/repos/MofS-CGCNN/ML/data/TSD/clean_cifs/GUBKUL_clean'
_cell_length_a 13.41090
_cell_length_b 16.25680
_cell_length_c 27.90280
_cell_angle_alpha 90.00000
_cell_angle_beta  98.98400
_cell_angle_gamma 90.00000
_space_group_name_H-M_alt      'P 1'


loop_
_space_group_symop_operation_xyz
  'x, y, z' 

loop_
_atom_site_label
_atom_site_fract_x
_atom_site_fract_y
_atom_site_fract_z
_atom_site_type_symbol
O       0.0025   0.1664  0.39923     O
O       0.0025   0.3336  0.89923     O
O       0.0345   0.0728  0.20863     O
O       0.0345   0.4272  0.70863     O
O       0.0553   0.6257  0.73114     O
O       0.0553   0.8743  0.23114     O
O       0.0621    0.015  0.45718     O
O       0.0621    0.485  0.95718     O
O       0.0653   0.2285  0.31014     O
O       0.0653   0.2715  0.81014     O
C       0.0905   0.1443   0.3952     C
C       0.0905   0.3557   0.8952     C
O       0.1012   0.7034  0.87956     O
O       0.1012   0.7966  0.37956     O
C       0.1048   0.0728  0.36295     C
C       0.1048   0.4272  0.86295     C
C       0.1125   0.0877  0.31462     C
C       0.1125   0.4123  0.81462     C
Ba     0.11378  0.59438    0.041    Ba
Ba     0.11378  0.90562    0.541    Ba
C       0.1154   0.0399   0.2295     C
C       0.1154   0.4601   0.7295     C
C       0.1193   0.0218  0.28326     C
C       0.1193   0.4782  0.78326     C
C       0.1209   0.1738   0.2962     C
C       0.1209   0.3262   0.7962     C
C       0.1211   0.5064  0.88182     C
C       0.1211   0.9936  0.38182     C
C       0.1221   0.5223  0.93467     C
C       0.1221   0.9777  0.43467     C
C        0.126   0.6287  0.76689     C
C        0.126   0.8713  0.26689     C
Ba     0.12819  0.74371  0.17985    Ba
Ba     0.12819  0.75629  0.67985    Ba
C       0.1307   0.5581   0.8013     C
C       0.1307   0.9419   0.3013     C
C       0.1392   0.5709  0.85146     C
C       0.1392   0.9291  0.35146     C
Ba     0.15078  0.13999  0.76807    Ba
Ba     0.15078  0.36001  0.26807    Ba
O       0.1698   0.1784  0.41671     O
O       0.1698   0.3216  0.91671     O
C       0.1702   0.6551  0.87279     C
C       0.1702   0.8449  0.37279     C
O       0.1836   0.5761  0.95419     O
O       0.1836   0.9239  0.45419     O
O       0.1856   0.1874   0.2695     O
O       0.1856   0.3126   0.7695     O
O       0.1866    0.688  0.77463     O
O       0.1866    0.812  0.27463     O
O       0.1919   0.0256  0.21034     O
O       0.1919   0.4744  0.71034     O
O        0.238   0.6699  0.11904     O
O        0.238   0.8301  0.61904     O
O        0.262   0.6699  0.88096     O
O        0.262   0.8301  0.38096     O
O       0.3081   0.0256  0.78966     O
O       0.3081   0.4744  0.28966     O
O       0.3134    0.688  0.22537     O
O       0.3134    0.812  0.72537     O
O       0.3144   0.1874   0.7305     O
O       0.3144   0.3126   0.2305     O
O       0.3164   0.5761  0.04581     O
O       0.3164   0.9239  0.54581     O
C       0.3298   0.6551  0.12721     C
C       0.3298   0.8449  0.62721     C
O       0.3302   0.1784  0.58329     O
O       0.3302   0.3216  0.08329     O
Ba     0.34922  0.13999  0.23193    Ba
Ba     0.34922  0.36001  0.73193    Ba
C       0.3608   0.5709  0.14854     C
C       0.3608   0.9291  0.64854     C
C       0.3693   0.5581   0.1987     C
C       0.3693   0.9419   0.6987     C
Ba     0.37181  0.74371  0.82015    Ba
Ba     0.37181  0.75629  0.32015    Ba
C        0.374   0.6287  0.23311     C
C        0.374   0.8713  0.73311     C
C       0.3779   0.5223  0.06533     C
C       0.3779   0.9777  0.56533     C
C       0.3789   0.5064  0.11818     C
C       0.3789   0.9936  0.61818     C
C       0.3791   0.1738   0.7038     C
C       0.3791   0.3262   0.2038     C
C       0.3807   0.0218  0.71674     C
C       0.3807   0.4782  0.21674     C
C       0.3846   0.0399   0.7705     C
C       0.3846   0.4601   0.2705     C
Ba     0.38622  0.59438    0.959    Ba
Ba     0.38622  0.90562    0.459    Ba
C       0.3875   0.0877  0.68538     C
C       0.3875   0.4123  0.18538     C
C       0.3952   0.0728  0.63705     C
C       0.3952   0.4272  0.13705     C
O       0.3988   0.7034  0.12044     O
O       0.3988   0.7966  0.62044     O
C       0.4095   0.1443   0.6048     C
C       0.4095   0.3557   0.1048     C
O       0.4347   0.2285  0.68986     O
O       0.4347   0.2715  0.18986     O
O       0.4379    0.015  0.54282     O
O       0.4379    0.485  0.04282     O
O       0.4447   0.6257  0.26886     O
O       0.4447   0.8743  0.76886     O
O       0.4655   0.0728  0.79137     O
O       0.4655   0.4272  0.29137     O
O       0.4975   0.1664  0.60077     O
O       0.4975   0.3336  0.10077     O
O       0.5025   0.6664  0.89923     O
O       0.5025   0.8336  0.39923     O
O       0.5345   0.5728  0.70863     O
O       0.5345   0.9272  0.20863     O
O       0.5553   0.1257  0.23114     O
O       0.5553   0.3743  0.73114     O
O       0.5621    0.515  0.95718     O
O       0.5621    0.985  0.45718     O
O       0.5653   0.7285  0.81014     O
O       0.5653   0.7715  0.31014     O
C       0.5905   0.6443   0.8952     C
C       0.5905   0.8557   0.3952     C
O       0.6012   0.2034  0.37956     O
O       0.6012   0.2966  0.87956     O
C       0.6048   0.5728  0.86295     C
C       0.6048   0.9272  0.36295     C
C       0.6125   0.5877  0.81462     C
C       0.6125   0.9123  0.31462     C
Ba     0.61378  0.09438    0.541    Ba
Ba     0.61378  0.40562    0.041    Ba
C       0.6154   0.5399   0.7295     C
C       0.6154   0.9601   0.2295     C
C       0.6193   0.5218  0.78326     C
C       0.6193   0.9782  0.28326     C
C       0.6209   0.6738   0.7962     C
C       0.6209   0.8262   0.2962     C
C       0.6211   0.0064  0.38182     C
C       0.6211   0.4936  0.88182     C
C       0.6221   0.0223  0.43467     C
C       0.6221   0.4777  0.93467     C
C        0.626   0.1287  0.26689     C
C        0.626   0.3713  0.76689     C
Ba     0.62819  0.24371  0.67985    Ba
Ba     0.62819  0.25629  0.17985    Ba
C       0.6307   0.0581   0.3013     C
C       0.6307   0.4419   0.8013     C
C       0.6392   0.0709  0.35146     C
C       0.6392   0.4291  0.85146     C
Ba     0.65078  0.63999  0.26807    Ba
Ba     0.65078  0.86001  0.76807    Ba
O       0.6698   0.6784  0.91671     O
O       0.6698   0.8216  0.41671     O
C       0.6702   0.1551  0.37279     C
C       0.6702   0.3449  0.87279     C
O       0.6836   0.0761  0.45419     O
O       0.6836   0.4239  0.95419     O
O       0.6856   0.6874   0.7695     O
O       0.6856   0.8126   0.2695     O
O       0.6866    0.188  0.27463     O
O       0.6866    0.312  0.77463     O
O       0.6919   0.5256  0.71034     O
O       0.6919   0.9744  0.21034     O
O        0.738   0.1699  0.61904     O
O        0.738   0.3301  0.11904     O
O        0.762   0.1699  0.38096     O
O        0.762   0.3301  0.88096     O
O       0.8081   0.5256  0.28966     O
O       0.8081   0.9744  0.78966     O
O       0.8134    0.188  0.72537     O
O       0.8134    0.312  0.22537     O
O       0.8144   0.6874   0.2305     O
O       0.8144   0.8126   0.7305     O
O       0.8164   0.0761  0.54581     O
O       0.8164   0.4239  0.04581     O
C       0.8298   0.1551  0.62721     C
C       0.8298   0.3449  0.12721     C
O       0.8302   0.6784  0.08329     O
O       0.8302   0.8216  0.58329     O
Ba     0.84922  0.63999  0.73193    Ba
Ba     0.84922  0.86001  0.23193    Ba
C       0.8608   0.0709  0.64854     C
C       0.8608   0.4291  0.14854     C
C       0.8693   0.0581   0.6987     C
C       0.8693   0.4419   0.1987     C
Ba     0.87181  0.24371  0.32015    Ba
Ba     0.87181  0.25629  0.82015    Ba
C        0.874   0.1287  0.73311     C
C        0.874   0.3713  0.23311     C
C       0.8779   0.0223  0.56533     C
C       0.8779   0.4777  0.06533     C
C       0.8789   0.0064  0.61818     C
C       0.8789   0.4936  0.11818     C
C       0.8791   0.6738   0.2038     C
C       0.8791   0.8262   0.7038     C
C       0.8807   0.5218  0.21674     C
C       0.8807   0.9782  0.71674     C
C       0.8846   0.5399   0.2705     C
C       0.8846   0.9601   0.7705     C
Ba     0.88622  0.09438    0.459    Ba
Ba     0.88622  0.40562    0.959    Ba
C       0.8875   0.5877  0.18538     C
C       0.8875   0.9123  0.68538     C
C       0.8952   0.5728  0.13705     C
C       0.8952   0.9272  0.63705     C
O       0.8988   0.2034  0.62044     O
O       0.8988   0.2966  0.12044     O
C       0.9095   0.6443   0.1048     C
C       0.9095   0.8557   0.6048     C
O       0.9347   0.7285  0.18986     O
O       0.9347   0.7715  0.68986     O
O       0.9379    0.515  0.04282     O
O       0.9379    0.985  0.54282     O
O       0.9447   0.1257  0.76886     O
O       0.9447   0.3743  0.26886     O
O       0.9655   0.5728  0.29137     O
O       0.9655   0.9272  0.79137     O
O       0.9975   0.6664  0.10077     O
O       0.9975   0.8336  0.60077     O
