data_I
_chemical_name_common  '/home/zhangsd/repos/MofS-CGCNN/ML/data/TSD/clean_cifs/GUBZAF_clean'
_cell_length_a 11.34000
_cell_length_b 15.77000
_cell_length_c 22.90000
_cell_angle_alpha 90.00000
_cell_angle_beta  97.98000
_cell_angle_gamma 90.00000
_space_group_name_H-M_alt      'P 1'


loop_
_space_group_symop_operation_xyz
  'x, y, z' 

loop_
_atom_site_label
_atom_site_fract_x
_atom_site_fract_y
_atom_site_fract_z
_atom_site_type_symbol
C       0.0009   0.4551   0.4475     C
H       0.0067   0.1993   0.1206     H
C       0.0073   0.4055    0.393     C
N       0.0103   0.2297   0.8317     N
H       0.0146   0.7872   0.0006     H
N       0.0175   0.6662   0.2688     N
C       0.0279   0.2323   0.8905     C
C       0.0317    0.916    0.012     C
C       0.0333   0.3137   0.1629     C
H       0.0407   0.6899   0.3558     H
C        0.043   0.7532   0.8714     C
H       0.0473   0.3522   0.4039     H
H       0.0479   0.2556   0.2423     H
H        0.049   0.3915   0.0948     H
H       0.0556   0.4364   0.3685     H
N       0.0589   0.8048   0.0874     N
H       0.0598   0.6056   0.1974     H
C       0.0645   0.6599   0.3244     C
C       0.0667   0.8247    0.026     C
C       0.0691   0.3041   0.2232     C
C        0.071   0.3846   0.1351     C
C       0.0743   0.0532   0.9767     C
C       0.0749   0.6138    0.238     C
C       0.0775   0.5214    0.462     C
C       0.0781    0.566   0.5129     C
H       0.0786   0.7296   0.9089     H
H       0.0935   0.2572   0.9129     H
C       0.0953   0.8121   0.1792     C
C       0.1053   0.9693    0.989     C
N       0.1082    0.613   0.6418     N
Cu       0.113  0.25661  0.77146    Cu
H       0.1268   0.0886   0.9605     H
H       0.1307   0.5363   0.4363     H
H       0.1312   0.6107   0.5214     H
H       0.1324   0.8241   0.2171     H
H       0.1342   0.7381   0.6396     H
N       0.1358   0.7827   0.8393     N
C        0.136   0.3664   0.2546     C
C       0.1403   0.4447   0.1665     C
N       0.1405    0.834   0.1318     N
H       0.1476   0.8154   0.0181     H
N       0.1508   0.6037    0.328     N
N       0.1566   0.8638   0.8291     N
H       0.1571   0.3605   0.2951     H
N       0.1573   0.5752   0.2746     N
C        0.163   0.6857   0.6536     C
H       0.1667   0.0614   0.7831     H
H       0.1667   0.4914   0.1471     H
C       0.1714   0.4366   0.2269     C
N       0.1762   0.5506   0.6676     N
H       0.1788   0.9496   0.9812     H
H       0.2019   0.0317   0.2618     H
C       0.2081   0.7364   0.8114     C
H       0.2122   0.6775   0.8112     H
H       0.2167   0.9861   0.2023     H
N       0.2264   0.2888    0.716     N
H       0.2265   0.4167   0.7189     H
C         0.23   0.0897   0.8049     C
N       0.2339   0.1736   0.8112     N
C       0.2405   0.5082   0.2613     C
C       0.2417   0.8675   0.7949     C
C       0.2583   0.3675   0.7051     C
C       0.2595   0.0082   0.2387     C
N       0.2661   0.6736   0.6888     N
C         0.27   0.5897   0.6951     C
H       0.2735   0.9167   0.7811     H
N       0.2736   0.7888    0.784     N
H       0.2833   0.4861   0.2977     H
H       0.2878   0.1775   0.6888     H
C       0.2919   0.2364   0.6886     C
H       0.2981   0.5317   0.2382     H
H       0.3212   0.4496   0.5188     H
N       0.3238   0.0506   0.8324     N
C       0.3286   0.9366   0.2731     C
H       0.3333   0.5614   0.7169     H
H       0.3333   0.9914   0.3529     H
C        0.337   0.1857   0.8464     C
N       0.3427   0.0752   0.2254     N
H       0.3429   0.8605   0.2049     H
N       0.3434   0.3638   0.6709     N
N       0.3492   0.1037    0.172     N
H       0.3524   0.3154   0.4819     H
N       0.3595    0.334   0.3682     N
C       0.3597   0.9447   0.3335     C
C        0.364   0.8664   0.2454     C
N       0.3642   0.2827   0.6607     N
H       0.3658   0.2381   0.8604     H
H       0.3676   0.3241   0.2829     H
H       0.3688   0.1107   0.9786     H
H       0.3693   0.0363   0.0637     H
H       0.3732   0.5886   0.5395     H
Cu       0.387  0.75661  0.72854    Cu
N       0.3918    0.113   0.8582     N
C       0.3947   0.4693    0.511     C
C       0.4047   0.3121   0.3208     C
H       0.4065   0.7572   0.5871     H
H       0.4214   0.2296   0.5911     H
C       0.4219    0.066   0.9871     C
C       0.4225   0.0214    0.038     C
C       0.4251   0.1138    0.262     C
C       0.4257   0.5532   0.5233     C
C        0.429   0.8846   0.3649     C
C       0.4309   0.8041   0.2768     C
C       0.4333   0.3247    0.474     C
C       0.4355   0.1599   0.1756     C
H       0.4402   0.1056   0.3026     H
N       0.4411   0.3048   0.4126     N
H       0.4444   0.9364   0.1315     H
H        0.451   0.8915   0.4052     H
H       0.4521   0.7556   0.2577     H
H       0.4527   0.8522   0.0961     H
C        0.457   0.2532   0.6286     C
H       0.4593   0.1899   0.1442     H
C       0.4667   0.8137   0.3371     C
C       0.4683    0.416    0.488     C
C       0.4721   0.7323   0.6095     C
N       0.4825   0.1662   0.2312     N
H       0.4854   0.2872   0.4994     H
N       0.4897   0.7297   0.6683     N
C       0.4927   0.9055    0.107     C
H       0.4933   0.6993   0.3794     H
C       0.4991   0.9551   0.0525     C
C       0.5009   0.0449   0.9475     C
H       0.5067   0.3007   0.6206     H
C       0.5073   0.0945    0.893     C
N       0.5103   0.2703   0.3317     N
H       0.5146   0.7128   0.5006     H
N       0.5175   0.8338   0.7688     N
C       0.5279   0.2677   0.3905     C
C       0.5317    0.584    0.512     C
C       0.5333   0.1863   0.6629     C
H       0.5407   0.8101   0.8558     H
C        0.543   0.7468   0.3714     C
H       0.5473   0.1478   0.9039     H
H       0.5479   0.2444   0.7423     H
H        0.549   0.1085   0.5948     H
H       0.5556   0.0636   0.8685     H
N       0.5589   0.6952   0.5874     N
H       0.5598   0.8944   0.6974     H
C       0.5645   0.8401   0.8244     C
C       0.5667   0.6753    0.526     C
C       0.5691   0.1959   0.7232     C
C        0.571   0.1154   0.6351     C
C       0.5743   0.4468   0.4767     C
C       0.5749   0.8862    0.738     C
C       0.5775   0.9786    0.962     C
C       0.5781    0.934   0.0129     C
H       0.5786   0.7704   0.4089     H
H       0.5935   0.2428   0.4129     H
C       0.5953   0.6879   0.6792     C
C       0.6053   0.5307    0.489     C
N       0.6082    0.887   0.1418     N
Cu       0.613  0.24339  0.27146    Cu
H       0.6268   0.4114   0.4605     H
H       0.6307   0.9637   0.9363     H
H       0.6312   0.8893   0.0214     H
H       0.6324   0.6759   0.7171     H
H       0.6342   0.7619   0.1396     H
N       0.6358   0.7173   0.3393     N
C        0.636   0.1336   0.7546     C
C       0.6403   0.0553   0.6665     C
N       0.6405    0.666   0.6318     N
H       0.6476   0.6846   0.5181     H
N       0.6508   0.8963    0.828     N
N       0.6566   0.6362   0.3291     N
H       0.6571   0.1395   0.7951     H
N       0.6573   0.9248   0.7746     N
C        0.663   0.8143   0.1536     C
H       0.6667   0.0086   0.6471     H
H       0.6667   0.4386   0.2831     H
C       0.6714   0.0634   0.7269     C
N       0.6762   0.9494   0.1676     N
H       0.6788   0.5504   0.4812     H
H       0.7019   0.4683   0.7618     H
C       0.7081   0.7636   0.3114     C
H       0.7122   0.8225   0.3112     H
H       0.7167   0.5139   0.7023     H
N       0.7264   0.2112    0.216     N
H       0.7265   0.0833   0.2189     H
C         0.73   0.4103   0.3049     C
N       0.7339   0.3264   0.3112     N
C       0.7405   0.9918   0.7613     C
C       0.7417   0.6325   0.2949     C
C       0.7583   0.1325   0.2051     C
C       0.7595   0.4918   0.7387     C
N       0.7661   0.8264   0.1888     N
C         0.77   0.9103   0.1951     C
H       0.7735   0.5833   0.2811     H
N       0.7736   0.7112    0.284     N
H       0.7833   0.0139   0.7977     H
H       0.7878   0.3225   0.1888     H
C       0.7919   0.2636   0.1886     C
H       0.7981   0.9683   0.7382     H
H       0.8212   0.0504   0.0188     H
N       0.8238   0.4494   0.3324     N
C       0.8286   0.5634   0.7731     C
H       0.8333   0.5086   0.8529     H
H       0.8333   0.9386   0.2169     H
C        0.837   0.3143   0.3464     C
N       0.8427   0.4248   0.7254     N
H       0.8429   0.6395   0.7049     H
N       0.8434   0.1362   0.1709     N
N       0.8492   0.3963    0.672     N
H       0.8524   0.1846   0.9819     H
N       0.8595    0.166   0.8682     N
C       0.8597   0.5553   0.8335     C
C        0.864   0.6336   0.7454     C
N       0.8642   0.2173   0.1607     N
H       0.8658   0.2619   0.3604     H
H       0.8676   0.1759   0.7829     H
H       0.8688   0.3893   0.4786     H
H       0.8693   0.4637   0.5637     H
H       0.8732   0.9114   0.0395     H
Cu       0.887  0.74339  0.22854    Cu
N       0.8918    0.387   0.3582     N
C       0.8947   0.0307    0.011     C
C       0.9047   0.1879   0.8208     C
H       0.9065   0.7428   0.0871     H
H       0.9214   0.2704   0.0911     H
C       0.9219    0.434   0.4871     C
C       0.9225   0.4786    0.538     C
C       0.9251   0.3862    0.762     C
C       0.9257   0.9468   0.0233     C
C        0.929   0.6154   0.8649     C
C       0.9309   0.6959   0.7768     C
C       0.9333   0.1753    0.974     C
C       0.9355   0.3401   0.6756     C
H       0.9402   0.3944   0.8026     H
N       0.9411   0.1952   0.9126     N
H       0.9444   0.5636   0.6315     H
H        0.951   0.6085   0.9052     H
H       0.9521   0.7444   0.7577     H
H       0.9527   0.6478   0.5961     H
C        0.957   0.2468   0.1286     C
H       0.9593   0.3101   0.6442     H
C       0.9667   0.6863   0.8371     C
C       0.9683    0.084    0.988     C
C       0.9721   0.7677   0.1095     C
N       0.9825   0.3338   0.7312     N
H       0.9854   0.2128   0.9994     H
N       0.9897   0.7703   0.1683     N
C       0.9927   0.5945    0.607     C
H       0.9933   0.8007   0.8794     H
C       0.9991   0.5449   0.5525     C
