data_I
_chemical_name_common  '/home/zhangsd/repos/MofS-CGCNN/ML/data/TSD/clean_cifs/GUFBOA_clean'
_cell_length_a  9.00500
_cell_length_b 12.57300
_cell_length_c 19.67500
_cell_angle_alpha 82.31300
_cell_angle_beta  79.25900
_cell_angle_gamma 86.74900
_space_group_name_H-M_alt      'P 1'


loop_
_space_group_symop_operation_xyz
  'x, y, z' 

loop_
_atom_site_label
_atom_site_fract_x
_atom_site_fract_y
_atom_site_fract_z
_atom_site_type_symbol
C       0.0014   0.0455   0.9734     C
C       0.0126   0.2893    0.773     C
C       0.0141   0.7804   0.2714     C
H       0.0167   0.8893    0.673     H
H       0.0177     0.02   0.9282     H
H       0.0257   0.7766    0.773     H
C       0.0286   0.5376   0.1788     C
H       0.0388   0.1539   0.7277     H
C       0.0413   0.1643   0.2263     C
H       0.0441   0.7399   0.0385     H
O        0.045   0.4356   0.8653     O
C       0.0456   0.0959   0.2858     C
O        0.062   0.3104   0.1028     O
H       0.0633   0.4015   0.1636     H
C       0.0649   0.6118    0.227     C
H       0.0817   0.2704   0.8026     H
H        0.086   0.0892   0.9746     H
O       0.0867   0.4401   0.1921     O
C        0.119   0.7536   0.3148     C
C       0.1364   0.7734   0.0294     C
C       0.1366   0.1463   0.1644     C
C       0.1398   0.0052   0.2867     C
C       0.1429   0.8849   0.0183     C
C       0.1488   0.2264   0.1004     C
C       0.1492   0.9355    0.352     C
C       0.1496   0.8277    0.362     C
C       0.1661   0.5844   0.2703     C
S        0.179  0.00167  0.42016     S
S        0.184  0.76655  0.44416     S
C       0.1951   0.6534   0.3136     C
H       0.2162   0.5176   0.2703     H
C        0.219   0.8857   0.4742     C
C        0.231   0.0553   0.1649     C
C       0.2338   0.9866   0.2253     C
H       0.2357   0.6578   0.7188     H
O         0.24   0.2062   0.0473     O
C        0.264   0.8885   0.5335     C
H       0.2647     0.64   0.0337     H
H       0.2657    0.634   0.3424     H
H       0.2689   0.9332   0.7808     H
C       0.2695   0.7144   0.0264     C
C       0.2826   0.9273   0.0029     C
H       0.2858   0.0585    0.853     H
H       0.2916   0.0014   0.9929     H
S       0.2919  0.00574  0.56664     S
H       0.2934   0.0404   0.1238     H
H       0.2999    0.927   0.2247     H
S       0.3028  0.77101  0.58784     S
H       0.3047   0.5411   0.8096     H
C       0.3134   0.9982   0.7624     C
C       0.3177   0.6729    0.738     C
C       0.3238   0.0732   0.8056     C
C       0.3487   0.9435   0.6436     C
O       0.3511   0.2344   0.8903     O
C       0.3569   0.8352   0.6529     C
C       0.3588    0.603   0.7929     C
H       0.3589   0.2696   0.1838     H
C       0.3683   0.0183   0.6922     C
Cd     0.37653  0.34071  0.98261    Cd
C       0.3892     0.17     0.78     C
C       0.3971   0.7639    0.712     C
C       0.3984   0.2502   0.8278     C
N       0.4045   0.7567   0.0139     N
C       0.4109   0.8619   0.0019     C
O       0.4113   0.4161   0.0766     O
H       0.4222   0.1563   0.2766     H
C        0.434   0.1161    0.666     C
C       0.4403   0.2849   0.2034     C
C       0.4465    0.191   0.7094     C
O       0.4548   0.3406   0.7965     O
H       0.4613   0.6536   0.1941     H
H       0.4701   0.1312   0.6184     H
O       0.4769   0.4551   0.8899     O
C        0.479   0.6245    0.823     C
C       0.4792   0.2164   0.2587     C
C       0.4808   0.4487   0.1173     C
H       0.4933   0.2554   0.6914     H
H        0.495   0.1068   0.0076     H
H        0.505   0.8932   0.9924     H
H       0.5067   0.7446   0.3086     H
C       0.5192   0.5513   0.8827     C
C       0.5208   0.7836   0.7413     C
C        0.521   0.3755    0.177     C
O       0.5231   0.5449   0.1101     O
H       0.5299   0.8688   0.3816     H
H       0.5387   0.3464   0.8059     H
O       0.5452   0.6594   0.2035     O
C       0.5535    0.809   0.2906     C
C       0.5597   0.7151   0.7966     C
C        0.566   0.8839    0.334     C
H       0.5778   0.8437   0.7234     H
O       0.5887   0.5839   0.9234     O
C       0.5891   0.1381   0.9981     C
N       0.5955   0.2433   0.9861     N
C       0.6016   0.7498   0.1722     C
C       0.6029   0.2361    0.288     C
C       0.6108     0.83     0.22     C
Cd     0.62347  0.65929  0.01739    Cd
C       0.6317   0.9817   0.3078     C
H       0.6411   0.7304   0.8162     H
C       0.6412    0.397   0.2071     C
C       0.6431   0.1648   0.3471     C
O       0.6489   0.7656   0.1097     O
C       0.6513   0.0565   0.3564     C
C       0.6762   0.9268   0.1944     C
C       0.6823   0.3271    0.262     C
C       0.6866   0.0018   0.2376     C
H       0.6953   0.4589   0.1904     H
S       0.6972  0.22899  0.41216     S
H       0.7001    0.073   0.7753     H
H       0.7066   0.9596   0.8762     H
S       0.7081  0.99426  0.43336     S
H       0.7084   0.9986   0.0071     H
H       0.7142   0.9415    0.147     H
C       0.7174   0.0727   0.9971     C
C       0.7305   0.2856   0.9736     C
H       0.7311   0.0668   0.2192     H
H       0.7343    0.366   0.6576     H
H       0.7353     0.36   0.9663     H
C        0.736   0.1115   0.4665     C
O         0.76   0.7938   0.9527     O
H       0.7643   0.3422   0.2812     H
C       0.7662   0.0134   0.7747     C
C        0.769   0.9447   0.8351     C
C        0.781   0.1143   0.5258     C
H       0.7838   0.4824   0.7297     H
C       0.8049   0.3466   0.6864     C
S        0.816  0.23345  0.55584     S
S        0.821  0.99833  0.57984     S
C       0.8339   0.4156   0.7297     C
C       0.8504   0.1723    0.638     C
C       0.8508   0.0645    0.648     C
C       0.8512   0.7736   0.8996     C
C       0.8571   0.1151   0.9817     C
C       0.8602   0.9948   0.7133     C
C       0.8634   0.8537   0.8356     C
C       0.8636   0.2266   0.9706     C
C        0.881   0.2464   0.6852     C
O       0.9133   0.5599   0.8079     O
H        0.914   0.9108   0.0254     H
H       0.9183   0.7296   0.1974     H
C       0.9351   0.3882    0.773     C
H       0.9367   0.5985   0.8364     H
O        0.938   0.6896   0.8972     O
C       0.9544   0.9041   0.7142     C
O        0.955   0.5644   0.1347     O
H       0.9559   0.2601   0.9615     H
C       0.9587   0.8357   0.7737     C
H       0.9612   0.8461   0.2723     H
C       0.9714   0.4624   0.8212     C
H       0.9743   0.2234    0.227     H
H       0.9823     0.98   0.0718     H
H       0.9833   0.1107    0.327     H
C       0.9859   0.2196   0.7286     C
C       0.9874   0.7107    0.227     C
C       0.9986   0.9545   0.0266     C
