data_I
_chemical_name_common  '/home/zhangsd/repos/MofS-CGCNN/ML/data/TSD/clean_cifs/GUFREF_clean'
_cell_length_a 12.67390
_cell_length_b 12.67390
_cell_length_c 23.30700
_cell_angle_alpha 83.00250
_cell_angle_beta  83.00250
_cell_angle_gamma 62.80560
_space_group_name_H-M_alt      'P 1'


loop_
_space_group_symop_operation_xyz
  'x, y, z' 

loop_
_atom_site_label
_atom_site_fract_x
_atom_site_fract_y
_atom_site_fract_z
_atom_site_type_symbol
C      0.00285  0.56085  0.59249     C
H       0.0077   0.7031    0.035     H
O      0.00925  0.48825  0.35961     O
C      0.01427  0.31887  0.76937     C
C      0.01476  0.77296  0.21548     C
H       0.0201   0.5997   0.0825     H
H       0.0348    0.615   0.2533     H
H       0.0486   0.0664   0.8281     H
H       0.0606   0.9066   0.2822     H
H       0.0612   0.6538   0.9356     H
C       0.0632    0.132   0.8175     C
C      0.06337  0.62657   0.0519     C
H       0.0664   0.0486   0.3281     H
H       0.0681   0.2129   0.3577     H
O      0.08378  0.35698  0.43067     O
H       0.0934   0.9394   0.2178     H
H        0.101   0.6308   0.3824     H
C      0.10482  0.57402   0.9475     C
C      0.11498  0.53838  0.00599     C
C      0.11526  0.31346   0.7874     C
C       0.1204   0.8796     0.25     C
H       0.1205   0.7767   0.4214     H
H       0.1207   0.5611    0.523     H
C        0.127    0.522  0.56181     C
H        0.127   0.6918   0.1093     H
C      0.12897  0.76597   0.2328     C
H       0.1297   0.7273   0.5696     H
C        0.132   0.0632   0.3175     C
H        0.133   0.3768   0.7759     H
C      0.13323  0.16263   0.3349     C
H       0.1523   0.5159   0.8678     H
H       0.1566   0.7062    0.265     H
C      0.15999  0.49039  0.90687     C
C      0.16183  0.64043  0.07757     C
C      0.16263  0.13323   0.8349     C
H       0.1646   0.4368   0.5584     H
H       0.1696    0.768   0.0172     H
C      0.17391  0.61311  0.39577     C
C      0.17786  0.41866  0.02085     C
H       0.1847   0.3905   0.0596     H
C       0.1849   0.7017   0.4192     C
C        0.186   0.6688   0.5928     C
H       0.1888   0.7392   0.2006     H
N       0.1902    0.223  0.82057     N
C      0.20328  0.55328  0.59517     C
H       0.2129   0.0681   0.8577     H
H       0.2185   0.5633   0.0932     H
H       0.2228   0.7598   0.8765     H
N        0.223   0.1902  0.32057     N
H       0.2233   0.8795   0.0786     H
N      0.22391  0.37451  0.92135     N
C      0.22636  0.69176  0.03373     C
C      0.22704  0.98524  0.28452     C
C       0.2307   0.3405  0.97777     C
H        0.232   0.8304   0.4828     H
Cd     0.23227  0.35046  0.35609    Cd
C      0.23403  0.87103   0.2672     C
H       0.2402   0.7772   0.6235     H
O      0.24396  0.43636  0.26438     O
C       0.2525   0.6987   0.6252     C
H       0.2599   0.2731   0.4887     H
H       0.2608   0.8112   0.2994     H
N      0.26127  0.50407  0.39117     N
H       0.2637   0.6391   0.0026     H
H       0.2727   0.8703   0.9304     H
H       0.2731   0.2599   0.9887     H
C      0.28866  0.46746  0.63001     C
C      0.29154  0.67914  0.43948     C
H       0.2938   0.8434    0.235     H
H       0.2969   0.9923    0.465     H
C       0.2983   0.8151   0.0808     C
H        0.301    0.389   0.6316     H
C       0.3013   0.7475   0.8748     C
H       0.3082    0.873   0.3907     H
C      0.30824  0.77364  0.46627     C
C      0.31346  0.11526   0.2874     C
O      0.31622  0.42782  0.78534     O
C      0.31887  0.01427  0.26937     C
C      0.32086  0.70846  0.06052     C
C       0.3312    0.814   0.9072     C
H       0.3327   0.4963   0.1763     H
C      0.33693  0.61233  0.65984     C
C       0.3405   0.2307  0.47777     C
H       0.3462   0.9388   0.5644     H
Cd     0.35046  0.23227  0.85609    Cd
C      0.35442  0.39542  0.25333     C
C        0.356   0.4956  0.66247     C
O      0.35698  0.08378  0.93067     O
C      0.35957  0.83817  0.42243     C
H       0.3609   0.7363   0.4974     H
C      0.36467  0.48287   0.4092     C
H       0.3669   0.6191   0.8186     H
H       0.3692    0.899   0.1176     H
C      0.37343  0.93663   0.4481     C
N      0.37451  0.22391  0.42135     N
H       0.3768    0.133   0.2759     H
H       0.3809   0.6331   0.6814     H
C      0.38301  0.56681   0.4334     C
H        0.385   0.9652   0.2467     H
C      0.38689  0.82609  0.10423     C
C      0.38767  0.66307  0.84016     C
H        0.389    0.301   0.1316     H
H       0.3905   0.1847   0.5596     H
C      0.39542  0.35442  0.75333     C
C       0.3993   0.4473  0.19952     C
H       0.4003   0.9799   0.4175     H
H       0.4077   0.4281   0.9054     H
C      0.41866  0.17786  0.52085     C
C      0.42598  0.89518   0.5525     C
O      0.42782  0.31622  0.28534     O
H       0.4281   0.4077   0.4054     H
H       0.4295   0.4987   0.2112     H
C      0.43319  0.61699   0.0666     C
O      0.43636  0.24396  0.76438     O
H       0.4367   0.7815   0.4068     H
H       0.4368   0.1646   0.0584     H
H       0.4389   0.8793    0.977     H
C      0.43915  0.99715  0.90751     C
C      0.44672  0.79672  0.90483     C
C       0.4473   0.3993  0.69952     C
H       0.4527   0.5427   0.0543     H
H       0.4573   0.5473   0.4457     H
C      0.46162  0.88502  0.49401     C
C      0.46746  0.28866  0.13001     C
C        0.478    0.873  0.93819     C
C      0.48287  0.36467   0.9092     C
H       0.4841   0.8477   0.6322     H
O      0.48825  0.00925  0.85961     O
C      0.49039  0.15999  0.40687     C
C       0.4956    0.356  0.16247     C
N      0.49593  0.73873  0.10883     N
H       0.4963   0.3327   0.6763     H
H       0.4987   0.4295   0.7112     H
H       0.5013   0.5705   0.2888     H
H       0.5037   0.6673   0.3237     H
N      0.50407  0.26127  0.89117     N
C       0.5044    0.644  0.83753     C
C      0.50961  0.84001  0.59313     C
O      0.51175  0.99075  0.14039     O
H       0.5159   0.1523   0.3678     H
C      0.51713  0.63533   0.0908     C
C        0.522    0.127  0.06181     C
C      0.53254  0.71134  0.86999     C
C      0.53838  0.11498  0.50599     C
H       0.5427   0.4527   0.5543     H
H       0.5473   0.4573   0.9457     H
C       0.5527   0.6007  0.30048     C
C      0.55328  0.20328  0.09517     C
C      0.56085  0.00285  0.09249     C
H       0.5611   0.1207    0.023     H
H       0.5632   0.8354   0.9416     H
H       0.5633   0.2185   0.5932     H
O      0.56364  0.75604  0.23562     O
C      0.56681  0.38301   0.9334     C
H       0.5705   0.5013   0.7888     H
H       0.5719   0.5923   0.5946     H
O      0.57218  0.68378  0.71466     O
C      0.57402  0.10482   0.4475     C
C      0.58134  0.82214  0.47915     C
H       0.5923   0.5719   0.0946     H
H       0.5997   0.0201   0.5825     H
C       0.6007   0.5527  0.80048     C
C      0.60458  0.64558  0.24667     C
H       0.6095   0.8153   0.4404     H
H        0.611    0.699   0.8684     H
C      0.61233  0.33693  0.15984     C
C      0.61311  0.17391  0.89577     C
H        0.615   0.0348   0.7533     H
C      0.61699  0.43319   0.5666     C
H       0.6191   0.3669   0.3186     H
H       0.6232    0.867   0.7241     H
N      0.62549  0.77609  0.57865     N
C      0.62657  0.06337   0.5519     C
H       0.6308    0.101   0.8824     H
H       0.6331   0.3809   0.1814     H
C      0.63533  0.51713   0.5908     C
H       0.6391   0.2637   0.5026     H
C      0.64043  0.16183  0.57757     C
O      0.64302  0.91622  0.06933     O
C        0.644   0.5044  0.33753     C
C      0.64558  0.60458  0.74667     C
Cd     0.64954  0.76773  0.14391    Cd
H       0.6538   0.0612   0.4356     H
C       0.6595   0.7693  0.52223     C
C      0.66307  0.38767  0.34016     C
H       0.6673   0.5037   0.8237     H
C       0.6688    0.186   0.0928     C
C      0.67914  0.29154  0.93948     C
C      0.68113  0.98573  0.73063     C
O      0.68378  0.57218  0.21466     O
C      0.68654  0.88474   0.7126     C
C      0.69176  0.22636  0.53373     C
H       0.6918    0.127   0.6093     H
C       0.6987   0.2525   0.1252     C
H        0.699    0.611   0.3684     H
C       0.7017   0.1849   0.9192     C
H       0.7031   0.0077    0.535     H
H       0.7062   0.1566    0.765     H
C      0.70846  0.32086  0.56052     C
C      0.71134  0.53254  0.36999     C
H       0.7269   0.7401   0.0113     H
H       0.7273   0.1297   0.0696     H
H       0.7363   0.3609   0.9974     H
N      0.73873  0.49593  0.60883     N
H       0.7392   0.1888   0.7006     H
H       0.7401   0.7269   0.5113     H
C       0.7475   0.3013   0.3748     C
O      0.75604  0.56364  0.73562     O
H       0.7598   0.2228   0.3765     H
C      0.76597  0.12897   0.7328     C
Cd     0.76773  0.64954  0.64391    Cd
H        0.768   0.1696   0.5172     H
C       0.7693   0.6595  0.02223     C
C      0.77296  0.01476  0.71548     C
C      0.77364  0.30824  0.96627     C
N      0.77609  0.62549  0.07865     N
H       0.7767   0.1205   0.9214     H
N        0.777   0.8098  0.67943     N
H       0.7772   0.2402   0.1235     H
H       0.7815   0.4367   0.9068     H
H       0.7871   0.9319   0.1423     H
C      0.79672  0.44672  0.40483     C
N       0.8098    0.777  0.17943     N
H       0.8112   0.2608   0.7994     H
C        0.814   0.3312   0.4072     C
C       0.8151   0.2983   0.5808     C
H       0.8153   0.6095   0.9404     H
C      0.82214  0.58134  0.97915     C
C      0.82609  0.38689  0.60423     C
H       0.8304    0.232   0.9828     H
H       0.8354   0.5632   0.4416     H
C      0.83737  0.86677   0.1651     C
C      0.83817  0.35957  0.92243     C
C      0.84001  0.50961  0.09313     C
H       0.8434   0.2938    0.735     H
H       0.8477   0.4841   0.1322     H
C      0.86677  0.83737   0.6651     C
H        0.867   0.6232   0.2241     H
C        0.868   0.9368   0.6825     C
H       0.8703   0.2727   0.4304     H
C      0.87103  0.23403   0.7672     C
H        0.873   0.3082   0.8907     H
C        0.873    0.478  0.43819     C
H       0.8793   0.4389    0.477     H
H       0.8795   0.2233   0.5786     H
C       0.8796   0.1204     0.75     C
C      0.88474  0.68654   0.2126     C
C      0.88502  0.46162  0.99401     C
C      0.89518  0.42598   0.0525     C
H        0.899   0.3692   0.6176     H
H       0.9066   0.0606   0.7822     H
O      0.91622  0.64302  0.56933     O
H       0.9319   0.7871   0.6423     H
H       0.9336   0.9514   0.6719     H
C      0.93663  0.37343   0.9481     C
C       0.9368    0.868   0.1825     C
H       0.9388   0.3462   0.0644     H
H       0.9394   0.0934   0.7178     H
H       0.9514   0.9336   0.1719     H
H       0.9652    0.385   0.7467     H
H       0.9799   0.4003   0.9175     H
C      0.98524  0.22704  0.78452     C
C      0.98573  0.68113  0.23063     C
O      0.99075  0.51175  0.64039     O
H       0.9923   0.2969    0.965     H
C      0.99715  0.43915  0.40751     C
