data_I
_chemical_name_common  '/home/zhangsd/repos/MofS-CGCNN/ML/data/TSD/clean_cifs/GUHGOH_clean'
_cell_length_a 18.25690
_cell_length_b  9.53820
_cell_length_c 16.93730
_cell_angle_alpha 90.00000
_cell_angle_beta  120.43400
_cell_angle_gamma 90.00000
_space_group_name_H-M_alt      'P 1'


loop_
_space_group_symop_operation_xyz
  'x, y, z' 

loop_
_atom_site_label
_atom_site_fract_x
_atom_site_fract_y
_atom_site_fract_z
_atom_site_type_symbol
Ba     0.01159  0.25322  0.49826    Ba
Ba     0.01159  0.74678  0.99826    Ba
O      0.04585   0.1811  0.88246     O
O      0.04585   0.8189  0.38246     O
H       0.0636   0.4397   0.7444     H
H       0.0636   0.5603   0.2444     H
O      0.07479   0.4873  0.09109     O
O      0.07479   0.5127  0.59109     O
O      0.09497    0.004   0.5499     O
O      0.09497    0.996   0.0499     O
H       0.1006   0.4262   0.8975     H
H       0.1006   0.5738   0.3975     H
C       0.1058   0.2166   0.8727     C
C       0.1058   0.7834   0.3727     C
H       0.1145    0.419   0.2781     H
H       0.1145    0.581   0.7781     H
C      0.11871   0.4827   0.7663     C
C      0.11871   0.5173   0.2663     C
O      0.14157   0.1367  0.84141     O
O      0.14157   0.8633  0.34141     O
C       0.1444   0.3614   0.9045     C
C       0.1444   0.6386   0.4045     C
P      0.14927  0.46645   0.6804     P
P      0.14927  0.53355   0.1804     P
C      0.16141   0.0657   0.0851     C
C      0.16141   0.9343   0.5851     C
O      0.16425    0.307  0.67968     O
O      0.16425    0.693  0.17968     O
O      0.16466   0.1935  0.10961     O
O      0.16466   0.8065  0.60961     O
N       0.1829    0.413  0.85197     N
N       0.1829    0.587  0.35197     N
H       0.1874   0.3575   0.9689     H
H       0.1874   0.6425   0.4689     H
Co     0.22204  0.22005  0.80499    Co
Co     0.22204  0.77995  0.30499    Co
O       0.2321   0.4558  0.21305     O
O       0.2321   0.5442  0.71305     O
H       0.2326   0.0172   0.5347     H
H       0.2326   0.9828   0.0347     H
C      0.24064   0.0004   0.5951     C
C      0.24064   0.9996   0.0951     C
H       0.2496   0.0905   0.6253     H
H       0.2496   0.9095   0.1253     H
H       0.2504   0.4095   0.3747     H
H       0.2504   0.5905   0.8747     H
C      0.25936   0.4996   0.4049     C
C      0.25936   0.5004   0.9049     C
H       0.2674   0.4828   0.4653     H
H       0.2674   0.5172   0.9653     H
O       0.2679   0.0442  0.78695     O
O       0.2679   0.9558  0.28695     O
Co     0.27796  0.27995  0.19501    Co
Co     0.27796  0.72005  0.69501    Co
H       0.3126   0.1425   0.0311     H
H       0.3126   0.8575   0.5311     H
N       0.3171    0.087  0.14803     N
N       0.3171    0.913  0.64803     N
O      0.33534   0.3065  0.89039     O
O      0.33534   0.6935  0.39039     O
O      0.33575    0.193  0.32032     O
O      0.33575    0.807  0.82032     O
C      0.33859   0.4343   0.9149     C
C      0.33859   0.5657   0.4149     C
P      0.35073  0.03355   0.3196     P
P      0.35073  0.96645   0.8196     P
C       0.3556   0.1386   0.0955     C
C       0.3556   0.8614   0.5955     C
O      0.35843   0.3633  0.15859     O
O      0.35843   0.6367  0.65859     O
C      0.38129   0.0173   0.2337     C
C      0.38129   0.9827   0.7337     C
H       0.3855    0.081   0.7219     H
H       0.3855    0.919   0.2219     H
C       0.3942   0.2834   0.1273     C
C       0.3942   0.7166   0.6273     C
H       0.3994   0.0738   0.1025     H
H       0.3994   0.9262   0.6025     H
O      0.40503    0.496   0.4501     O
O      0.40503    0.504   0.9501     O
O      0.42521   0.0127  0.90891     O
O      0.42521   0.9873  0.40891     O
H       0.4364   0.0603   0.2556     H
H       0.4364   0.9397   0.7556     H
O      0.45415   0.3189  0.11754     O
O      0.45415   0.6811  0.61754     O
Ba     0.48841  0.24678  0.50174    Ba
Ba     0.48841  0.75322  0.00174    Ba
Ba     0.51159  0.24678  0.99826    Ba
Ba     0.51159  0.75322  0.49826    Ba
O      0.54585   0.3189  0.38246     O
O      0.54585   0.6811  0.88246     O
H       0.5636   0.0603   0.2444     H
H       0.5636   0.9397   0.7444     H
O      0.57479   0.0127  0.59109     O
O      0.57479   0.9873  0.09109     O
O      0.59497    0.496   0.0499     O
O      0.59497    0.504   0.5499     O
H       0.6006   0.0738   0.3975     H
H       0.6006   0.9262   0.8975     H
C       0.6058   0.2834   0.3727     C
C       0.6058   0.7166   0.8727     C
H       0.6145    0.081   0.7781     H
H       0.6145    0.919   0.2781     H
C      0.61871   0.0173   0.2663     C
C      0.61871   0.9827   0.7663     C
O      0.64157   0.3633  0.34141     O
O      0.64157   0.6367  0.84141     O
C       0.6444   0.1386   0.4045     C
C       0.6444   0.8614   0.9045     C
P      0.64927  0.03355   0.1804     P
P      0.64927  0.96645   0.6804     P
C      0.66141   0.4343   0.5851     C
C      0.66141   0.5657   0.0851     C
O      0.66425    0.193  0.17968     O
O      0.66425    0.807  0.67968     O
O      0.66466   0.3065  0.60961     O
O      0.66466   0.6935  0.10961     O
N       0.6829    0.087  0.35197     N
N       0.6829    0.913  0.85197     N
H       0.6874   0.1425   0.4689     H
H       0.6874   0.8575   0.9689     H
Co     0.72204  0.27995  0.30499    Co
Co     0.72204  0.72005  0.80499    Co
O       0.7321   0.0442  0.71305     O
O       0.7321   0.9558  0.21305     O
H       0.7326   0.4828   0.0347     H
H       0.7326   0.5172   0.5347     H
C      0.74064   0.4996   0.0951     C
C      0.74064   0.5004   0.5951     C
H       0.7496   0.4095   0.1253     H
H       0.7496   0.5905   0.6253     H
H       0.7504   0.0905   0.8747     H
H       0.7504   0.9095   0.3747     H
C      0.75936   0.0004   0.9049     C
C      0.75936   0.9996   0.4049     C
H       0.7674   0.0172   0.9653     H
H       0.7674   0.9828   0.4653     H
O       0.7679   0.4558  0.28695     O
O       0.7679   0.5442  0.78695     O
Co     0.77796  0.22005  0.69501    Co
Co     0.77796  0.77995  0.19501    Co
H       0.8126   0.3575   0.5311     H
H       0.8126   0.6425   0.0311     H
N       0.8171    0.413  0.64803     N
N       0.8171    0.587  0.14803     N
O      0.83534   0.1935  0.39039     O
O      0.83534   0.8065  0.89039     O
O      0.83575    0.307  0.82032     O
O      0.83575    0.693  0.32032     O
C      0.83859   0.0657   0.4149     C
C      0.83859   0.9343   0.9149     C
P      0.85073  0.46645   0.8196     P
P      0.85073  0.53355   0.3196     P
C       0.8556   0.3614   0.5955     C
C       0.8556   0.6386   0.0955     C
O      0.85843   0.1367  0.65859     O
O      0.85843   0.8633  0.15859     O
C      0.88129   0.4827   0.7337     C
C      0.88129   0.5173   0.2337     C
H       0.8855    0.419   0.2219     H
H       0.8855    0.581   0.7219     H
C       0.8942   0.2166   0.6273     C
C       0.8942   0.7834   0.1273     C
H       0.8994   0.4262   0.6025     H
H       0.8994   0.5738   0.1025     H
O      0.90503    0.004   0.9501     O
O      0.90503    0.996   0.4501     O
O      0.92521   0.4873  0.40891     O
O      0.92521   0.5127  0.90891     O
H       0.9364   0.4397   0.7556     H
H       0.9364   0.5603   0.2556     H
O      0.95415   0.1811  0.61754     O
O      0.95415   0.8189  0.11754     O
Ba     0.98841  0.25322  0.00174    Ba
Ba     0.98841  0.74678  0.50174    Ba
