data_I
_chemical_name_common  '/home/zhangsd/repos/MofS-CGCNN/ML/data/TSD/clean_cifs/GUHMIH_clean'
_cell_length_a 28.90580
_cell_length_b 28.90580
_cell_length_c 28.90580
_cell_angle_alpha 90.00000
_cell_angle_beta  90.00000
_cell_angle_gamma 90.00000
_space_group_name_H-M_alt      'P 1'


loop_
_space_group_symop_operation_xyz
  'x, y, z' 

loop_
_atom_site_label
_atom_site_fract_x
_atom_site_fract_y
_atom_site_fract_z
_atom_site_type_symbol
Cu         0.0      0.0  0.30544    Cu
Cu         0.0      0.0  0.69456    Cu
Cu         0.0  0.30544      0.0    Cu
Cu         0.0  0.69456      0.0    Cu
N        0.004   0.0706    0.307     N
N        0.004    0.307   0.9294     N
N        0.004    0.693   0.0706     N
N        0.004   0.9294    0.693     N
C       0.0073    0.166   0.3092     C
C       0.0073   0.3092    0.834     C
C       0.0073   0.6908    0.166     C
C       0.0073    0.834   0.6908     C
H       0.0083   0.1981   0.3098     H
H       0.0083   0.3098   0.8019     H
H       0.0083   0.6902   0.1981     H
H       0.0083   0.8019   0.6902     H
C       0.0168   0.1415   0.6571     C
C       0.0168   0.3429   0.1415     C
C       0.0168   0.6571   0.8585     C
C       0.0168   0.8585   0.3429     C
C       0.0178   0.0945   0.6595     C
C       0.0178   0.3405   0.0945     C
C       0.0178   0.6595   0.9055     C
C       0.0178   0.9055   0.3405     C
C       0.0277   0.0944   0.2754     C
C       0.0277   0.2754   0.9056     C
C       0.0277   0.7246   0.0944     C
C       0.0277   0.9056   0.7246     C
C        0.029   0.1424   0.2759     C
C        0.029   0.2759   0.8576     C
C        0.029   0.7241   0.1424     C
C        0.029   0.8576   0.7241     C
H       0.0342   0.0783    0.637     H
H       0.0342    0.363   0.0783     H
H       0.0342    0.637   0.9217     H
H       0.0342   0.9217    0.363     H
C       0.0411   0.1631   0.6169     C
C       0.0411   0.3831   0.1631     C
C       0.0411   0.6169   0.8369     C
C       0.0411   0.8369   0.3831     C
H       0.0438   0.0785   0.2525     H
H       0.0438   0.2525   0.9215     H
H       0.0438   0.7475   0.0785     H
H       0.0438   0.9215   0.7475     H
H        0.045   0.1582   0.2529     H
H        0.045   0.2529   0.8418     H
H        0.045   0.7471   0.1582     H
H        0.045   0.8418   0.7471     H
O       0.0472   0.1415   0.5799     O
O       0.0472   0.4201   0.1415     O
O       0.0472   0.5799   0.8585     O
O       0.0472   0.8585   0.4201     O
H       0.0504   0.2219   0.6473     H
H       0.0504   0.3527   0.2219     H
H       0.0504   0.6473   0.7781     H
H       0.0504   0.7781   0.3527     H
N       0.0584   0.2061   0.6234     N
N       0.0584   0.3766   0.2061     N
N       0.0584   0.6234   0.7939     N
N       0.0584   0.7939   0.3766     N
H       0.0588   0.2854   0.5818     H
H       0.0588   0.4182   0.2854     H
H       0.0588   0.5818   0.7146     H
H       0.0588   0.7146   0.4182     H
N       0.0706    0.004    0.693     N
N       0.0706    0.307    0.004     N
N       0.0706    0.693    0.996     N
N       0.0706    0.996    0.307     N
H       0.0783   0.0342    0.363     H
H       0.0783    0.363   0.9658     H
H       0.0783    0.637   0.0342     H
H       0.0783   0.9658    0.637     H
H       0.0785   0.0438   0.7475     H
H       0.0785   0.2525   0.0438     H
H       0.0785   0.7475   0.9562     H
H       0.0785   0.9562   0.2525     H
O       0.0799   0.3585   0.5472     O
O       0.0799   0.4528   0.3585     O
O       0.0799   0.5472   0.6415     O
O       0.0799   0.6415   0.4528     O
H       0.0818   0.2146   0.5588     H
H       0.0818   0.4412   0.2146     H
H       0.0818   0.5588   0.7854     H
H       0.0818   0.7854   0.4412     H
C       0.0894   0.2746   0.5902     C
C       0.0894   0.4098   0.2746     C
C       0.0894   0.5902   0.7254     C
C       0.0894   0.7254   0.4098     C
C       0.0902   0.2254   0.5894     C
C       0.0902   0.4106   0.2254     C
C       0.0902   0.5894   0.7746     C
C       0.0902   0.7746   0.4106     C
C       0.0944   0.0277   0.7246     C
C       0.0944   0.2754   0.0277     C
C       0.0944   0.7246   0.9723     C
C       0.0944   0.9723   0.2754     C
C       0.0945   0.0178   0.3405     C
C       0.0945   0.3405   0.9822     C
C       0.0945   0.6595   0.0178     C
C       0.0945   0.9822   0.6595     C
H        0.096   0.2853   0.6213     H
H        0.096   0.3787   0.2853     H
H        0.096   0.6213   0.7147     H
H        0.096   0.7147   0.3787     H
C       0.1169   0.3369   0.5411     C
C       0.1169   0.4589   0.3369     C
C       0.1169   0.5411   0.6631     C
C       0.1169   0.6631   0.4589     C
H       0.1213   0.2147    0.596     H
H       0.1213    0.404   0.2147     H
H       0.1213    0.596   0.7853     H
H       0.1213   0.7853    0.404     H
N       0.1234   0.2939   0.5584     N
N       0.1234   0.4416   0.2939     N
N       0.1234   0.5584   0.7061     N
N       0.1234   0.7061   0.4416     N
H        0.137   0.4217   0.5342     H
H        0.137   0.4658   0.4217     H
H        0.137   0.5342   0.5783     H
H        0.137   0.5783   0.4658     H
C       0.1415   0.0168   0.3429     C
O       0.1415   0.0472   0.4201     O
C       0.1415   0.3429   0.9832     C
O       0.1415   0.4201   0.9528     O
O       0.1415   0.5799   0.0472     O
C       0.1415   0.6571   0.0168     C
O       0.1415   0.9528   0.5799     O
C       0.1415   0.9832   0.6571     C
C       0.1424    0.029   0.7241     C
C       0.1424   0.2759    0.029     C
C       0.1424   0.7241    0.971     C
C       0.1424    0.971   0.2759     C
H       0.1473   0.2781   0.5504     H
H       0.1473   0.4496   0.2781     H
H       0.1473   0.5504   0.7219     H
H       0.1473   0.7219   0.4496     H
C       0.1571   0.3585   0.5168     C
C       0.1571   0.4832   0.3585     C
C       0.1571   0.5168   0.6415     C
C       0.1571   0.6415   0.4832     C
H       0.1582    0.045   0.7471     H
H       0.1582   0.2529    0.045     H
H       0.1582   0.7471    0.955     H
H       0.1582    0.955   0.2529     H
C       0.1595   0.4055   0.5178     C
C       0.1595   0.4822   0.4055     C
C       0.1595   0.5178   0.5945     C
C       0.1595   0.5945   0.4822     C
C       0.1631   0.0411   0.3831     C
C       0.1631   0.3831   0.9589     C
C       0.1631   0.6169   0.0411     C
C       0.1631   0.9589   0.6169     C
C        0.166   0.0073   0.6908     C
C        0.166   0.3092   0.0073     C
C        0.166   0.6908   0.9927     C
C        0.166   0.9927   0.3092     C
H       0.1902   0.3019   0.4917     H
H       0.1902   0.4917   0.6981     H
H       0.1902   0.5083   0.3019     H
H       0.1902   0.6981   0.5083     H
C       0.1908    0.334   0.4927     C
C       0.1908   0.4927    0.666     C
C       0.1908   0.5073    0.334     C
C       0.1908    0.666   0.5073     C
N        0.193   0.4294    0.496     N
N        0.193    0.496   0.5706     N
N        0.193    0.504   0.4294     N
N        0.193   0.5706    0.504     N
Cu     0.19456      0.5      0.5    Cu
H       0.1981   0.0083   0.6902     H
H       0.1981   0.3098   0.0083     H
H       0.1981   0.6902   0.9917     H
H       0.1981   0.9917   0.3098     H
N       0.2061   0.0584   0.3766     N
N       0.2061   0.3766   0.9416     N
N       0.2061   0.6234   0.0584     N
N       0.2061   0.9416   0.6234     N
H       0.2146   0.0818   0.4412     H
H       0.2146   0.4412   0.9182     H
H       0.2146   0.5588   0.0818     H
H       0.2146   0.9182   0.5588     H
H       0.2147   0.1213    0.404     H
H       0.2147    0.404   0.8787     H
H       0.2147    0.596   0.1213     H
H       0.2147   0.8787    0.596     H
H       0.2219   0.0504   0.3527     H
H       0.2219   0.3527   0.9496     H
H       0.2219   0.6473   0.0504     H
H       0.2219   0.9496   0.6473     H
C       0.2241   0.3576    0.471     C
C       0.2241    0.471   0.6424     C
C       0.2241    0.529   0.3576     C
C       0.2241   0.6424    0.529     C
C       0.2246   0.4056   0.4723     C
C       0.2246   0.4723   0.5944     C
C       0.2246   0.5277   0.4056     C
C       0.2246   0.5944   0.5277     C
C       0.2254   0.0902   0.4106     C
C       0.2254   0.4106   0.9098     C
C       0.2254   0.5894   0.0902     C
C       0.2254   0.9098   0.5894     C
H       0.2471   0.3418    0.455     H
H       0.2471    0.455   0.6582     H
H       0.2471    0.545   0.3418     H
H       0.2471   0.6582    0.545     H
H       0.2475   0.4215   0.4562     H
H       0.2475   0.4562   0.5785     H
H       0.2475   0.5438   0.4215     H
H       0.2475   0.5785   0.5438     H
H       0.2525   0.0438   0.0785     H
H       0.2525   0.0785   0.9562     H
H       0.2525   0.9215   0.0438     H
H       0.2525   0.9562   0.9215     H
H       0.2529    0.045   0.1582     H
H       0.2529   0.1582    0.955     H
H       0.2529   0.8418    0.045     H
H       0.2529    0.955   0.8418     H
C       0.2746   0.0894   0.4098     C
C       0.2746   0.4098   0.9106     C
C       0.2746   0.5902   0.0894     C
C       0.2746   0.9106   0.5902     C
C       0.2754   0.0277   0.0944     C
C       0.2754   0.0944   0.9723     C
C       0.2754   0.9056   0.0277     C
C       0.2754   0.9723   0.9056     C
C       0.2759    0.029   0.1424     C
C       0.2759   0.1424    0.971     C
C       0.2759   0.8576    0.029     C
C       0.2759    0.971   0.8576     C
H       0.2781   0.1473   0.4496     H
H       0.2781   0.4496   0.8527     H
H       0.2781   0.5504   0.1473     H
H       0.2781   0.8527   0.5504     H
H       0.2853    0.096   0.3787     H
H       0.2853   0.3787    0.904     H
H       0.2853   0.6213    0.096     H
H       0.2853    0.904   0.6213     H
H       0.2854   0.0588   0.4182     H
H       0.2854   0.4182   0.9412     H
H       0.2854   0.5818   0.0588     H
H       0.2854   0.9412   0.5818     H
N       0.2939   0.1234   0.4416     N
N       0.2939   0.4416   0.8766     N
N       0.2939   0.5584   0.1234     N
N       0.2939   0.8766   0.5584     N
H       0.3019   0.1902   0.5083     H
H       0.3019   0.4917   0.1902     H
H       0.3019   0.5083   0.8098     H
H       0.3019   0.8098   0.4917     H
Cu     0.30544      0.0      0.0    Cu
N        0.307    0.004   0.0706     N
N        0.307   0.0706    0.996     N
N        0.307   0.9294    0.004     N
N        0.307    0.996   0.9294     N
C       0.3092   0.0073    0.166     C
C       0.3092    0.166   0.9927     C
C       0.3092    0.834   0.0073     C
C       0.3092   0.9927    0.834     C
H       0.3098   0.0083   0.1981     H
H       0.3098   0.1981   0.9917     H
H       0.3098   0.8019   0.0083     H
H       0.3098   0.9917   0.8019     H
C        0.334   0.1908   0.5073     C
C        0.334   0.4927   0.1908     C
C        0.334   0.5073   0.8092     C
C        0.334   0.8092   0.4927     C
C       0.3369   0.1169   0.4589     C
C       0.3369   0.4589   0.8831     C
C       0.3369   0.5411   0.1169     C
C       0.3369   0.8831   0.5411     C
C       0.3405   0.0178   0.9055     C
C       0.3405   0.0945   0.0178     C
C       0.3405   0.9055   0.9822     C
C       0.3405   0.9822   0.0945     C
H       0.3418   0.2471    0.545     H
H       0.3418    0.455   0.2471     H
H       0.3418    0.545   0.7529     H
H       0.3418   0.7529    0.455     H
C       0.3429   0.0168   0.8585     C
C       0.3429   0.1415   0.0168     C
C       0.3429   0.8585   0.9832     C
C       0.3429   0.9832   0.1415     C
H       0.3527   0.0504   0.7781     H
H       0.3527   0.2219   0.0504     H
H       0.3527   0.7781   0.9496     H
H       0.3527   0.9496   0.2219     H
C       0.3576   0.2241    0.529     C
C       0.3576    0.471   0.2241     C
C       0.3576    0.529   0.7759     C
C       0.3576   0.7759    0.471     C
O       0.3585   0.0799   0.4528     O
C       0.3585   0.1571   0.4832     C
O       0.3585   0.4528   0.9201     O
C       0.3585   0.4832   0.8429     C
C       0.3585   0.5168   0.1571     C
O       0.3585   0.5472   0.0799     O
C       0.3585   0.8429   0.5168     C
O       0.3585   0.9201   0.5472     O
H        0.363   0.0342   0.9217     H
H        0.363   0.0783   0.0342     H
H        0.363   0.9217   0.9658     H
H        0.363   0.9658   0.0783     H
N       0.3766   0.0584   0.7939     N
N       0.3766   0.2061   0.0584     N
N       0.3766   0.7939   0.9416     N
N       0.3766   0.9416   0.2061     N
H       0.3787    0.096   0.7147     H
H       0.3787   0.2853    0.096     H
H       0.3787   0.7147    0.904     H
H       0.3787    0.904   0.2853     H
C       0.3831   0.0411   0.8369     C
C       0.3831   0.1631   0.0411     C
C       0.3831   0.8369   0.9589     C
C       0.3831   0.9589   0.1631     C
H        0.404   0.1213   0.7853     H
H        0.404   0.2147   0.1213     H
H        0.404   0.7853   0.8787     H
H        0.404   0.8787   0.2147     H
C       0.4055   0.1595   0.4822     C
C       0.4055   0.4822   0.8405     C
C       0.4055   0.5178   0.1595     C
C       0.4055   0.8405   0.5178     C
C       0.4056   0.2246   0.5277     C
C       0.4056   0.4723   0.2246     C
C       0.4056   0.5277   0.7754     C
C       0.4056   0.7754   0.4723     C
C       0.4098   0.0894   0.7254     C
C       0.4098   0.2746   0.0894     C
C       0.4098   0.7254   0.9106     C
C       0.4098   0.9106   0.2746     C
C       0.4106   0.0902   0.7746     C
C       0.4106   0.2254   0.0902     C
C       0.4106   0.7746   0.9098     C
C       0.4106   0.9098   0.2254     C
H       0.4182   0.0588   0.7146     H
H       0.4182   0.2854   0.0588     H
H       0.4182   0.7146   0.9412     H
H       0.4182   0.9412   0.2854     H
O       0.4201   0.0472   0.8585     O
O       0.4201   0.1415   0.0472     O
O       0.4201   0.8585   0.9528     O
O       0.4201   0.9528   0.1415     O
H       0.4215   0.2475   0.5438     H
H       0.4215   0.4562   0.2475     H
H       0.4215   0.5438   0.7525     H
H       0.4215   0.7525   0.4562     H
H       0.4217    0.137   0.4658     H
H       0.4217   0.4658    0.863     H
H       0.4217   0.5342    0.137     H
H       0.4217    0.863   0.5342     H
N       0.4294    0.193    0.504     N
N       0.4294    0.496    0.193     N
N       0.4294    0.504    0.807     N
N       0.4294    0.807    0.496     N
H       0.4412   0.0818   0.7854     H
H       0.4412   0.2146   0.0818     H
H       0.4412   0.7854   0.9182     H
H       0.4412   0.9182   0.2146     H
N       0.4416   0.1234   0.7061     N
N       0.4416   0.2939   0.1234     N
N       0.4416   0.7061   0.8766     N
N       0.4416   0.8766   0.2939     N
H       0.4496   0.1473   0.7219     H
H       0.4496   0.2781   0.1473     H
H       0.4496   0.7219   0.8527     H
H       0.4496   0.8527   0.2781     H
O       0.4528   0.0799   0.6415     O
O       0.4528   0.3585   0.0799     O
O       0.4528   0.6415   0.9201     O
O       0.4528   0.9201   0.3585     O
H        0.455   0.2471   0.3418     H
H        0.455   0.3418   0.7529     H
H        0.455   0.6582   0.2471     H
H        0.455   0.7529   0.6582     H
H       0.4562   0.2475   0.4215     H
H       0.4562   0.4215   0.7525     H
H       0.4562   0.5785   0.2475     H
H       0.4562   0.7525   0.5785     H
C       0.4589   0.1169   0.6631     C
C       0.4589   0.3369   0.1169     C
C       0.4589   0.6631   0.8831     C
C       0.4589   0.8831   0.3369     C
H       0.4658    0.137   0.5783     H
H       0.4658   0.4217    0.137     H
H       0.4658   0.5783    0.863     H
H       0.4658    0.863   0.4217     H
C        0.471   0.2241   0.3576     C
C        0.471   0.3576   0.7759     C
C        0.471   0.6424   0.2241     C
C        0.471   0.7759   0.6424     C
C       0.4723   0.2246   0.4056     C
C       0.4723   0.4056   0.7754     C
C       0.4723   0.5944   0.2246     C
C       0.4723   0.7754   0.5944     C
C       0.4822   0.1595   0.5945     C
C       0.4822   0.4055   0.1595     C
C       0.4822   0.5945   0.8405     C
C       0.4822   0.8405   0.4055     C
C       0.4832   0.1571   0.6415     C
C       0.4832   0.3585   0.1571     C
C       0.4832   0.6415   0.8429     C
C       0.4832   0.8429   0.3585     C
H       0.4917   0.1902   0.3019     H
H       0.4917   0.3019   0.8098     H
H       0.4917   0.6981   0.1902     H
H       0.4917   0.8098   0.6981     H
C       0.4927   0.1908    0.334     C
C       0.4927    0.334   0.8092     C
C       0.4927    0.666   0.1908     C
C       0.4927   0.8092    0.666     C
N        0.496    0.193   0.4294     N
N        0.496   0.4294    0.807     N
N        0.496   0.5706    0.193     N
N        0.496    0.807   0.5706     N
Cu         0.5  0.19456      0.5    Cu
Cu         0.5      0.5  0.19456    Cu
Cu         0.5      0.5  0.80544    Cu
Cu         0.5  0.80544      0.5    Cu
N        0.504    0.193   0.5706     N
N        0.504   0.4294    0.193     N
N        0.504   0.5706    0.807     N
N        0.504    0.807   0.4294     N
C       0.5073   0.1908    0.666     C
C       0.5073    0.334   0.1908     C
C       0.5073    0.666   0.8092     C
C       0.5073   0.8092    0.334     C
H       0.5083   0.1902   0.6981     H
H       0.5083   0.3019   0.1902     H
H       0.5083   0.6981   0.8098     H
H       0.5083   0.8098   0.3019     H
C       0.5168   0.1571   0.3585     C
C       0.5168   0.3585   0.8429     C
C       0.5168   0.6415   0.1571     C
C       0.5168   0.8429   0.6415     C
C       0.5178   0.1595   0.4055     C
C       0.5178   0.4055   0.8405     C
C       0.5178   0.5945   0.1595     C
C       0.5178   0.8405   0.5945     C
C       0.5277   0.2246   0.5944     C
C       0.5277   0.4056   0.2246     C
C       0.5277   0.5944   0.7754     C
C       0.5277   0.7754   0.4056     C
C        0.529   0.2241   0.6424     C
C        0.529   0.3576   0.2241     C
C        0.529   0.6424   0.7759     C
C        0.529   0.7759   0.3576     C
H       0.5342    0.137   0.4217     H
H       0.5342   0.4217    0.863     H
H       0.5342   0.5783    0.137     H
H       0.5342    0.863   0.5783     H
C       0.5411   0.1169   0.3369     C
C       0.5411   0.3369   0.8831     C
C       0.5411   0.6631   0.1169     C
C       0.5411   0.8831   0.6631     C
H       0.5438   0.2475   0.5785     H
H       0.5438   0.4215   0.2475     H
H       0.5438   0.5785   0.7525     H
H       0.5438   0.7525   0.4215     H
H        0.545   0.2471   0.6582     H
H        0.545   0.3418   0.2471     H
H        0.545   0.6582   0.7529     H
H        0.545   0.7529   0.3418     H
O       0.5472   0.0799   0.3585     O
O       0.5472   0.3585   0.9201     O
O       0.5472   0.6415   0.0799     O
O       0.5472   0.9201   0.6415     O
H       0.5504   0.1473   0.2781     H
H       0.5504   0.2781   0.8527     H
H       0.5504   0.7219   0.1473     H
H       0.5504   0.8527   0.7219     H
N       0.5584   0.1234   0.2939     N
N       0.5584   0.2939   0.8766     N
N       0.5584   0.7061   0.1234     N
N       0.5584   0.8766   0.7061     N
H       0.5588   0.0818   0.2146     H
H       0.5588   0.2146   0.9182     H
H       0.5588   0.7854   0.0818     H
H       0.5588   0.9182   0.7854     H
N       0.5706    0.193    0.496     N
N       0.5706    0.496    0.807     N
N       0.5706    0.504    0.193     N
N       0.5706    0.807    0.504     N
H       0.5783    0.137   0.5342     H
H       0.5783   0.4658    0.137     H
H       0.5783   0.5342    0.863     H
H       0.5783    0.863   0.4658     H
H       0.5785   0.2475   0.4562     H
H       0.5785   0.4562   0.7525     H
H       0.5785   0.5438   0.2475     H
H       0.5785   0.7525   0.5438     H
O       0.5799   0.0472   0.1415     O
O       0.5799   0.1415   0.9528     O
O       0.5799   0.8585   0.0472     O
O       0.5799   0.9528   0.8585     O
H       0.5818   0.0588   0.2854     H
H       0.5818   0.2854   0.9412     H
H       0.5818   0.7146   0.0588     H
H       0.5818   0.9412   0.7146     H
C       0.5894   0.0902   0.2254     C
C       0.5894   0.2254   0.9098     C
C       0.5894   0.7746   0.0902     C
C       0.5894   0.9098   0.7746     C
C       0.5902   0.0894   0.2746     C
C       0.5902   0.2746   0.9106     C
C       0.5902   0.7254   0.0894     C
C       0.5902   0.9106   0.7254     C
C       0.5944   0.2246   0.4723     C
C       0.5944   0.4723   0.7754     C
C       0.5944   0.5277   0.2246     C
C       0.5944   0.7754   0.5277     C
C       0.5945   0.1595   0.5178     C
C       0.5945   0.4822   0.1595     C
C       0.5945   0.5178   0.8405     C
C       0.5945   0.8405   0.4822     C
H        0.596   0.1213   0.2147     H
H        0.596   0.2147   0.8787     H
H        0.596   0.7853   0.1213     H
H        0.596   0.8787   0.7853     H
C       0.6169   0.0411   0.1631     C
C       0.6169   0.1631   0.9589     C
C       0.6169   0.8369   0.0411     C
C       0.6169   0.9589   0.8369     C
H       0.6213    0.096   0.2853     H
H       0.6213   0.2853    0.904     H
H       0.6213   0.7147    0.096     H
H       0.6213    0.904   0.7147     H
N       0.6234   0.0584   0.2061     N
N       0.6234   0.2061   0.9416     N
N       0.6234   0.7939   0.0584     N
N       0.6234   0.9416   0.7939     N
H        0.637   0.0342   0.0783     H
H        0.637   0.0783   0.9658     H
H        0.637   0.9217   0.0342     H
H        0.637   0.9658   0.9217     H
O       0.6415   0.0799   0.5472     O
C       0.6415   0.1571   0.5168     C
O       0.6415   0.4528   0.0799     O
C       0.6415   0.4832   0.1571     C
C       0.6415   0.5168   0.8429     C
O       0.6415   0.5472   0.9201     O
C       0.6415   0.8429   0.4832     C
O       0.6415   0.9201   0.4528     O
C       0.6424   0.2241    0.471     C
C       0.6424    0.471   0.7759     C
C       0.6424    0.529   0.2241     C
C       0.6424   0.7759    0.529     C
H       0.6473   0.0504   0.2219     H
H       0.6473   0.2219   0.9496     H
H       0.6473   0.7781   0.0504     H
H       0.6473   0.9496   0.7781     H
C       0.6571   0.0168   0.1415     C
C       0.6571   0.1415   0.9832     C
C       0.6571   0.8585   0.0168     C
C       0.6571   0.9832   0.8585     C
H       0.6582   0.2471    0.455     H
H       0.6582    0.455   0.7529     H
H       0.6582    0.545   0.2471     H
H       0.6582   0.7529    0.545     H
C       0.6595   0.0178   0.0945     C
C       0.6595   0.0945   0.9822     C
C       0.6595   0.9055   0.0178     C
C       0.6595   0.9822   0.9055     C
C       0.6631   0.1169   0.5411     C
C       0.6631   0.4589   0.1169     C
C       0.6631   0.5411   0.8831     C
C       0.6631   0.8831   0.4589     C
C        0.666   0.1908   0.4927     C
C        0.666   0.4927   0.8092     C
C        0.666   0.5073   0.1908     C
C        0.666   0.8092   0.5073     C
H       0.6902   0.0083   0.8019     H
H       0.6902   0.1981   0.0083     H
H       0.6902   0.8019   0.9917     H
H       0.6902   0.9917   0.1981     H
C       0.6908   0.0073    0.834     C
C       0.6908    0.166   0.0073     C
C       0.6908    0.834   0.9927     C
C       0.6908   0.9927    0.166     C
N        0.693    0.004   0.9294     N
N        0.693   0.0706    0.004     N
N        0.693   0.9294    0.996     N
N        0.693    0.996   0.0706     N
Cu     0.69456      0.0      0.0    Cu
H       0.6981   0.1902   0.4917     H
H       0.6981   0.4917   0.8098     H
H       0.6981   0.5083   0.1902     H
H       0.6981   0.8098   0.5083     H
N       0.7061   0.1234   0.5584     N
N       0.7061   0.4416   0.1234     N
N       0.7061   0.5584   0.8766     N
N       0.7061   0.8766   0.4416     N
H       0.7146   0.0588   0.5818     H
H       0.7146   0.4182   0.0588     H
H       0.7146   0.5818   0.9412     H
H       0.7146   0.9412   0.4182     H
H       0.7147    0.096   0.6213     H
H       0.7147   0.3787    0.096     H
H       0.7147   0.6213    0.904     H
H       0.7147    0.904   0.3787     H
H       0.7219   0.1473   0.5504     H
H       0.7219   0.4496   0.1473     H
H       0.7219   0.5504   0.8527     H
H       0.7219   0.8527   0.4496     H
C       0.7241    0.029   0.8576     C
C       0.7241   0.1424    0.029     C
C       0.7241   0.8576    0.971     C
C       0.7241    0.971   0.1424     C
C       0.7246   0.0277   0.9056     C
C       0.7246   0.0944   0.0277     C
C       0.7246   0.9056   0.9723     C
C       0.7246   0.9723   0.0944     C
C       0.7254   0.0894   0.5902     C
C       0.7254   0.4098   0.0894     C
C       0.7254   0.5902   0.9106     C
C       0.7254   0.9106   0.4098     C
H       0.7471    0.045   0.8418     H
H       0.7471   0.1582    0.045     H
H       0.7471   0.8418    0.955     H
H       0.7471    0.955   0.1582     H
H       0.7475   0.0438   0.9215     H
H       0.7475   0.0785   0.0438     H
H       0.7475   0.9215   0.9562     H
H       0.7475   0.9562   0.0785     H
H       0.7525   0.4215   0.5438     H
H       0.7525   0.4562   0.4215     H
H       0.7525   0.5438   0.5785     H
H       0.7525   0.5785   0.4562     H
H       0.7529   0.3418    0.545     H
H       0.7529    0.455   0.3418     H
H       0.7529    0.545   0.6582     H
H       0.7529   0.6582    0.455     H
C       0.7746   0.0902   0.5894     C
C       0.7746   0.4106   0.0902     C
C       0.7746   0.5894   0.9098     C
C       0.7746   0.9098   0.4106     C
C       0.7754   0.4056   0.5277     C
C       0.7754   0.4723   0.4056     C
C       0.7754   0.5277   0.5944     C
C       0.7754   0.5944   0.4723     C
C       0.7759   0.3576    0.529     C
C       0.7759    0.471   0.3576     C
C       0.7759    0.529   0.6424     C
C       0.7759   0.6424    0.471     C
H       0.7781   0.0504   0.6473     H
H       0.7781   0.3527   0.0504     H
H       0.7781   0.6473   0.9496     H
H       0.7781   0.9496   0.3527     H
H       0.7853   0.1213    0.596     H
H       0.7853    0.404   0.1213     H
H       0.7853    0.596   0.8787     H
H       0.7853   0.8787    0.404     H
H       0.7854   0.0818   0.5588     H
H       0.7854   0.4412   0.0818     H
H       0.7854   0.5588   0.9182     H
H       0.7854   0.9182   0.4412     H
N       0.7939   0.0584   0.6234     N
N       0.7939   0.3766   0.0584     N
N       0.7939   0.6234   0.9416     N
N       0.7939   0.9416   0.3766     N
H       0.8019   0.0083   0.3098     H
H       0.8019   0.3098   0.9917     H
H       0.8019   0.6902   0.0083     H
H       0.8019   0.9917   0.6902     H
Cu     0.80544      0.5      0.5    Cu
N        0.807   0.4294    0.504     N
N        0.807    0.496   0.4294     N
N        0.807    0.504   0.5706     N
N        0.807   0.5706    0.496     N
C       0.8092    0.334   0.5073     C
C       0.8092   0.4927    0.334     C
C       0.8092   0.5073    0.666     C
C       0.8092    0.666   0.4927     C
H       0.8098   0.3019   0.5083     H
H       0.8098   0.4917   0.3019     H
H       0.8098   0.5083   0.6981     H
H       0.8098   0.6981   0.4917     H
C        0.834   0.0073   0.3092     C
C        0.834   0.3092   0.9927     C
C        0.834   0.6908   0.0073     C
C        0.834   0.9927   0.6908     C
C       0.8369   0.0411   0.6169     C
C       0.8369   0.3831   0.0411     C
C       0.8369   0.6169   0.9589     C
C       0.8369   0.9589   0.3831     C
C       0.8405   0.4055   0.4822     C
C       0.8405   0.4822   0.5945     C
C       0.8405   0.5178   0.4055     C
C       0.8405   0.5945   0.5178     C
H       0.8418    0.045   0.2529     H
H       0.8418   0.2529    0.955     H
H       0.8418   0.7471    0.045     H
H       0.8418    0.955   0.7471     H
C       0.8429   0.3585   0.4832     C
C       0.8429   0.4832   0.6415     C
C       0.8429   0.5168   0.3585     C
C       0.8429   0.6415   0.5168     C
H       0.8527   0.2781   0.4496     H
H       0.8527   0.4496   0.7219     H
H       0.8527   0.5504   0.2781     H
H       0.8527   0.7219   0.5504     H
C       0.8576    0.029   0.2759     C
C       0.8576   0.2759    0.971     C
C       0.8576   0.7241    0.029     C
C       0.8576    0.971   0.7241     C
C       0.8585   0.0168   0.6571     C
O       0.8585   0.0472   0.5799     O
C       0.8585   0.3429   0.0168     C
O       0.8585   0.4201   0.0472     O
O       0.8585   0.5799   0.9528     O
C       0.8585   0.6571   0.9832     C
O       0.8585   0.9528   0.4201     O
C       0.8585   0.9832   0.3429     C
H        0.863   0.4217   0.4658     H
H        0.863   0.4658   0.5783     H
H        0.863   0.5342   0.4217     H
H        0.863   0.5783   0.5342     H
N       0.8766   0.2939   0.4416     N
N       0.8766   0.4416   0.7061     N
N       0.8766   0.5584   0.2939     N
N       0.8766   0.7061   0.5584     N
H       0.8787   0.2147    0.404     H
H       0.8787    0.404   0.7853     H
H       0.8787    0.596   0.2147     H
H       0.8787   0.7853    0.596     H
C       0.8831   0.3369   0.4589     C
C       0.8831   0.4589   0.6631     C
C       0.8831   0.5411   0.3369     C
C       0.8831   0.6631   0.5411     C
H        0.904   0.2853   0.3787     H
H        0.904   0.3787   0.7147     H
H        0.904   0.6213   0.2853     H
H        0.904   0.7147   0.6213     H
C       0.9055   0.0178   0.6595     C
C       0.9055   0.3405   0.0178     C
C       0.9055   0.6595   0.9822     C
C       0.9055   0.9822   0.3405     C
C       0.9056   0.0277   0.2754     C
C       0.9056   0.2754   0.9723     C
C       0.9056   0.7246   0.0277     C
C       0.9056   0.9723   0.7246     C
C       0.9098   0.2254   0.4106     C
C       0.9098   0.4106   0.7746     C
C       0.9098   0.5894   0.2254     C
C       0.9098   0.7746   0.5894     C
C       0.9106   0.2746   0.4098     C
C       0.9106   0.4098   0.7254     C
C       0.9106   0.5902   0.2746     C
C       0.9106   0.7254   0.5902     C
H       0.9182   0.2146   0.4412     H
H       0.9182   0.4412   0.7854     H
H       0.9182   0.5588   0.2146     H
H       0.9182   0.7854   0.5588     H
O       0.9201   0.3585   0.4528     O
O       0.9201   0.4528   0.6415     O
O       0.9201   0.5472   0.3585     O
O       0.9201   0.6415   0.5472     O
H       0.9215   0.0438   0.2525     H
H       0.9215   0.2525   0.9562     H
H       0.9215   0.7475   0.0438     H
H       0.9215   0.9562   0.7475     H
H       0.9217   0.0342    0.637     H
H       0.9217    0.363   0.0342     H
H       0.9217    0.637   0.9658     H
H       0.9217   0.9658    0.363     H
N       0.9294    0.004    0.307     N
N       0.9294    0.307    0.996     N
N       0.9294    0.693    0.004     N
N       0.9294    0.996    0.693     N
H       0.9412   0.2854   0.4182     H
H       0.9412   0.4182   0.7146     H
H       0.9412   0.5818   0.2854     H
H       0.9412   0.7146   0.5818     H
N       0.9416   0.2061   0.3766     N
N       0.9416   0.3766   0.7939     N
N       0.9416   0.6234   0.2061     N
N       0.9416   0.7939   0.6234     N
H       0.9496   0.2219   0.3527     H
H       0.9496   0.3527   0.7781     H
H       0.9496   0.6473   0.2219     H
H       0.9496   0.7781   0.6473     H
O       0.9528   0.1415   0.4201     O
O       0.9528   0.4201   0.8585     O
O       0.9528   0.5799   0.1415     O
O       0.9528   0.8585   0.5799     O
H        0.955   0.1582   0.7471     H
H        0.955   0.2529   0.1582     H
H        0.955   0.7471   0.8418     H
H        0.955   0.8418   0.2529     H
H       0.9562   0.0785   0.7475     H
H       0.9562   0.2525   0.0785     H
H       0.9562   0.7475   0.9215     H
H       0.9562   0.9215   0.2525     H
C       0.9589   0.1631   0.3831     C
C       0.9589   0.3831   0.8369     C
C       0.9589   0.6169   0.1631     C
C       0.9589   0.8369   0.6169     C
H       0.9658   0.0783    0.363     H
H       0.9658    0.363   0.9217     H
H       0.9658    0.637   0.0783     H
H       0.9658   0.9217    0.637     H
C        0.971   0.1424   0.7241     C
C        0.971   0.2759   0.1424     C
C        0.971   0.7241   0.8576     C
C        0.971   0.8576   0.2759     C
C       0.9723   0.0944   0.7246     C
C       0.9723   0.2754   0.0944     C
C       0.9723   0.7246   0.9056     C
C       0.9723   0.9056   0.2754     C
C       0.9822   0.0945   0.3405     C
C       0.9822   0.3405   0.9055     C
C       0.9822   0.6595   0.0945     C
C       0.9822   0.9055   0.6595     C
C       0.9832   0.1415   0.3429     C
C       0.9832   0.3429   0.8585     C
C       0.9832   0.6571   0.1415     C
C       0.9832   0.8585   0.6571     C
H       0.9917   0.1981   0.6902     H
H       0.9917   0.3098   0.1981     H
H       0.9917   0.6902   0.8019     H
H       0.9917   0.8019   0.3098     H
C       0.9927    0.166   0.6908     C
C       0.9927   0.3092    0.166     C
C       0.9927   0.6908    0.834     C
C       0.9927    0.834   0.3092     C
N        0.996   0.0706    0.693     N
N        0.996    0.307   0.0706     N
N        0.996    0.693   0.9294     N
N        0.996   0.9294    0.307     N
