data_I
_chemical_name_common  '/home/zhangsd/repos/MofS-CGCNN/ML/data/TSD/clean_cifs/GUKYUI_clean'
_cell_length_a 11.80510
_cell_length_b 14.15080
_cell_length_c  7.69150
_cell_angle_alpha 90.00000
_cell_angle_beta  91.03800
_cell_angle_gamma 90.00000
_space_group_name_H-M_alt      'P 1'


loop_
_space_group_symop_operation_xyz
  'x, y, z' 

loop_
_atom_site_label
_atom_site_fract_x
_atom_site_fract_y
_atom_site_fract_z
_atom_site_type_symbol
C       0.0173   0.0979   0.5031     C
C       0.0173   0.9021   0.0031     C
H       0.0302   0.1627   0.5033     H
H       0.0302   0.8373   0.0033     H
C       0.0862   0.0623   0.9589     C
C       0.0862   0.9377   0.4589     C
C       0.1068   0.0326   0.4624     C
C       0.1068   0.9674   0.9624     C
H       0.1504   0.1864    0.865     H
H       0.1504   0.8136    0.365     H
H       0.1658   0.2732   0.1583     H
H       0.1658   0.7268   0.6583     H
H       0.1788   0.0552   0.4384     H
H       0.1788   0.9448   0.9384     H
C       0.1813   0.1302   0.9203     C
C       0.1813   0.8698   0.4203     C
C       0.2209   0.2275   0.1796     C
C       0.2209   0.7725   0.6796     C
H       0.2254   0.3189   0.4813     H
H       0.2254   0.6811   0.9813     H
H       0.2332   0.1009   0.8402     H
H       0.2332   0.8991   0.3402     H
H       0.2411   0.3982   0.8852     H
H       0.2411   0.6018   0.3852     H
N        0.243    0.157    0.079     N
N        0.243    0.843    0.579     N
N       0.2888   0.2243   0.3171     N
N       0.2888   0.7757   0.8171     N
C       0.3001   0.2978   0.4475     C
C       0.3001   0.7022   0.9475     C
O       0.3237   0.3853   0.8638     O
O       0.3237   0.6147   0.3638     O
C       0.3309   0.1015   0.1574     C
C       0.3309   0.8985   0.6574     C
H       0.3387   0.2727   0.5498     H
H       0.3387   0.7273   0.0498     H
H       0.3476   0.4278    0.934     H
H       0.3476   0.5722    0.434     H
C       0.3592   0.1507   0.2996     C
C       0.3592   0.8493   0.7996     C
H       0.3612   0.0448   0.1187     H
H       0.3612   0.9552   0.6187     H
C       0.3663   0.3807   0.3772     C
C       0.3663   0.6193   0.8772     C
O       0.3766   0.3927   0.2231     O
O       0.3766   0.6073   0.7231     O
H       0.3891    0.282   0.8161     H
H       0.3891    0.718   0.3161     H
O       0.4043   0.4387   0.4884     O
O       0.4043   0.5613   0.9884     O
O       0.4058   0.3329   0.8699     O
O       0.4058   0.6671   0.3699     O
H       0.4189    0.136   0.3754     H
H       0.4189    0.864   0.8754     H
H       0.4541   0.3192   0.9535     H
H       0.4541   0.6808   0.4535     H
Ca         0.5  0.46819     0.75    Ca
Ca         0.5  0.53181     0.25    Ca
H       0.5459   0.3192   0.5465     H
H       0.5459   0.6808   0.0465     H
H       0.5811    0.136   0.1246     H
H       0.5811    0.864   0.6246     H
O       0.5942   0.3329   0.6301     O
O       0.5942   0.6671   0.1301     O
O       0.5957   0.4387   0.0116     O
O       0.5957   0.5613   0.5116     O
H       0.6109    0.282   0.6839     H
H       0.6109    0.718   0.1839     H
O       0.6234   0.3927   0.2769     O
O       0.6234   0.6073   0.7769     O
C       0.6337   0.3807   0.1228     C
C       0.6337   0.6193   0.6228     C
H       0.6388   0.0448   0.3813     H
H       0.6388   0.9552   0.8813     H
C       0.6408   0.1507   0.2004     C
C       0.6408   0.8493   0.7004     C
H       0.6524   0.4278    0.566     H
H       0.6524   0.5722    0.066     H
H       0.6613   0.2727   0.9502     H
H       0.6613   0.7273   0.4502     H
C       0.6691   0.1015   0.3426     C
C       0.6691   0.8985   0.8426     C
O       0.6763   0.3853   0.6362     O
O       0.6763   0.6147   0.1362     O
C       0.6999   0.2978   0.0525     C
C       0.6999   0.7022   0.5525     C
N       0.7112   0.2243   0.1829     N
N       0.7112   0.7757   0.6829     N
N        0.757    0.157    0.421     N
N        0.757    0.843    0.921     N
H       0.7589   0.3982   0.6148     H
H       0.7589   0.6018   0.1148     H
H       0.7668   0.1009   0.6598     H
H       0.7668   0.8991   0.1598     H
H       0.7746   0.3189   0.0187     H
H       0.7746   0.6811   0.5187     H
C       0.7791   0.2275   0.3204     C
C       0.7791   0.7725   0.8204     C
C       0.8187   0.1302   0.5797     C
C       0.8187   0.8698   0.0797     C
H       0.8212   0.0552   0.0616     H
H       0.8212   0.9448   0.5616     H
H       0.8342   0.2732   0.3417     H
H       0.8342   0.7268   0.8417     H
H       0.8496   0.1864    0.635     H
H       0.8496   0.8136    0.135     H
C       0.8932   0.0326   0.0376     C
C       0.8932   0.9674   0.5376     C
C       0.9138   0.0623   0.5411     C
C       0.9138   0.9377   0.0411     C
H       0.9698   0.1627   0.9967     H
H       0.9698   0.8373   0.4967     H
C       0.9827   0.0979   0.9969     C
C       0.9827   0.9021   0.4969     C
