data_I
_chemical_name_common  '/home/zhangsd/repos/MofS-CGCNN/ML/data/TSD/clean_cifs/GUPJEG01_clean'
_cell_length_a  9.24940
_cell_length_b  9.42120
_cell_length_c  9.42120
_cell_angle_alpha 101.27400
_cell_angle_beta  112.87000
_cell_angle_gamma 112.87000
_space_group_name_H-M_alt      'P 1'


loop_
_space_group_symop_operation_xyz
  'x, y, z' 

loop_
_atom_site_label
_atom_site_fract_x
_atom_site_fract_y
_atom_site_fract_z
_atom_site_type_symbol
O       0.0459   0.1831  0.10812     O
C       0.1695  0.25505  0.07815     C
H       0.1776   0.5092    0.264     H
C       0.2043  0.53676  0.18204     C
C       0.2048  0.42094  0.06586     C
H       0.2141   0.1433   0.3535     H
O       0.2256  0.93442  0.79408     O
N       0.2322  0.94437  0.26777     N
C       0.2324  0.05746  0.38074     C
C       0.2416  0.46466  0.94634     C
C       0.2432  0.69262  0.17718     C
H       0.2489   0.3906   0.8688     H
Mn        0.25   0.9652   0.0348    Mn
H       0.2511   0.1312   0.6094     H
C       0.2568  0.82282  0.30738     C
C       0.2584  0.05366  0.53534     C
C       0.2676  0.61926  0.94254     C
N       0.2678  0.73223  0.05563     N
O       0.2744  0.20592  0.06558     O
H       0.2859   0.6465   0.8567     H
C       0.2952  0.93414  0.57906     C
C       0.2957  0.81796  0.46324     C
H       0.3224    0.736   0.4908     H
C       0.3305  0.92185  0.74495     C
O       0.4541  0.89188   0.8169     O
O       0.5459  0.10812   0.1831     O
C       0.6695  0.07815  0.25505     C
H       0.6776    0.264   0.5092     H
C       0.7043  0.18204  0.53676     C
C       0.7048  0.06586  0.42094     C
H       0.7141   0.3535   0.1433     H
O       0.7256  0.79408  0.93442     O
N       0.7322  0.26777  0.94437     N
C       0.7324  0.38074  0.05746     C
C       0.7416  0.94634  0.46466     C
C       0.7432  0.17718  0.69262     C
H       0.7489   0.8688   0.3906     H
Mn        0.75   0.0348   0.9652    Mn
H       0.7511   0.6094   0.1312     H
C       0.7568  0.30738  0.82282     C
C       0.7584  0.53534  0.05366     C
C       0.7676  0.94254  0.61926     C
N       0.7678  0.05563  0.73223     N
O       0.7744  0.06558  0.20592     O
H       0.7859   0.8567   0.6465     H
C       0.7952  0.57906  0.93414     C
C       0.7957  0.46324  0.81796     C
H       0.8224   0.4908    0.736     H
C       0.8305  0.74495  0.92185     C
O       0.9541   0.8169  0.89188     O
