data_I
_chemical_name_common  '/home/zhangsd/repos/MofS-CGCNN/ML/data/TSD/clean_cifs/GUPNUC01_clean'
_cell_length_a  8.62760
_cell_length_b  9.40660
_cell_length_c 13.05690
_cell_angle_alpha 90.00000
_cell_angle_beta  105.50400
_cell_angle_gamma 90.00000
_space_group_name_H-M_alt      'P 1'


loop_
_space_group_symop_operation_xyz
  'x, y, z' 

loop_
_atom_site_label
_atom_site_fract_x
_atom_site_fract_y
_atom_site_fract_z
_atom_site_type_symbol
Cd         0.0      0.0      0.0    Cd
Cd         0.0      0.0      0.5    Cd
N          0.0   0.9472     0.25     N
N       0.0626   0.0555   0.6817     N
N       0.0626   0.9445   0.1817     N
N       0.1612   0.2015   0.0427     N
N       0.1612   0.7985   0.5427     N
N       0.2276   0.1283   0.4931     N
N       0.2276   0.8717   0.9931     N
N         0.25     0.25      0.0     N
N         0.25     0.25      0.5     N
N         0.25     0.75      0.0     N
N         0.25     0.75      0.5     N
N       0.2724   0.3717   0.5069     N
N       0.2724   0.6283   0.0069     N
N       0.3388   0.2985   0.9573     N
N       0.3388   0.7015   0.4573     N
N       0.4374   0.4445   0.3183     N
N       0.4374   0.5555   0.8183     N
N          0.5   0.4472     0.25     N
Cd         0.5      0.5      0.0    Cd
Cd         0.5      0.5      0.5    Cd
N          0.5   0.5528     0.75     N
N       0.5626   0.4445   0.1817     N
N       0.5626   0.5555   0.6817     N
N       0.6612   0.2985   0.5427     N
N       0.6612   0.7015   0.0427     N
N       0.7276   0.3717   0.9931     N
N       0.7276   0.6283   0.4931     N
N         0.75     0.25      0.0     N
N         0.75     0.25      0.5     N
N         0.75     0.75      0.0     N
N         0.75     0.75      0.5     N
N       0.7724   0.1283   0.0069     N
N       0.7724   0.8717   0.5069     N
N       0.8388   0.2015   0.4573     N
N       0.8388   0.7985   0.9573     N
N       0.9374   0.0555   0.8183     N
N       0.9374   0.9445   0.3183     N
N          1.0   0.0528     0.75     N
