data_I
_chemical_name_common  '/home/zhangsd/repos/MofS-CGCNN/ML/data/TSD/clean_cifs/GUSNEN_SL'
_cell_length_a 19.68500
_cell_length_b  7.84900
_cell_length_c  6.78200
_cell_angle_alpha 90.00000
_cell_angle_beta  75.09940
_cell_angle_gamma 90.00000
_space_group_name_H-M_alt      'P 1'


loop_
_space_group_symop_operation_xyz
  'x, y, z' 

loop_
_atom_site_label
_atom_site_fract_x
_atom_site_fract_y
_atom_site_fract_z
_atom_site_type_symbol
Cr         0.0      0.0     -0.0    Cr
Cr         0.0      0.0      0.5    Cr
O          0.0    0.113     0.75     O
H          0.0   0.2404     0.75     H
H         -0.0   0.7596     0.25     H
O          0.0    0.887     0.25     O
O        0.068    0.166    0.055     O
O        0.068    0.834    0.555     O
O        0.087    0.141    0.348     O
O        0.087    0.859    0.848     O
C        0.111     0.19     0.17     C
C        0.111     0.81     0.67     C
H      0.15552  0.33862  0.80656     H
H      0.15552  0.66138  0.30656     H
C        0.184     0.21    0.079     C
C        0.184     0.79    0.579     C
C        0.198    0.296    0.882     C
C        0.198    0.704    0.382     C
H      0.20786  0.13774  0.36922     H
H      0.20786  0.86226  0.86922     H
C        0.229     0.18    0.204     C
C        0.229     0.82    0.704     C
C        0.271     0.32    0.796     C
C        0.271     0.68    0.296     C
H      0.29214  0.36226  0.63078     H
H      0.29214  0.63774  0.13078     H
C        0.302    0.204    0.118     C
C        0.302    0.796    0.618     C
C        0.316     0.29    0.921     C
C        0.316     0.71    0.421     C
H      0.34448  0.16138  0.19344     H
H      0.34448  0.83862  0.69344     H
C        0.389     0.31     0.83     C
C        0.389     0.69     0.33     C
O        0.413    0.359    0.652     O
O        0.413    0.641    0.152     O
O        0.432    0.334    0.945     O
O        0.432    0.666    0.445     O
H          0.5   0.2596     0.25     H
O          0.5    0.387     0.25     O
Cr         0.5      0.5     -0.0    Cr
Cr         0.5      0.5      0.5    Cr
O          0.5    0.613     0.75     O
H          0.5   0.7404     0.75     H
O        0.568    0.334    0.555     O
O        0.568    0.666    0.055     O
O        0.587    0.359    0.848     O
O        0.587    0.641    0.348     O
C        0.611     0.31     0.67     C
C        0.611     0.69     0.17     C
H      0.65552  0.16138  0.30656     H
H      0.65552  0.83862  0.80656     H
C        0.684     0.29    0.579     C
C        0.684     0.71    0.079     C
C        0.698    0.204    0.382     C
C        0.698    0.796    0.882     C
H      0.70786  0.36226  0.86922     H
H      0.70786  0.63774  0.36922     H
C        0.729     0.32    0.704     C
C        0.729     0.68    0.204     C
C        0.771     0.18    0.296     C
C        0.771     0.82    0.796     C
H      0.79214  0.13774  0.13078     H
H      0.79214  0.86226  0.63078     H
C        0.802    0.296    0.618     C
C        0.802    0.704    0.118     C
C        0.816     0.21    0.421     C
C        0.816     0.79    0.921     C
H      0.84448  0.33862  0.69344     H
H      0.84448  0.66138  0.19344     H
C        0.889     0.19     0.33     C
C        0.889     0.81     0.83     C
O        0.913    0.141    0.152     O
O        0.913    0.859    0.652     O
O        0.932    0.166    0.445     O
O        0.932    0.834    0.945     O
