data_I
_chemical_name_common  '/home/zhangsd/repos/MofS-CGCNN/ML/data/TSD/clean_cifs/GUXSIC_clean'
_cell_length_a 26.44730
_cell_length_b 17.94420
_cell_length_c 17.38040
_cell_angle_alpha 90.00000
_cell_angle_beta  90.00000
_cell_angle_gamma 90.00000
_space_group_name_H-M_alt      'P 1'


loop_
_space_group_symop_operation_xyz
  'x, y, z' 

loop_
_atom_site_label
_atom_site_fract_x
_atom_site_fract_y
_atom_site_fract_z
_atom_site_type_symbol
C       0.0014   0.3376   0.6845     C
C       0.0014   0.4124   0.0655     C
C       0.0014   0.8376   0.1845     C
C       0.0014   0.9124   0.5655     C
H       0.0067   0.2992   0.7195     H
H       0.0067   0.4508   0.0305     H
H       0.0067   0.7992   0.2195     H
H       0.0067   0.9508   0.5305     H
C      0.01407   0.0571   0.9179     C
C      0.01407   0.1929   0.3321     C
C      0.01407   0.5571   0.4179     C
C      0.01407   0.6929   0.8321     C
H       0.0193   0.0203   0.9547     H
H       0.0193   0.2297   0.2953     H
H       0.0193   0.5203   0.4547     H
H       0.0193   0.7297   0.7953     H
C      0.02601   0.2982   0.1188     C
C      0.02601   0.4518   0.6312     C
C      0.02601   0.7982   0.6188     C
C      0.02601   0.9518   0.1312     C
C       0.0334   0.3522   0.0657     C
C       0.0334   0.3978   0.6843     C
C       0.0334   0.8522   0.5657     C
C       0.0334   0.8978   0.1843     C
C       0.0383   0.0834   0.3842     C
C       0.0383   0.1666   0.8658     C
C       0.0383   0.5834   0.8842     C
C       0.0383   0.6666   0.3658     C
N      0.04608  0.11432  0.91692     N
N      0.04608  0.13568  0.33308     N
N      0.04608  0.61432  0.41692     N
N      0.04608  0.63568  0.83308     N
H       0.0595   0.3486   0.0301     H
H       0.0595   0.4014   0.7199     H
H       0.0595   0.8486   0.5301     H
H       0.0595   0.9014   0.2199     H
C      0.05963    0.019    0.125     C
C      0.05963    0.231    0.125     C
C      0.05963    0.519    0.625     C
C      0.05963    0.731    0.625     C
O       0.0675   0.2869   0.8305     O
O       0.0675   0.4631   0.9195     O
O       0.0675   0.7869   0.3305     O
O       0.0675   0.9631   0.4195     O
O      0.07023  0.05226   0.1853     O
O      0.07023  0.19774   0.0647     O
O      0.07023  0.55226   0.6853     O
O      0.07023  0.69774   0.5647     O
O      0.07425  0.03598  0.05908     O
O      0.07425  0.21402  0.19092     O
O      0.07425  0.53598  0.55908     O
O      0.07425  0.71402  0.69092     O
C       0.0758   0.0191   0.3815     C
C       0.0758   0.2309   0.8685     C
C       0.0758   0.5191   0.8815     C
C       0.0758   0.7309   0.3685     C
O       0.1139  0.02876  0.33944     O
O       0.1139  0.22124  0.91056     O
O       0.1139  0.52876  0.83944     O
O       0.1139  0.72124  0.41056     O
Er       0.125    0.125  0.25283    Er
Er       0.125    0.125  0.99717    Er
Er       0.125    0.625  0.49717    Er
Er       0.125    0.625  0.75283    Er
O       0.1361  0.02876  0.91056     O
O       0.1361  0.22124  0.33944     O
O       0.1361  0.52876  0.41056     O
O       0.1361  0.72124  0.83944     O
C       0.1742   0.0191   0.8685     C
C       0.1742   0.2309   0.3815     C
C       0.1742   0.5191   0.3685     C
C       0.1742   0.7309   0.8815     C
O      0.17575  0.03598  0.19092     O
O      0.17575  0.21402  0.05908     O
O      0.17575  0.53598  0.69092     O
O      0.17575  0.71402  0.55908     O
O      0.17977  0.05226   0.0647     O
O      0.17977  0.19774   0.1853     O
O      0.17977  0.55226   0.5647     O
O      0.17977  0.69774   0.6853     O
O       0.1825   0.2869   0.4195     O
O       0.1825   0.4631   0.3305     O
O       0.1825   0.7869   0.9195     O
O       0.1825   0.9631   0.8305     O
C      0.19037    0.019    0.125     C
C      0.19037    0.231    0.125     C
C      0.19037    0.519    0.625     C
C      0.19037    0.731    0.625     C
H       0.1905   0.3486   0.2199     H
H       0.1905   0.4014   0.5301     H
H       0.1905   0.8486   0.7199     H
H       0.1905   0.9014   0.0301     H
N      0.20392  0.11432  0.33308     N
N      0.20392  0.13568  0.91692     N
N      0.20392  0.61432  0.83308     N
N      0.20392  0.63568  0.41692     N
C       0.2117   0.0834   0.8658     C
C       0.2117   0.1666   0.3842     C
C       0.2117   0.5834   0.3658     C
C       0.2117   0.6666   0.8842     C
C       0.2166   0.3522   0.1843     C
C       0.2166   0.3978   0.5657     C
C       0.2166   0.8522   0.6843     C
C       0.2166   0.8978   0.0657     C
C      0.22399   0.2982   0.1312     C
C      0.22399   0.4518   0.6188     C
C      0.22399   0.7982   0.6312     C
C      0.22399   0.9518   0.1188     C
H       0.2307   0.0203   0.2953     H
H       0.2307   0.2297   0.9547     H
H       0.2307   0.5203   0.7953     H
H       0.2307   0.7297   0.4547     H
C      0.23593   0.0571   0.3321     C
C      0.23593   0.1929   0.9179     C
C      0.23593   0.5571   0.8321     C
C      0.23593   0.6929   0.4179     C
H       0.2433   0.2992   0.5305     H
H       0.2433   0.4508   0.2195     H
H       0.2433   0.7992   0.0305     H
H       0.2433   0.9508   0.7195     H
C       0.2486   0.3376   0.5655     C
C       0.2486   0.4124   0.1845     C
C       0.2486   0.8376   0.0655     C
C       0.2486   0.9124   0.6845     C
C       0.2514   0.0876   0.8155     C
C       0.2514   0.1624   0.4345     C
C       0.2514   0.5876   0.3155     C
C       0.2514   0.6624   0.9345     C
H       0.2567   0.0492   0.7805     H
H       0.2567   0.2008   0.4695     H
H       0.2567   0.5492   0.2805     H
H       0.2567   0.7008   0.9695     H
C      0.26407   0.3071   0.0821     C
C      0.26407   0.4429   0.6679     C
C      0.26407   0.8071   0.5821     C
C      0.26407   0.9429   0.1679     C
H       0.2693   0.2703   0.0453     H
H       0.2693   0.4797   0.7047     H
H       0.2693   0.7703   0.5453     H
H       0.2693   0.9797   0.2047     H
C      0.27601   0.0482   0.3812     C
C      0.27601   0.2018   0.8688     C
C      0.27601   0.5482   0.8812     C
C      0.27601   0.7018   0.3688     C
C       0.2834   0.1022   0.4343     C
C       0.2834   0.1478   0.8157     C
C       0.2834   0.6022   0.9343     C
C       0.2834   0.6478   0.3157     C
C       0.2883   0.3334   0.6158     C
C       0.2883   0.4166   0.1342     C
C       0.2883   0.8334   0.1158     C
C       0.2883   0.9166   0.6342     C
N      0.29608  0.36432  0.08308     N
N      0.29608  0.38568  0.66692     N
N      0.29608  0.86432  0.58308     N
N      0.29608  0.88568  0.16692     N
H       0.3095   0.0986   0.4699     H
H       0.3095   0.1514   0.7801     H
H       0.3095   0.5986   0.9699     H
H       0.3095   0.6514   0.2801     H
C      0.30963    0.269    0.875     C
C      0.30963    0.481    0.875     C
C      0.30963    0.769    0.375     C
C      0.30963    0.981    0.375     C
O       0.3175   0.0369   0.6695     O
O       0.3175   0.2131   0.5805     O
O       0.3175   0.5369   0.1695     O
O       0.3175   0.7131   0.0805     O
O      0.32023  0.30226   0.8147     O
O      0.32023  0.44774   0.9353     O
O      0.32023  0.80226   0.3147     O
O      0.32023  0.94774   0.4353     O
O      0.32425  0.28598  0.94092     O
O      0.32425  0.46402  0.80908     O
O      0.32425  0.78598  0.44092     O
O      0.32425  0.96402  0.30908     O
C       0.3258   0.2691   0.6185     C
C       0.3258   0.4809   0.1315     C
C       0.3258   0.7691   0.1185     C
C       0.3258   0.9809   0.6315     C
O       0.3639  0.27876  0.66056     O
O       0.3639  0.47124  0.08944     O
O       0.3639  0.77876  0.16056     O
O       0.3639  0.97124  0.58944     O
Er       0.375    0.375  0.00283    Er
Er       0.375    0.375  0.74717    Er
Er       0.375    0.875  0.24717    Er
Er       0.375    0.875  0.50283    Er
O       0.3861  0.27876  0.08944     O
O       0.3861  0.47124  0.66056     O
O       0.3861  0.77876  0.58944     O
O       0.3861  0.97124  0.16056     O
C       0.4242   0.2691   0.1315     C
C       0.4242   0.4809   0.6185     C
C       0.4242   0.7691   0.6315     C
C       0.4242   0.9809   0.1185     C
O      0.42575  0.28598  0.80908     O
O      0.42575  0.46402  0.94092     O
O      0.42575  0.78598  0.30908     O
O      0.42575  0.96402  0.44092     O
O      0.42977  0.30226   0.9353     O
O      0.42977  0.44774   0.8147     O
O      0.42977  0.80226   0.4353     O
O      0.42977  0.94774   0.3147     O
O       0.4325   0.0369   0.0805     O
O       0.4325   0.2131   0.1695     O
O       0.4325   0.5369   0.5805     O
O       0.4325   0.7131   0.6695     O
C      0.44037    0.269    0.875     C
C      0.44037    0.481    0.875     C
C      0.44037    0.769    0.375     C
C      0.44037    0.981    0.375     C
H       0.4405   0.0986   0.2801     H
H       0.4405   0.1514   0.9699     H
H       0.4405   0.5986   0.7801     H
H       0.4405   0.6514   0.4699     H
N      0.45392  0.36432  0.66692     N
N      0.45392  0.38568  0.08308     N
N      0.45392  0.86432  0.16692     N
N      0.45392  0.88568  0.58308     N
C       0.4617   0.3334   0.1342     C
C       0.4617   0.4166   0.6158     C
C       0.4617   0.8334   0.6342     C
C       0.4617   0.9166   0.1158     C
C       0.4666   0.1022   0.3157     C
C       0.4666   0.1478   0.9343     C
C       0.4666   0.6022   0.8157     C
C       0.4666   0.6478   0.4343     C
C      0.47399   0.0482   0.3688     C
C      0.47399   0.2018   0.8812     C
C      0.47399   0.5482   0.8688     C
C      0.47399   0.7018   0.3812     C
H       0.4807   0.2703   0.7047     H
H       0.4807   0.4797   0.0453     H
H       0.4807   0.7703   0.2047     H
H       0.4807   0.9797   0.5453     H
C      0.48593   0.3071   0.6679     C
C      0.48593   0.4429   0.0821     C
C      0.48593   0.8071   0.1679     C
C      0.48593   0.9429   0.5821     C
H       0.4933   0.0492   0.9695     H
H       0.4933   0.2008   0.2805     H
H       0.4933   0.5492   0.4695     H
H       0.4933   0.7008   0.7805     H
C       0.4986   0.0876   0.9345     C
C       0.4986   0.1624   0.3155     C
C       0.4986   0.5876   0.4345     C
C       0.4986   0.6624   0.8155     C
C       0.5014   0.3376   0.1845     C
C       0.5014   0.4124   0.5655     C
C       0.5014   0.8376   0.6845     C
C       0.5014   0.9124   0.0655     C
H       0.5067   0.2992   0.2195     H
H       0.5067   0.4508   0.5305     H
H       0.5067   0.7992   0.7195     H
H       0.5067   0.9508   0.0305     H
C      0.51407   0.0571   0.4179     C
C      0.51407   0.1929   0.8321     C
C      0.51407   0.5571   0.9179     C
C      0.51407   0.6929   0.3321     C
H       0.5193   0.0203   0.4547     H
H       0.5193   0.2297   0.7953     H
H       0.5193   0.5203   0.9547     H
H       0.5193   0.7297   0.2953     H
C      0.52601   0.2982   0.6188     C
C      0.52601   0.4518   0.1312     C
C      0.52601   0.7982   0.1188     C
C      0.52601   0.9518   0.6312     C
C       0.5334   0.3522   0.5657     C
C       0.5334   0.3978   0.1843     C
C       0.5334   0.8522   0.0657     C
C       0.5334   0.8978   0.6843     C
C       0.5383   0.0834   0.8842     C
C       0.5383   0.1666   0.3658     C
C       0.5383   0.5834   0.3842     C
C       0.5383   0.6666   0.8658     C
N      0.54608  0.11432  0.41692     N
N      0.54608  0.13568  0.83308     N
N      0.54608  0.61432  0.91692     N
N      0.54608  0.63568  0.33308     N
H       0.5595   0.3486   0.5301     H
H       0.5595   0.4014   0.2199     H
H       0.5595   0.8486   0.0301     H
H       0.5595   0.9014   0.7199     H
C      0.55963    0.019    0.625     C
C      0.55963    0.231    0.625     C
C      0.55963    0.519    0.125     C
C      0.55963    0.731    0.125     C
O       0.5675   0.2869   0.3305     O
O       0.5675   0.4631   0.4195     O
O       0.5675   0.7869   0.8305     O
O       0.5675   0.9631   0.9195     O
O      0.57023  0.05226   0.6853     O
O      0.57023  0.19774   0.5647     O
O      0.57023  0.55226   0.1853     O
O      0.57023  0.69774   0.0647     O
O      0.57425  0.03598  0.55908     O
O      0.57425  0.21402  0.69092     O
O      0.57425  0.53598  0.05908     O
O      0.57425  0.71402  0.19092     O
C       0.5758   0.0191   0.8815     C
C       0.5758   0.2309   0.3685     C
C       0.5758   0.5191   0.3815     C
C       0.5758   0.7309   0.8685     C
O       0.6139  0.02876  0.83944     O
O       0.6139  0.22124  0.41056     O
O       0.6139  0.52876  0.33944     O
O       0.6139  0.72124  0.91056     O
Er       0.625    0.125  0.49717    Er
Er       0.625    0.125  0.75283    Er
Er       0.625    0.625  0.25283    Er
Er       0.625    0.625  0.99717    Er
O       0.6361  0.02876  0.41056     O
O       0.6361  0.22124  0.83944     O
O       0.6361  0.52876  0.91056     O
O       0.6361  0.72124  0.33944     O
C       0.6742   0.0191   0.3685     C
C       0.6742   0.2309   0.8815     C
C       0.6742   0.5191   0.8685     C
C       0.6742   0.7309   0.3815     C
O      0.67575  0.03598  0.69092     O
O      0.67575  0.21402  0.55908     O
O      0.67575  0.53598  0.19092     O
O      0.67575  0.71402  0.05908     O
O      0.67977  0.05226   0.5647     O
O      0.67977  0.19774   0.6853     O
O      0.67977  0.55226   0.0647     O
O      0.67977  0.69774   0.1853     O
O       0.6825   0.2869   0.9195     O
O       0.6825   0.4631   0.8305     O
O       0.6825   0.7869   0.4195     O
O       0.6825   0.9631   0.3305     O
C      0.69037    0.019    0.625     C
C      0.69037    0.231    0.625     C
C      0.69037    0.519    0.125     C
C      0.69037    0.731    0.125     C
H       0.6905   0.3486   0.7199     H
H       0.6905   0.4014   0.0301     H
H       0.6905   0.8486   0.2199     H
H       0.6905   0.9014   0.5301     H
N      0.70392  0.11432  0.83308     N
N      0.70392  0.13568  0.41692     N
N      0.70392  0.61432  0.33308     N
N      0.70392  0.63568  0.91692     N
C       0.7117   0.0834   0.3658     C
C       0.7117   0.1666   0.8842     C
C       0.7117   0.5834   0.8658     C
C       0.7117   0.6666   0.3842     C
C       0.7166   0.3522   0.6843     C
C       0.7166   0.3978   0.0657     C
C       0.7166   0.8522   0.1843     C
C       0.7166   0.8978   0.5657     C
C      0.72399   0.2982   0.6312     C
C      0.72399   0.4518   0.1188     C
C      0.72399   0.7982   0.1312     C
C      0.72399   0.9518   0.6188     C
H       0.7307   0.0203   0.7953     H
H       0.7307   0.2297   0.4547     H
H       0.7307   0.5203   0.2953     H
H       0.7307   0.7297   0.9547     H
C      0.73593   0.0571   0.8321     C
C      0.73593   0.1929   0.4179     C
C      0.73593   0.5571   0.3321     C
C      0.73593   0.6929   0.9179     C
H       0.7433   0.2992   0.0305     H
H       0.7433   0.4508   0.7195     H
H       0.7433   0.7992   0.5305     H
H       0.7433   0.9508   0.2195     H
C       0.7486   0.3376   0.0655     C
C       0.7486   0.4124   0.6845     C
C       0.7486   0.8376   0.5655     C
C       0.7486   0.9124   0.1845     C
C       0.7514   0.0876   0.3155     C
C       0.7514   0.1624   0.9345     C
C       0.7514   0.5876   0.8155     C
C       0.7514   0.6624   0.4345     C
H       0.7567   0.0492   0.2805     H
H       0.7567   0.2008   0.9695     H
H       0.7567   0.5492   0.7805     H
H       0.7567   0.7008   0.4695     H
C      0.76407   0.3071   0.5821     C
C      0.76407   0.4429   0.1679     C
C      0.76407   0.8071   0.0821     C
C      0.76407   0.9429   0.6679     C
H       0.7693   0.2703   0.5453     H
H       0.7693   0.4797   0.2047     H
H       0.7693   0.7703   0.0453     H
H       0.7693   0.9797   0.7047     H
C      0.77601   0.0482   0.8812     C
C      0.77601   0.2018   0.3688     C
C      0.77601   0.5482   0.3812     C
C      0.77601   0.7018   0.8688     C
C       0.7834   0.1022   0.9343     C
C       0.7834   0.1478   0.3157     C
C       0.7834   0.6022   0.4343     C
C       0.7834   0.6478   0.8157     C
C       0.7883   0.3334   0.1158     C
C       0.7883   0.4166   0.6342     C
C       0.7883   0.8334   0.6158     C
C       0.7883   0.9166   0.1342     C
N      0.79608  0.36432  0.58308     N
N      0.79608  0.38568  0.16692     N
N      0.79608  0.86432  0.08308     N
N      0.79608  0.88568  0.66692     N
H       0.8095   0.0986   0.9699     H
H       0.8095   0.1514   0.2801     H
H       0.8095   0.5986   0.4699     H
H       0.8095   0.6514   0.7801     H
C      0.80963    0.269    0.375     C
C      0.80963    0.481    0.375     C
C      0.80963    0.769    0.875     C
C      0.80963    0.981    0.875     C
O       0.8175   0.0369   0.1695     O
O       0.8175   0.2131   0.0805     O
O       0.8175   0.5369   0.6695     O
O       0.8175   0.7131   0.5805     O
O      0.82023  0.30226   0.3147     O
O      0.82023  0.44774   0.4353     O
O      0.82023  0.80226   0.8147     O
O      0.82023  0.94774   0.9353     O
O      0.82425  0.28598  0.44092     O
O      0.82425  0.46402  0.30908     O
O      0.82425  0.78598  0.94092     O
O      0.82425  0.96402  0.80908     O
C       0.8258   0.2691   0.1185     C
C       0.8258   0.4809   0.6315     C
C       0.8258   0.7691   0.6185     C
C       0.8258   0.9809   0.1315     C
O       0.8639  0.27876  0.16056     O
O       0.8639  0.47124  0.58944     O
O       0.8639  0.77876  0.66056     O
O       0.8639  0.97124  0.08944     O
Er       0.875    0.375  0.24717    Er
Er       0.875    0.375  0.50283    Er
Er       0.875    0.875  0.00283    Er
Er       0.875    0.875  0.74717    Er
O       0.8861  0.27876  0.58944     O
O       0.8861  0.47124  0.16056     O
O       0.8861  0.77876  0.08944     O
O       0.8861  0.97124  0.66056     O
C       0.9242   0.2691   0.6315     C
C       0.9242   0.4809   0.1185     C
C       0.9242   0.7691   0.1315     C
C       0.9242   0.9809   0.6185     C
O      0.92575  0.28598  0.30908     O
O      0.92575  0.46402  0.44092     O
O      0.92575  0.78598  0.80908     O
O      0.92575  0.96402  0.94092     O
O      0.92977  0.30226   0.4353     O
O      0.92977  0.44774   0.3147     O
O      0.92977  0.80226   0.9353     O
O      0.92977  0.94774   0.8147     O
O       0.9325   0.0369   0.5805     O
O       0.9325   0.2131   0.6695     O
O       0.9325   0.5369   0.0805     O
O       0.9325   0.7131   0.1695     O
C      0.94037    0.269    0.375     C
C      0.94037    0.481    0.375     C
C      0.94037    0.769    0.875     C
C      0.94037    0.981    0.875     C
H       0.9405   0.0986   0.7801     H
H       0.9405   0.1514   0.4699     H
H       0.9405   0.5986   0.2801     H
H       0.9405   0.6514   0.9699     H
N      0.95392  0.36432  0.16692     N
N      0.95392  0.38568  0.58308     N
N      0.95392  0.86432  0.66692     N
N      0.95392  0.88568  0.08308     N
C       0.9617   0.3334   0.6342     C
C       0.9617   0.4166   0.1158     C
C       0.9617   0.8334   0.1342     C
C       0.9617   0.9166   0.6158     C
C       0.9666   0.1022   0.8157     C
C       0.9666   0.1478   0.4343     C
C       0.9666   0.6022   0.3157     C
C       0.9666   0.6478   0.9343     C
C      0.97399   0.0482   0.8688     C
C      0.97399   0.2018   0.3812     C
C      0.97399   0.5482   0.3688     C
C      0.97399   0.7018   0.8812     C
H       0.9807   0.2703   0.2047     H
H       0.9807   0.4797   0.5453     H
H       0.9807   0.7703   0.7047     H
H       0.9807   0.9797   0.0453     H
C      0.98593   0.3071   0.1679     C
C      0.98593   0.4429   0.5821     C
C      0.98593   0.8071   0.6679     C
C      0.98593   0.9429   0.0821     C
H       0.9933   0.0492   0.4695     H
H       0.9933   0.2008   0.7805     H
H       0.9933   0.5492   0.9695     H
H       0.9933   0.7008   0.2805     H
C       0.9986   0.0876   0.4345     C
C       0.9986   0.1624   0.8155     C
C       0.9986   0.5876   0.9345     C
C       0.9986   0.6624   0.3155     C
