data_I
_chemical_name_common  '/home/zhangsd/repos/MofS-CGCNN/ML/data/TSD/clean_cifs/HABKOM_clean'
_cell_length_a  9.09700
_cell_length_b 16.99400
_cell_length_c  9.64410
_cell_angle_alpha 90.00000
_cell_angle_beta  103.45600
_cell_angle_gamma 90.00000
_space_group_name_H-M_alt      'P 1'


loop_
_space_group_symop_operation_xyz
  'x, y, z' 

loop_
_atom_site_label
_atom_site_fract_x
_atom_site_fract_y
_atom_site_fract_z
_atom_site_type_symbol
O       0.0649    0.668   0.3525     O
O       0.0649    0.832   0.8525     O
O       0.0651   0.1544   0.8198     O
O       0.0651   0.3456   0.3198     O
P      0.10729  0.16228   0.1854     P
P      0.10729  0.33772   0.6854     P
P      0.10917  0.65489  0.71401     P
P      0.10917  0.84511  0.21401     P
O       0.1486   0.0804   0.1507     O
O       0.1486   0.4196   0.6507     O
O       0.1565    0.575    0.676     O
O       0.1565    0.925    0.176     O
O       0.1643   0.7224   0.6333     O
O       0.1643   0.7776   0.1333     O
O       0.1674   0.1789   0.3445     O
O       0.1674   0.3211   0.8445     O
O       0.1682   0.6709   0.8735     O
O       0.1682   0.8291   0.3735     O
O       0.1755    0.226   0.1045     O
O       0.1755    0.274   0.6045     O
Ga     0.20259  0.22343  0.92407    Ga
Ga     0.20259  0.27657  0.42407    Ga
Ga     0.21594   0.7343  0.46333    Ga
Ga     0.21594   0.7657  0.96333    Ga
V       0.3144  0.00317  0.16534     V
V       0.3144  0.49683  0.66534     V
O       0.3731   0.6816   0.4174     O
O       0.3731   0.8184   0.9174     O
O       0.3815   0.1862   0.9022     O
O       0.3815   0.3138   0.4022     O
O       0.4346   0.0833   0.0944     O
O       0.4346   0.4167   0.5944     O
O       0.4391   0.5828   0.6153     O
O       0.4391   0.9172   0.1153     O
P      0.49937  0.62966  0.50813     P
P      0.49937  0.87034  0.00813     P
P      0.50063  0.12966  0.99187     P
P      0.50063  0.37034  0.49187     P
O       0.5609   0.0828   0.8847     O
O       0.5609   0.4172   0.3847     O
O       0.5654   0.5833   0.4056     O
O       0.5654   0.9167   0.9056     O
O       0.6185   0.6862   0.5978     O
O       0.6185   0.8138   0.0978     O
O       0.6269   0.1816   0.0826     O
O       0.6269   0.3184   0.5826     O
V       0.6856  0.50317  0.33466     V
V       0.6856  0.99683  0.83466     V
Ga     0.78406   0.2343  0.03667    Ga
Ga     0.78406   0.2657  0.53667    Ga
Ga     0.79741  0.72343  0.57593    Ga
Ga     0.79741  0.77657  0.07593    Ga
O       0.8245    0.726   0.3955     O
O       0.8245    0.774   0.8955     O
O       0.8318   0.1709   0.6265     O
O       0.8318   0.3291   0.1265     O
O       0.8326   0.6789   0.1555     O
O       0.8326   0.8211   0.6555     O
O       0.8357   0.2224   0.8667     O
O       0.8357   0.2776   0.3667     O
O       0.8435    0.075    0.824     O
O       0.8435    0.425    0.324     O
O       0.8514   0.5804   0.3493     O
O       0.8514   0.9196   0.8493     O
P      0.89083  0.15489  0.78599     P
P      0.89083  0.34511  0.28599     P
P      0.89271  0.66228   0.3146     P
P      0.89271  0.83772   0.8146     P
O       0.9349   0.6544   0.6802     O
O       0.9349   0.8456   0.1802     O
O       0.9351    0.168   0.1475     O
O       0.9351    0.332   0.6475     O
