data_I
_chemical_name_common  '/home/zhangsd/repos/MofS-CGCNN/ML/data/TSD/clean_cifs/HADDOI_clean'
_cell_length_a 20.89600
_cell_length_b  7.38720
_cell_length_c 31.83400
_cell_angle_alpha 90.00000
_cell_angle_beta  124.63600
_cell_angle_gamma 90.00000
_space_group_name_H-M_alt      'P 1'


loop_
_space_group_symop_operation_xyz
  'x, y, z' 

loop_
_atom_site_label
_atom_site_fract_x
_atom_site_fract_y
_atom_site_fract_z
_atom_site_type_symbol
C        0.004   0.1085   0.5998     C
C        0.004   0.8915   0.0998     C
F       0.0071   0.3079   0.5413     F
F       0.0071   0.6921   0.0413     F
F       0.0119   0.1042  0.04556     F
F       0.0119   0.8958  0.54556     F
C       0.0359   0.0315   0.4441     C
C       0.0359   0.9685   0.9441     C
C       0.0493   0.2431   0.5885     C
C       0.0493   0.7569   0.0885     C
C       0.0617   0.2002   0.8989     C
C       0.0617   0.7998   0.3989     C
C       0.0648   0.0201   0.6522     C
C       0.0648   0.9799   0.1522     C
F       0.0663   0.1685  0.43318     F
F       0.0663   0.8315  0.93318     F
H        0.073   0.4347   0.9352     H
H        0.073   0.5653   0.4352     H
H       0.0731   0.0078   0.3629     H
H       0.0731   0.2354   0.6933     H
H       0.0731   0.7646   0.1933     H
H       0.0731   0.9922   0.8629     H
F       0.0734   0.3858   0.6201     F
F       0.0734   0.6142   0.1201     F
H       0.0771   0.2233   0.1288     H
H       0.0771   0.7767   0.6288     H
C       0.0923   0.1194   0.6959     C
C       0.0923   0.8806   0.1959     C
C       0.0924   0.3695   0.9198     C
C       0.0924   0.6305   0.4198     C
C       0.0927   0.1061   0.8768     C
C       0.0927   0.8939   0.3768     C
C       0.0946   0.1533   0.1577     C
C       0.0946   0.8467   0.6577     C
F       0.0954    0.042  0.98747     F
F       0.0954    0.958  0.48747     F
F       0.1117   0.1666   0.5953     F
F       0.1117   0.8334   0.0953     F
C       0.1476   0.0507   0.7435     C
C       0.1476   0.9493   0.2435     C
C       0.1493    0.223    0.205     C
C       0.1493    0.777    0.705     C
C        0.152   0.4417   0.9177     C
C        0.152   0.5583   0.4177     C
C       0.1523   0.1776   0.8748     C
C       0.1523   0.8224   0.3748     C
H       0.1659   0.1214   0.7724     H
H       0.1659   0.8786   0.2724     H
H       0.1686   0.3391   0.2078     H
H       0.1686   0.6609   0.7078     H
H       0.1721   0.4448   0.4317     H
H       0.1721   0.5552   0.9317     H
H       0.1725   0.1119     0.86     H
H       0.1725   0.8881     0.36     H
C       0.1758   0.1217   0.2484     C
C       0.1758   0.8783   0.7484     C
F       0.1777   0.2861  0.09764     F
F       0.1777   0.7139  0.59764     F
C       0.1814   0.3464    0.895     C
C       0.1814   0.6536    0.395     C
F       0.2185   0.4623   0.5874     F
F       0.2185   0.5377   0.0874     F
H       0.2206   0.2836   0.0406     H
H       0.2206   0.7164   0.5406     H
F       0.2297   0.4827   0.1577     F
F       0.2297   0.5173   0.6577     F
C       0.2341   0.2002   0.3001     C
C       0.2341   0.7998   0.8001     C
C       0.2345   0.4074   0.1213     C
C       0.2345   0.5926   0.6213     C
H       0.2372    0.123   0.9851     H
H       0.2372    0.877   0.4851     H
C        0.244   0.4306   0.8913     C
C        0.244   0.5694   0.3913     C
O       0.2541   0.1077    0.339     O
O       0.2541   0.8923    0.839     O
O       0.2591    0.356    0.301     O
O       0.2591    0.644    0.801     O
H       0.2629   0.0072   0.6442     H
H       0.2629   0.9928   0.1442     H
O       0.2631   0.4097   0.4066     O
O       0.2631   0.5903   0.9066     O
C       0.2652   0.2145   0.0535     C
C       0.2652   0.7855   0.5535     C
O       0.2739   0.3336    0.874     O
O       0.2739   0.6664    0.374     O
C       0.2757   0.1199     0.02     C
C       0.2757   0.8801     0.52     C
H       0.2791   0.1922   0.7073     H
H       0.2791   0.8078   0.2073     H
C       0.2945   0.0307    0.178     C
C       0.2945   0.9693    0.678     C
O       0.3024   0.0679  0.45559     O
O       0.3024   0.9321  0.95559     O
C       0.3046   0.0812   0.7159     C
C       0.3046   0.9188   0.2159     C
C        0.316   0.3199   0.1446     C
C        0.316   0.6801   0.6446     C
C       0.3202   0.2071   0.1055     C
C       0.3202   0.7929   0.6055     C
O        0.321   0.2893   0.7939     O
O        0.321   0.7107   0.2939     O
Zn     0.32214  0.18879   0.4095    Zn
Zn     0.32214  0.81121   0.9095    Zn
Zn     0.32553  0.44651  0.84398    Zn
Zn     0.32553  0.55349  0.34398    Zn
C       0.3308      0.2   0.1891     C
C       0.3308      0.8   0.6891     C
C        0.343   0.0212   0.0384     C
C        0.343   0.9788   0.5384     C
C       0.3523     0.03   0.7667     C
C       0.3523     0.97   0.2667     C
C       0.3588   0.0594   0.5021     C
C       0.3588   0.9406   0.0021     C
C       0.3642   0.1515    0.808     C
C       0.3642   0.8485    0.308     C
F       0.3686    0.445   0.6218     F
F       0.3686    0.555   0.1218     F
F         0.37   0.3975   0.6885     F
F         0.37   0.6025   0.1885     F
C       0.3758   0.4746   0.1618     C
C       0.3758   0.5254   0.6618     C
C       0.3769   0.2522   0.2401     C
C       0.3769   0.7478   0.7401     C
C       0.3862   0.0978   0.1239     C
C       0.3862   0.9022   0.6239     C
C       0.3882   0.1371   0.2783     C
C       0.3882   0.8629   0.7783     C
C       0.3981   0.0109    0.091     C
C       0.3981   0.9891    0.591     C
H       0.4004   0.3656   0.2487     H
H       0.4004   0.6344   0.7487     H
H       0.4026   0.3604   0.0124     H
H       0.4026   0.6396   0.5124     H
O       0.4144   0.1135   0.8532     O
O       0.4144   0.8865   0.3532     O
H       0.4205   0.1732   0.3123     H
H       0.4205   0.8268   0.8123     H
N       0.4221   0.3043    0.426     N
N       0.4221   0.6957    0.926     N
H       0.4222   0.0846   0.1589     H
H       0.4222   0.9154   0.6589     H
N       0.4262   0.4517   0.4036     N
N       0.4262   0.5483   0.9036     N
O       0.4275   0.1089  0.51906     O
O       0.4275   0.8911  0.01906     O
H       0.4433   0.0559   0.6039     H
H       0.4433   0.9441   0.1039     H
F       0.4482   0.4121  0.19059     F
F       0.4482   0.5879  0.69059     F
C       0.4565   0.3649   0.0349     C
C       0.4565   0.6351   0.5349     C
H       0.4776   0.4116   0.5795     H
H       0.4776   0.5884   0.0795     H
N       0.4929   0.2482   0.4632     N
N       0.4929   0.7518   0.9632     N
C       0.4982   0.4914   0.0722     C
C       0.4982   0.5086   0.5722     C
Zn         0.5      0.0      0.0    Zn
Zn         0.5      0.0      0.5    Zn
C       0.5018   0.4914   0.4278     C
C       0.5018   0.5086   0.9278     C
N       0.5071   0.2482   0.0368     N
N       0.5071   0.7518   0.5368     N
H       0.5224   0.4116   0.9205     H
H       0.5224   0.5884   0.4205     H
C       0.5435   0.3649   0.4651     C
C       0.5435   0.6351   0.9651     C
F       0.5518   0.4121  0.30941     F
F       0.5518   0.5879  0.80941     F
H       0.5567   0.0559   0.8961     H
H       0.5567   0.9441   0.3961     H
O       0.5725   0.1089  0.98094     O
O       0.5725   0.8911  0.48094     O
N       0.5738   0.4517   0.0964     N
N       0.5738   0.5483   0.5964     N
H       0.5778   0.0846   0.3411     H
H       0.5778   0.9154   0.8411     H
N       0.5779   0.3043    0.074     N
N       0.5779   0.6957    0.574     N
H       0.5795   0.1732   0.1877     H
H       0.5795   0.8268   0.6877     H
O       0.5856   0.1135   0.6468     O
O       0.5856   0.8865   0.1468     O
H       0.5974   0.3604   0.4876     H
H       0.5974   0.6396   0.9876     H
H       0.5996   0.3656   0.2513     H
H       0.5996   0.6344   0.7513     H
C       0.6019   0.0109    0.409     C
C       0.6019   0.9891    0.909     C
C       0.6118   0.1371   0.2217     C
C       0.6118   0.8629   0.7217     C
C       0.6138   0.0978   0.3761     C
C       0.6138   0.9022   0.8761     C
C       0.6231   0.2522   0.2599     C
C       0.6231   0.7478   0.7599     C
C       0.6242   0.4746   0.3382     C
C       0.6242   0.5254   0.8382     C
F         0.63   0.3975   0.8115     F
F         0.63   0.6025   0.3115     F
F       0.6314    0.445   0.8782     F
F       0.6314    0.555   0.3782     F
C       0.6358   0.1515    0.692     C
C       0.6358   0.8485    0.192     C
C       0.6412   0.0594   0.9979     C
C       0.6412   0.9406   0.4979     C
C       0.6477     0.03   0.7333     C
C       0.6477     0.97   0.2333     C
C        0.657   0.0212   0.4616     C
C        0.657   0.9788   0.9616     C
C       0.6692      0.2   0.3109     C
C       0.6692      0.8   0.8109     C
Zn     0.67447  0.44651  0.65602    Zn
Zn     0.67447  0.55349  0.15602    Zn
Zn     0.67786  0.18879   0.0905    Zn
Zn     0.67786  0.81121   0.5905    Zn
O        0.679   0.2893   0.7061     O
O        0.679   0.7107   0.2061     O
C       0.6798   0.2071   0.3945     C
C       0.6798   0.7929   0.8945     C
C        0.684   0.3199   0.3554     C
C        0.684   0.6801   0.8554     C
C       0.6954   0.0812   0.7841     C
C       0.6954   0.9188   0.2841     C
O       0.6976   0.0679  0.04441     O
O       0.6976   0.9321  0.54441     O
C       0.7055   0.0307    0.322     C
C       0.7055   0.9693    0.822     C
H       0.7209   0.1922   0.7927     H
H       0.7209   0.8078   0.2927     H
C       0.7243   0.1199     0.48     C
C       0.7243   0.8801     0.98     C
O       0.7261   0.3336    0.626     O
O       0.7261   0.6664    0.126     O
C       0.7348   0.2145   0.4465     C
C       0.7348   0.7855   0.9465     C
O       0.7369   0.4097   0.0934     O
O       0.7369   0.5903   0.5934     O
H       0.7371   0.0072   0.8558     H
H       0.7371   0.9928   0.3558     H
O       0.7409    0.356    0.199     O
O       0.7409    0.644    0.699     O
O       0.7459   0.1077    0.161     O
O       0.7459   0.8923    0.661     O
C        0.756   0.4306   0.6087     C
C        0.756   0.5694   0.1087     C
H       0.7628    0.123   0.5149     H
H       0.7628    0.877   0.0149     H
C       0.7655   0.4074   0.3787     C
C       0.7655   0.5926   0.8787     C
C       0.7659   0.2002   0.1999     C
C       0.7659   0.7998   0.6999     C
F       0.7703   0.4827   0.3423     F
F       0.7703   0.5173   0.8423     F
H       0.7794   0.2836   0.4594     H
H       0.7794   0.7164   0.9594     H
F       0.7815   0.4623   0.9126     F
F       0.7815   0.5377   0.4126     F
C       0.8186   0.3464    0.605     C
C       0.8186   0.6536    0.105     C
F       0.8223   0.2861  0.40236     F
F       0.8223   0.7139  0.90236     F
C       0.8242   0.1217   0.2516     C
C       0.8242   0.8783   0.7516     C
H       0.8275   0.1119     0.64     H
H       0.8275   0.8881     0.14     H
H       0.8279   0.4448   0.0683     H
H       0.8279   0.5552   0.5683     H
H       0.8314   0.3391   0.2922     H
H       0.8314   0.6609   0.7922     H
H       0.8341   0.1214   0.7276     H
H       0.8341   0.8786   0.2276     H
C       0.8477   0.1776   0.6252     C
C       0.8477   0.8224   0.1252     C
C        0.848   0.4417   0.5823     C
C        0.848   0.5583   0.0823     C
C       0.8507    0.223    0.295     C
C       0.8507    0.777    0.795     C
C       0.8524   0.0507   0.7565     C
C       0.8524   0.9493   0.2565     C
F       0.8883   0.1666   0.9047     F
F       0.8883   0.8334   0.4047     F
F       0.9046    0.042  0.51253     F
F       0.9046    0.958  0.01253     F
C       0.9054   0.1533   0.3423     C
C       0.9054   0.8467   0.8423     C
C       0.9073   0.1061   0.6232     C
C       0.9073   0.8939   0.1232     C
C       0.9076   0.3695   0.5802     C
C       0.9076   0.6305   0.0802     C
C       0.9077   0.1194   0.8041     C
C       0.9077   0.8806   0.3041     C
H       0.9229   0.2233   0.3712     H
H       0.9229   0.7767   0.8712     H
F       0.9266   0.3858   0.8799     F
F       0.9266   0.6142   0.3799     F
H       0.9269   0.0078   0.1371     H
H       0.9269   0.2354   0.8067     H
H       0.9269   0.7646   0.3067     H
H       0.9269   0.9922   0.6371     H
H        0.927   0.4347   0.5648     H
H        0.927   0.5653   0.0648     H
F       0.9337   0.1685  0.06682     F
F       0.9337   0.8315  0.56682     F
C       0.9352   0.0201   0.8478     C
C       0.9352   0.9799   0.3478     C
C       0.9383   0.2002   0.6011     C
C       0.9383   0.7998   0.1011     C
C       0.9507   0.2431   0.9115     C
C       0.9507   0.7569   0.4115     C
C       0.9641   0.0315   0.0559     C
C       0.9641   0.9685   0.5559     C
F       0.9881   0.1042  0.45444     F
F       0.9881   0.8958  0.95444     F
F       0.9929   0.3079   0.9587     F
F       0.9929   0.6921   0.4587     F
C        0.996   0.1085   0.9002     C
C        0.996   0.8915   0.4002     C
