data_I
_chemical_name_common  '/home/zhangsd/repos/MofS-CGCNN/ML/data/TSD/clean_cifs/HADPOU_clean'
_cell_length_a  7.27820
_cell_length_b  7.56130
_cell_length_c  7.48200
_cell_angle_alpha 90.00000
_cell_angle_beta  101.49400
_cell_angle_gamma 90.00000
_space_group_name_H-M_alt      'P 1'


loop_
_space_group_symop_operation_xyz
  'x, y, z' 

loop_
_atom_site_label
_atom_site_fract_x
_atom_site_fract_y
_atom_site_fract_z
_atom_site_type_symbol
Pt         0.0      0.0      0.0    Pt
F        0.152      0.5    0.597     F
C       0.1847   0.1876    0.981     C
C       0.1847   0.8124    0.981     C
H       0.2266      0.5   0.2989     H
N       0.2903   0.2994   0.9719     N
N       0.2903   0.7006   0.9719     N
C        0.342      0.5    0.558     C
C        0.343      0.5    0.377     C
N       0.4954      0.5   0.7085     N
Fe         0.5      0.5      0.0    Fe
N       0.5046      0.5   0.2915     N
C        0.657      0.5    0.623     C
C        0.658      0.5    0.442     C
N       0.7097   0.2994   0.0281     N
N       0.7097   0.7006   0.0281     N
H       0.7734      0.5   0.7011     H
C       0.8153   0.1876    0.019     C
C       0.8153   0.8124    0.019     C
F        0.848      0.5    0.403     F
