data_I
_chemical_name_common  '/home/zhangsd/repos/MofS-CGCNN/ML/data/TSD/clean_cifs/HAFSOZ_clean'
_cell_length_a 10.99700
_cell_length_b 14.91400
_cell_length_c 14.36800
_cell_angle_alpha 90.00000
_cell_angle_beta  109.31000
_cell_angle_gamma 90.00000
_space_group_name_H-M_alt      'P 1'


loop_
_space_group_symop_operation_xyz
  'x, y, z' 

loop_
_atom_site_label
_atom_site_fract_x
_atom_site_fract_y
_atom_site_fract_z
_atom_site_type_symbol
C       0.0014   0.7039   0.9969     C
C       0.0014   0.7961   0.4969     C
C       0.0034   0.0459   0.5197     C
C       0.0034   0.4541   0.0197     C
H       0.0089   0.7465   0.5376     H
H       0.0089   0.7535   0.0376     H
C       0.0145     0.62   0.0396     C
C       0.0145     0.88   0.5396     C
C       0.0209   0.0617    0.617     C
C       0.0209   0.4383    0.117     C
N       0.0212   0.2182   0.5973     N
N       0.0212   0.2818   0.0973     N
H       0.0277   0.0133   0.6593     H
H       0.0277   0.4867   0.1593     H
C       0.0287   0.1476   0.6539     C
C       0.0287   0.3524   0.1539     C
H       0.0352   0.6139   0.1075     H
H       0.0352   0.8861   0.6075     H
H       0.0395   0.1559   0.7203     H
H       0.0395   0.3441   0.2203     H
Zn     0.07237  0.15007  0.16101    Zn
Zn     0.07237  0.34993  0.66101    Zn
O       0.0918   0.6419   0.3037     O
O       0.0918   0.8581   0.8037     O
H       0.2016   0.7475   0.2386     H
H       0.2016   0.7525   0.7386     H
C       0.2022   0.6187   0.3563     C
C       0.2022   0.8813   0.8563     C
O       0.2196    0.566   0.4269     O
O       0.2196    0.934   0.9269     O
O       0.2358   0.6261   0.6373     O
O       0.2358   0.8739   0.1373     O
O       0.2522   0.1791   0.1576     O
O       0.2522   0.3209   0.6576     O
C       0.2854   0.7255   0.2626     C
C       0.2854   0.7745   0.7626     C
O       0.2878   0.0692   0.0718     O
O       0.2878   0.4308   0.5718     O
C       0.3116   0.6556   0.3287     C
C       0.3116   0.8444   0.8287     C
C       0.3269   0.1336   0.1288     C
C       0.3269   0.3664   0.6288     C
C       0.3447   0.6579   0.6614     C
C       0.3447   0.8421   0.1614     C
C       0.3783   0.7356   0.7304     C
C       0.3783   0.7644   0.2304     C
Zn     0.37966  0.52999  0.53366    Zn
Zn     0.37966  0.97001  0.03366    Zn
H       0.4334   0.2435   0.7523     H
H       0.4334   0.2565   0.2523     H
O       0.4337   0.6278   0.6302     O
O       0.4337   0.8722   0.1302     O
C         0.44   0.6223   0.3686     C
C         0.44   0.8777   0.8686     C
C        0.465   0.1615   0.1643     C
C        0.465   0.3385   0.6643     C
O       0.4674   0.5562   0.4311     O
O       0.4674   0.9438   0.9311     O
C       0.4975   0.2311   0.2317     C
C       0.4975   0.2689   0.7317     C
C       0.5025   0.7311   0.2683     C
C       0.5025   0.7689   0.7683     C
O       0.5326   0.0562   0.0689     O
O       0.5326   0.4438   0.5689     O
C        0.535   0.6615   0.3357     C
C        0.535   0.8385   0.8357     C
C         0.56   0.1223   0.1314     C
C         0.56   0.3777   0.6314     C
O       0.5663   0.1278   0.8698     O
O       0.5663   0.3722   0.3698     O
H       0.5666   0.7435   0.7477     H
H       0.5666   0.7565   0.2477     H
Zn     0.62034  0.02999  0.96634    Zn
Zn     0.62034  0.47001  0.46634    Zn
C       0.6217   0.2356   0.7696     C
C       0.6217   0.2644   0.2696     C
C       0.6553   0.1579   0.8386     C
C       0.6553   0.3421   0.3386     C
C       0.6731   0.6336   0.3712     C
C       0.6731   0.8664   0.8712     C
C       0.6884   0.1556   0.1713     C
C       0.6884   0.3444   0.6713     C
O       0.7122   0.5692   0.4282     O
O       0.7122   0.9308   0.9282     O
C       0.7146   0.2255   0.2374     C
C       0.7146   0.2745   0.7374     C
O       0.7478   0.6791   0.3424     O
O       0.7478   0.8209   0.8424     O
O       0.7642   0.1261   0.8627     O
O       0.7642   0.3739   0.3627     O
O       0.7804    0.066   0.0731     O
O       0.7804    0.434   0.5731     O
C       0.7978   0.1187   0.1437     C
C       0.7978   0.3813   0.6437     C
H       0.7984   0.2475   0.2614     H
H       0.7984   0.2525   0.7614     H
O       0.9082   0.1419   0.1963     O
O       0.9082   0.3581   0.6963     O
Zn     0.92763  0.65007  0.33899    Zn
Zn     0.92763  0.84993  0.83899    Zn
H       0.9605   0.6559   0.7797     H
H       0.9605   0.8441   0.2797     H
H       0.9648   0.1139   0.3925     H
H       0.9648   0.3861   0.8925     H
C       0.9713   0.6476   0.8461     C
C       0.9713   0.8524   0.3461     C
H       0.9723   0.5133   0.8407     H
H       0.9723   0.9867   0.3407     H
N       0.9788   0.7182   0.9027     N
N       0.9788   0.7818   0.4027     N
C       0.9791   0.5617    0.883     C
C       0.9791   0.9383    0.383     C
C       0.9855     0.12   0.4604     C
C       0.9855     0.38   0.9604     C
H       0.9911   0.2465   0.9624     H
H       0.9911   0.2535   0.4624     H
C       0.9966   0.5459   0.9803     C
C       0.9966   0.9541   0.4803     C
C       0.9986   0.2039   0.5031     C
C       0.9986   0.2961   0.0031     C
