data_I
_chemical_name_common  '/home/zhangsd/repos/MofS-CGCNN/ML/data/TSD/clean_cifs/HAFTOZ_clean'
_cell_length_a 18.73180
_cell_length_b 18.73180
_cell_length_c 18.73180
_cell_angle_alpha 60.00000
_cell_angle_beta  60.00000
_cell_angle_gamma 60.00000
_space_group_name_H-M_alt      'P 1'


loop_
_space_group_symop_operation_xyz
  'x, y, z' 

loop_
_atom_site_label
_atom_site_fract_x
_atom_site_fract_y
_atom_site_fract_z
_atom_site_type_symbol
C          0.0      0.0   0.4629     C
C          0.0      0.0   0.5371     C
C          0.0      0.0  0.67804     C
C          0.0  0.32196     -0.0     C
C          0.0  0.32196  0.67804     C
C          0.0  0.39616      0.0     C
C          0.0  0.39616  0.60384     C
C          0.0   0.4629     -0.0     C
C          0.0   0.4629   0.5371     C
C          0.0   0.5371   0.4629     C
C          0.0  0.67804      0.0     C
C          0.0      1.0  0.32196     C
N      0.02567  0.02567  0.18457     N
N      0.02567  0.02567  0.76409     N
N      0.02567  0.18457  0.02567     N
N      0.02567  0.18457  0.76409     N
N      0.02567  0.76409  0.02567     N
N      0.02567  0.76409  0.18457     N
C      0.04153  0.04153  0.23775     C
C      0.04153  0.04153  0.67919     C
C      0.04153  0.23775  0.04153     C
C      0.04153  0.23775  0.67919     C
C      0.04153  0.67919  0.04153     C
C      0.04153  0.67919  0.23775     C
Ni     0.05332  0.05332  0.05332    Ni
Ni     0.05332  0.05332  0.84004    Ni
Ni     0.05332  0.84004  0.05332    Ni
H      0.07564  0.07564  0.21932     H
H      0.07564  0.07564   0.6294     H
H      0.07564  0.21932  0.07564     H
H      0.07564  0.21932   0.6294     H
H      0.07564   0.6294  0.07564     H
H      0.07564   0.6294  0.21932     H
Ni     0.15996  0.94668  0.94668    Ni
N      0.18457  0.02567  0.02567     N
N      0.18457  0.02567  0.76409     N
N      0.18457  0.76409  0.02567     N
H      0.21932  0.07564  0.07564     H
H      0.21932  0.07564   0.6294     H
H      0.21932   0.6294  0.07564     H
N      0.23591  0.81543  0.97433     N
N      0.23591  0.97433  0.81543     N
N      0.23591  0.97433  0.97433     N
C      0.23775  0.04153  0.04153     C
C      0.23775  0.04153  0.67919     C
C      0.23775  0.67919  0.04153     C
C      0.32081  0.76225  0.95847     C
C      0.32081  0.95847  0.76225     C
C      0.32081  0.95847  0.95847     C
C      0.32196      0.0      0.0     C
C      0.32196      0.0  0.67804     C
C      0.32196  0.67804      0.0     C
H       0.3706  0.78068  0.92436     H
H       0.3706  0.92436  0.78068     H
H       0.3706  0.92436  0.92436     H
C      0.39616      0.0      0.0     C
C      0.39616      0.0  0.60384     C
C      0.39616  0.60384      0.0     C
C       0.4629      0.0     -0.0     C
C       0.4629      0.0   0.5371     C
C       0.4629   0.5371      0.0     C
C       0.5371      0.0     -0.0     C
C       0.5371      0.0   0.4629     C
C       0.5371   0.4629      0.0     C
C      0.60384      0.0      0.0     C
C      0.60384      0.0  0.39616     C
C      0.60384  0.39616      0.0     C
H       0.6294  0.07564  0.07564     H
H       0.6294  0.07564  0.21932     H
H       0.6294  0.21932  0.07564     H
C      0.67804      0.0      0.0     C
C      0.67804      0.0  0.32196     C
C      0.67804  0.32196      0.0     C
C      0.67919  0.04153  0.04153     C
C      0.67919  0.04153  0.23775     C
C      0.67919  0.23775  0.04153     C
C      0.76225  0.32081  0.95847     C
C      0.76225  0.95847  0.32081     C
C      0.76225  0.95847  0.95847     C
N      0.76409  0.02567  0.02567     N
N      0.76409  0.02567  0.18457     N
N      0.76409  0.18457  0.02567     N
H      0.78068   0.3706  0.92436     H
H      0.78068  0.92436   0.3706     H
H      0.78068  0.92436  0.92436     H
N      0.81543  0.23591  0.97433     N
N      0.81543  0.97433  0.23591     N
N      0.81543  0.97433  0.97433     N
Ni     0.84004  0.05332  0.05332    Ni
H      0.92436   0.3706  0.78068     H
H      0.92436   0.3706  0.92436     H
H      0.92436  0.78068   0.3706     H
H      0.92436  0.78068  0.92436     H
H      0.92436  0.92436   0.3706     H
H      0.92436  0.92436  0.78068     H
Ni     0.94668  0.15996  0.94668    Ni
Ni     0.94668  0.94668  0.15996    Ni
Ni     0.94668  0.94668  0.94668    Ni
C      0.95847  0.32081  0.76225     C
C      0.95847  0.32081  0.95847     C
C      0.95847  0.76225  0.32081     C
C      0.95847  0.76225  0.95847     C
C      0.95847  0.95847  0.32081     C
C      0.95847  0.95847  0.76225     C
N      0.97433  0.23591  0.81543     N
N      0.97433  0.23591  0.97433     N
N      0.97433  0.81543  0.23591     N
N      0.97433  0.81543  0.97433     N
N      0.97433  0.97433  0.23591     N
N      0.97433  0.97433  0.81543     N
C          1.0      0.0  0.39616     C
C          1.0      0.0  0.60384     C
C          1.0   0.5371      0.0     C
C          1.0  0.60384      0.0     C
C          1.0  0.60384  0.39616     C
C          1.0  0.67804  0.32196     C
