data_I
_chemical_name_common  '/home/zhangsd/repos/MofS-CGCNN/ML/data/TSD/clean_cifs/HAFWIW_clean'
_cell_length_a 17.16370
_cell_length_b 17.16370
_cell_length_c 34.06650
_cell_angle_alpha 90.00000
_cell_angle_beta  90.00000
_cell_angle_gamma 90.00000
_space_group_name_H-M_alt      'P 1'


loop_
_space_group_symop_operation_xyz
  'x, y, z' 

loop_
_atom_site_label
_atom_site_fract_x
_atom_site_fract_y
_atom_site_fract_z
_atom_site_type_symbol
O       0.0158   0.1206  0.38261     O
O       0.0158   0.3794  0.88261     O
O       0.0158   0.6206  0.61739     O
O       0.0158   0.8794  0.11739     O
C       0.0164   0.0972  0.49012     C
C       0.0164   0.4028  0.99012     C
C       0.0164   0.5972  0.50988     C
C       0.0164   0.9028  0.00988     C
C       0.0193   0.1158  0.91539     C
C       0.0193   0.3842  0.41539     C
C       0.0193   0.6158  0.08461     C
C       0.0193   0.8842  0.58461     C
H       0.0315   0.0961   0.0028     H
H       0.0315   0.4039   0.5028     H
H       0.0315   0.5961   0.9972     H
H       0.0315   0.9039   0.4972     H
C       0.0317    0.107  0.45016     C
C       0.0317    0.393  0.95016     C
C       0.0317    0.607  0.54984     C
C       0.0317    0.893  0.04984     C
O       0.0747   0.0708  0.57494     O
O       0.0747   0.4292  0.07494     O
O       0.0747   0.5708  0.42506     O
O       0.0747   0.9292  0.92506     O
C       0.0892   0.0897  0.50596     C
C       0.0892   0.4103  0.00596     C
C       0.0892   0.5897  0.49404     C
C       0.0892   0.9103  0.99404     C
O       0.0908   0.1147  0.91825     O
O       0.0908   0.3853  0.41825     O
O       0.0908   0.6147  0.08175     O
O       0.0908   0.8853  0.58175     O
N       0.1078   0.1058  0.44335     N
N       0.1078   0.3942  0.94335     N
N       0.1078   0.6058  0.55665     N
N       0.1078   0.8942  0.05665     N
C       0.1206   0.0803   0.5467     C
C       0.1206   0.4197   0.0467     C
C       0.1206   0.5803   0.4533     C
C       0.1206   0.9197   0.9533     C
O       0.1294   0.2342  0.86739     O
O       0.1294   0.2658  0.36739     O
O       0.1294   0.7342  0.13261     O
O       0.1294   0.7658  0.63261     O
Cu     0.12981  0.11986  0.86352    Cu
Cu     0.12981  0.38014  0.36352    Cu
Cu     0.12981  0.61986  0.13648    Cu
Cu     0.12981  0.88014  0.63648    Cu
Cu     0.13014  0.12019  0.38648    Cu
Cu     0.13014  0.37981  0.88648    Cu
Cu     0.13014  0.62019  0.61352    Cu
Cu     0.13014  0.87981  0.11352    Cu
C       0.1342   0.2307  0.33461     C
C       0.1342   0.2693  0.83461     C
C       0.1342   0.7307  0.66539     C
C       0.1342   0.7693  0.16539     C
O       0.1353   0.1592  0.33175     O
O       0.1353   0.3408  0.83175     O
O       0.1353   0.6592  0.66825     O
O       0.1353   0.8408  0.16825     O
C        0.143   0.2183  0.79984     C
C        0.143   0.2817  0.29984     C
C        0.143   0.7183  0.20016     C
C        0.143   0.7817  0.70016     C
N       0.1442   0.1422  0.80665     N
N       0.1442   0.3578  0.30665     N
N       0.1442   0.6422  0.19335     N
N       0.1442   0.8578  0.69335     N
N       0.1446   0.0955  0.47763     N
N       0.1446   0.4045  0.97763     N
N       0.1446   0.5955  0.52237     N
N       0.1446   0.9045  0.02237     N
Cu     0.15185      0.0     0.75    Cu
Cu     0.15185      0.5     0.25    Cu
C       0.1528   0.2336  0.75988     C
C       0.1528   0.2664  0.25988     C
C       0.1528   0.7336  0.24012     C
C       0.1528   0.7664  0.74012     C
H       0.1539   0.2185   0.2472     H
H       0.1539   0.2815   0.7472     H
H       0.1539   0.7185   0.7528     H
H       0.1539   0.7815   0.2528     H
N       0.1545   0.1054  0.77237     N
N       0.1545   0.3946  0.27237     N
N       0.1545   0.6054  0.22763     N
N       0.1545   0.8946  0.72763     N
C       0.1603   0.1608  0.74404     C
C       0.1603   0.3392  0.24404     C
C       0.1603   0.6608  0.25596     C
C       0.1603   0.8392  0.75596     C
C       0.1697   0.1294   0.7033     C
C       0.1697   0.3706   0.2033     C
C       0.1697   0.6294   0.2967     C
C       0.1697   0.8706   0.7967     C
O       0.1702   0.0566  0.70104     O
O       0.1702   0.4434  0.20104     O
O       0.1702   0.5566  0.29896     O
O       0.1702   0.9434  0.79896     O
O       0.1792   0.1753  0.67506     O
O       0.1792   0.3247  0.17506     O
O       0.1792   0.6753  0.32494     O
O       0.1792   0.8247  0.82494     O
O       0.1934   0.0798  0.54896     O
O       0.1934   0.4202  0.04896     O
O       0.1934   0.5798  0.45104     O
O       0.1934   0.9202  0.95104     O
Cu        0.25  0.09815      0.5    Cu
Cu        0.25  0.40185      0.0    Cu
Cu        0.25  0.59815      0.5    Cu
Cu        0.25  0.90185      0.0    Cu
O       0.3066   0.0798  0.45104     O
O       0.3066   0.4202  0.95104     O
O       0.3066   0.5798  0.54896     O
O       0.3066   0.9202  0.04896     O
O       0.3208   0.1753  0.32494     O
O       0.3208   0.3247  0.82494     O
O       0.3208   0.6753  0.67506     O
O       0.3208   0.8247  0.17506     O
O       0.3298   0.0566  0.29896     O
O       0.3298   0.4434  0.79896     O
O       0.3298   0.5566  0.70104     O
O       0.3298   0.9434  0.20104     O
C       0.3303   0.1294   0.2967     C
C       0.3303   0.3706   0.7967     C
C       0.3303   0.6294   0.7033     C
C       0.3303   0.8706   0.2033     C
C       0.3397   0.1608  0.25596     C
C       0.3397   0.3392  0.75596     C
C       0.3397   0.6608  0.74404     C
C       0.3397   0.8392  0.24404     C
N       0.3455   0.1054  0.22763     N
N       0.3455   0.3946  0.72763     N
N       0.3455   0.6054  0.77237     N
N       0.3455   0.8946  0.27237     N
H       0.3461   0.2185   0.7528     H
H       0.3461   0.2815   0.2528     H
H       0.3461   0.7185   0.2472     H
H       0.3461   0.7815   0.7472     H
C       0.3472   0.2336  0.24012     C
C       0.3472   0.2664  0.74012     C
C       0.3472   0.7336  0.75988     C
C       0.3472   0.7664  0.25988     C
Cu     0.34815      0.0     0.25    Cu
Cu     0.34815      0.5     0.75    Cu
N       0.3554   0.0955  0.52237     N
N       0.3554   0.4045  0.02237     N
N       0.3554   0.5955  0.47763     N
N       0.3554   0.9045  0.97763     N
N       0.3558   0.1422  0.19335     N
N       0.3558   0.3578  0.69335     N
N       0.3558   0.6422  0.80665     N
N       0.3558   0.8578  0.30665     N
C        0.357   0.2183  0.20016     C
C        0.357   0.2817  0.70016     C
C        0.357   0.7183  0.79984     C
C        0.357   0.7817  0.29984     C
O       0.3647   0.1592  0.66825     O
O       0.3647   0.3408  0.16825     O
O       0.3647   0.6592  0.33175     O
O       0.3647   0.8408  0.83175     O
C       0.3658   0.2307  0.66539     C
C       0.3658   0.2693  0.16539     C
C       0.3658   0.7307  0.33461     C
C       0.3658   0.7693  0.83461     C
Cu     0.36986  0.12019  0.61352    Cu
Cu     0.36986  0.37981  0.11352    Cu
Cu     0.36986  0.62019  0.38648    Cu
Cu     0.36986  0.87981  0.88648    Cu
Cu     0.37019  0.11986  0.13648    Cu
Cu     0.37019  0.38014  0.63648    Cu
Cu     0.37019  0.61986  0.86352    Cu
Cu     0.37019  0.88014  0.36352    Cu
O       0.3706   0.2342  0.13261     O
O       0.3706   0.2658  0.63261     O
O       0.3706   0.7342  0.86739     O
O       0.3706   0.7658  0.36739     O
C       0.3794   0.0803   0.4533     C
C       0.3794   0.4197   0.9533     C
C       0.3794   0.5803   0.5467     C
C       0.3794   0.9197   0.0467     C
N       0.3922   0.1058  0.55665     N
N       0.3922   0.3942  0.05665     N
N       0.3922   0.6058  0.44335     N
N       0.3922   0.8942  0.94335     N
O       0.4092   0.1147  0.08175     O
O       0.4092   0.3853  0.58175     O
O       0.4092   0.6147  0.91825     O
O       0.4092   0.8853  0.41825     O
C       0.4108   0.0897  0.49404     C
C       0.4108   0.4103  0.99404     C
C       0.4108   0.5897  0.50596     C
C       0.4108   0.9103  0.00596     C
O       0.4253   0.0708  0.42506     O
O       0.4253   0.4292  0.92506     O
O       0.4253   0.5708  0.57494     O
O       0.4253   0.9292  0.07494     O
C       0.4683    0.107  0.54984     C
C       0.4683    0.393  0.04984     C
C       0.4683    0.607  0.45016     C
C       0.4683    0.893  0.95016     C
H       0.4685   0.0961   0.9972     H
H       0.4685   0.4039   0.4972     H
H       0.4685   0.5961   0.0028     H
H       0.4685   0.9039   0.5028     H
C       0.4807   0.1158  0.08461     C
C       0.4807   0.3842  0.58461     C
C       0.4807   0.6158  0.91539     C
C       0.4807   0.8842  0.41539     C
C       0.4836   0.0972  0.50988     C
C       0.4836   0.4028  0.00988     C
C       0.4836   0.5972  0.49012     C
C       0.4836   0.9028  0.99012     C
O       0.4842   0.1206  0.61739     O
O       0.4842   0.3794  0.11739     O
O       0.4842   0.6206  0.38261     O
O       0.4842   0.8794  0.88261     O
O       0.5158   0.1206  0.11739     O
O       0.5158   0.3794  0.61739     O
O       0.5158   0.6206  0.88261     O
O       0.5158   0.8794  0.38261     O
C       0.5164   0.0972  0.00988     C
C       0.5164   0.4028  0.50988     C
C       0.5164   0.5972  0.99012     C
C       0.5164   0.9028  0.49012     C
C       0.5193   0.1158  0.58461     C
C       0.5193   0.3842  0.08461     C
C       0.5193   0.6158  0.41539     C
C       0.5193   0.8842  0.91539     C
H       0.5315   0.0961   0.4972     H
H       0.5315   0.4039   0.9972     H
H       0.5315   0.5961   0.5028     H
H       0.5315   0.9039   0.0028     H
C       0.5317    0.107  0.04984     C
C       0.5317    0.393  0.54984     C
C       0.5317    0.607  0.95016     C
C       0.5317    0.893  0.45016     C
O       0.5747   0.0708  0.92506     O
O       0.5747   0.4292  0.42506     O
O       0.5747   0.5708  0.07494     O
O       0.5747   0.9292  0.57494     O
C       0.5892   0.0897  0.99404     C
C       0.5892   0.4103  0.49404     C
C       0.5892   0.5897  0.00596     C
C       0.5892   0.9103  0.50596     C
O       0.5908   0.1147  0.58175     O
O       0.5908   0.3853  0.08175     O
O       0.5908   0.6147  0.41825     O
O       0.5908   0.8853  0.91825     O
N       0.6078   0.1058  0.05665     N
N       0.6078   0.3942  0.55665     N
N       0.6078   0.6058  0.94335     N
N       0.6078   0.8942  0.44335     N
C       0.6206   0.0803   0.9533     C
C       0.6206   0.4197   0.4533     C
C       0.6206   0.5803   0.0467     C
C       0.6206   0.9197   0.5467     C
O       0.6294   0.2342  0.63261     O
O       0.6294   0.2658  0.13261     O
O       0.6294   0.7342  0.36739     O
O       0.6294   0.7658  0.86739     O
Cu     0.62981  0.11986  0.63648    Cu
Cu     0.62981  0.38014  0.13648    Cu
Cu     0.62981  0.61986  0.36352    Cu
Cu     0.62981  0.88014  0.86352    Cu
Cu     0.63014  0.12019  0.11352    Cu
Cu     0.63014  0.37981  0.61352    Cu
Cu     0.63014  0.62019  0.88648    Cu
Cu     0.63014  0.87981  0.38648    Cu
C       0.6342   0.2307  0.16539     C
C       0.6342   0.2693  0.66539     C
C       0.6342   0.7307  0.83461     C
C       0.6342   0.7693  0.33461     C
O       0.6353   0.1592  0.16825     O
O       0.6353   0.3408  0.66825     O
O       0.6353   0.6592  0.83175     O
O       0.6353   0.8408  0.33175     O
C        0.643   0.2183  0.70016     C
C        0.643   0.2817  0.20016     C
C        0.643   0.7183  0.29984     C
C        0.643   0.7817  0.79984     C
N       0.6442   0.1422  0.69335     N
N       0.6442   0.3578  0.19335     N
N       0.6442   0.6422  0.30665     N
N       0.6442   0.8578  0.80665     N
N       0.6446   0.0955  0.02237     N
N       0.6446   0.4045  0.52237     N
N       0.6446   0.5955  0.97763     N
N       0.6446   0.9045  0.47763     N
Cu     0.65185      0.0     0.75    Cu
Cu     0.65185      0.5     0.25    Cu
C       0.6528   0.2336  0.74012     C
C       0.6528   0.2664  0.24012     C
C       0.6528   0.7336  0.25988     C
C       0.6528   0.7664  0.75988     C
H       0.6539   0.2185   0.2528     H
H       0.6539   0.2815   0.7528     H
H       0.6539   0.7185   0.7472     H
H       0.6539   0.7815   0.2472     H
N       0.6545   0.1054  0.72763     N
N       0.6545   0.3946  0.22763     N
N       0.6545   0.6054  0.27237     N
N       0.6545   0.8946  0.77237     N
C       0.6603   0.1608  0.75596     C
C       0.6603   0.3392  0.25596     C
C       0.6603   0.6608  0.24404     C
C       0.6603   0.8392  0.74404     C
C       0.6697   0.1294   0.7967     C
C       0.6697   0.3706   0.2967     C
C       0.6697   0.6294   0.2033     C
C       0.6697   0.8706   0.7033     C
O       0.6702   0.0566  0.79896     O
O       0.6702   0.4434  0.29896     O
O       0.6702   0.5566  0.20104     O
O       0.6702   0.9434  0.70104     O
O       0.6792   0.1753  0.82494     O
O       0.6792   0.3247  0.32494     O
O       0.6792   0.6753  0.17506     O
O       0.6792   0.8247  0.67506     O
O       0.6934   0.0798  0.95104     O
O       0.6934   0.4202  0.45104     O
O       0.6934   0.5798  0.04896     O
O       0.6934   0.9202  0.54896     O
Cu        0.75  0.09815      0.0    Cu
Cu        0.75  0.40185      0.5    Cu
Cu        0.75  0.59815      0.0    Cu
Cu        0.75  0.90185      0.5    Cu
O       0.8066   0.0798  0.04896     O
O       0.8066   0.4202  0.54896     O
O       0.8066   0.5798  0.95104     O
O       0.8066   0.9202  0.45104     O
O       0.8208   0.1753  0.17506     O
O       0.8208   0.3247  0.67506     O
O       0.8208   0.6753  0.82494     O
O       0.8208   0.8247  0.32494     O
O       0.8298   0.0566  0.20104     O
O       0.8298   0.4434  0.70104     O
O       0.8298   0.5566  0.79896     O
O       0.8298   0.9434  0.29896     O
C       0.8303   0.1294   0.2033     C
C       0.8303   0.3706   0.7033     C
C       0.8303   0.6294   0.7967     C
C       0.8303   0.8706   0.2967     C
C       0.8397   0.1608  0.24404     C
C       0.8397   0.3392  0.74404     C
C       0.8397   0.6608  0.75596     C
C       0.8397   0.8392  0.25596     C
N       0.8455   0.1054  0.27237     N
N       0.8455   0.3946  0.77237     N
N       0.8455   0.6054  0.72763     N
N       0.8455   0.8946  0.22763     N
H       0.8461   0.2185   0.7472     H
H       0.8461   0.2815   0.2472     H
H       0.8461   0.7185   0.2528     H
H       0.8461   0.7815   0.7528     H
C       0.8472   0.2336  0.25988     C
C       0.8472   0.2664  0.75988     C
C       0.8472   0.7336  0.74012     C
C       0.8472   0.7664  0.24012     C
Cu     0.84815      0.0     0.25    Cu
Cu     0.84815      0.5     0.75    Cu
N       0.8554   0.0955  0.97763     N
N       0.8554   0.4045  0.47763     N
N       0.8554   0.5955  0.02237     N
N       0.8554   0.9045  0.52237     N
N       0.8558   0.1422  0.30665     N
N       0.8558   0.3578  0.80665     N
N       0.8558   0.6422  0.69335     N
N       0.8558   0.8578  0.19335     N
C        0.857   0.2183  0.29984     C
C        0.857   0.2817  0.79984     C
C        0.857   0.7183  0.70016     C
C        0.857   0.7817  0.20016     C
O       0.8647   0.1592  0.83175     O
O       0.8647   0.3408  0.33175     O
O       0.8647   0.6592  0.16825     O
O       0.8647   0.8408  0.66825     O
C       0.8658   0.2307  0.83461     C
C       0.8658   0.2693  0.33461     C
C       0.8658   0.7307  0.16539     C
C       0.8658   0.7693  0.66539     C
Cu     0.86986  0.12019  0.88648    Cu
Cu     0.86986  0.37981  0.38648    Cu
Cu     0.86986  0.62019  0.11352    Cu
Cu     0.86986  0.87981  0.61352    Cu
Cu     0.87019  0.11986  0.36352    Cu
Cu     0.87019  0.38014  0.86352    Cu
Cu     0.87019  0.61986  0.63648    Cu
Cu     0.87019  0.88014  0.13648    Cu
O       0.8706   0.2342  0.36739     O
O       0.8706   0.2658  0.86739     O
O       0.8706   0.7342  0.63261     O
O       0.8706   0.7658  0.13261     O
C       0.8794   0.0803   0.0467     C
C       0.8794   0.4197   0.5467     C
C       0.8794   0.5803   0.9533     C
C       0.8794   0.9197   0.4533     C
N       0.8922   0.1058  0.94335     N
N       0.8922   0.3942  0.44335     N
N       0.8922   0.6058  0.05665     N
N       0.8922   0.8942  0.55665     N
O       0.9092   0.1147  0.41825     O
O       0.9092   0.3853  0.91825     O
O       0.9092   0.6147  0.58175     O
O       0.9092   0.8853  0.08175     O
C       0.9108   0.0897  0.00596     C
C       0.9108   0.4103  0.50596     C
C       0.9108   0.5897  0.99404     C
C       0.9108   0.9103  0.49404     C
O       0.9253   0.0708  0.07494     O
O       0.9253   0.4292  0.57494     O
O       0.9253   0.5708  0.92506     O
O       0.9253   0.9292  0.42506     O
C       0.9683    0.107  0.95016     C
C       0.9683    0.393  0.45016     C
C       0.9683    0.607  0.04984     C
C       0.9683    0.893  0.54984     C
H       0.9685   0.0961   0.5028     H
H       0.9685   0.4039   0.0028     H
H       0.9685   0.5961   0.4972     H
H       0.9685   0.9039   0.9972     H
C       0.9807   0.1158  0.41539     C
C       0.9807   0.3842  0.91539     C
C       0.9807   0.6158  0.58461     C
C       0.9807   0.8842  0.08461     C
C       0.9836   0.0972  0.99012     C
C       0.9836   0.4028  0.49012     C
C       0.9836   0.5972  0.00988     C
C       0.9836   0.9028  0.50988     C
O       0.9842   0.1206  0.88261     O
O       0.9842   0.3794  0.38261     O
O       0.9842   0.6206  0.11739     O
O       0.9842   0.8794  0.61739     O
