data_I
_chemical_name_common  '/home/zhangsd/repos/MofS-CGCNN/ML/data/TSD/clean_cifs/HAJRES_clean'
_cell_length_a 30.43800
_cell_length_b 44.98500
_cell_length_c 30.39920
_cell_angle_alpha 90.00000
_cell_angle_beta  90.00000
_cell_angle_gamma 90.00000
_space_group_name_H-M_alt      'P 1'


loop_
_space_group_symop_operation_xyz
  'x, y, z' 

loop_
_atom_site_label
_atom_site_fract_x
_atom_site_fract_y
_atom_site_fract_z
_atom_site_type_symbol
C       0.0001   0.1326   0.7146     C
C       0.0001   0.6326   0.2146     C
Cu      0.0013  0.24988  0.61646    Cu
Cu      0.0013  0.74988  0.11646    Cu
C       0.0034   0.3367    0.231     C
C       0.0034   0.8367    0.731     C
H       0.0048   0.1191   0.7394     H
H       0.0048   0.6191   0.2394     H
H       0.0057   0.3299   0.0949     H
H       0.0057   0.8299   0.5949     H
H       0.0069   0.4692   0.9335     H
H       0.0069   0.9692   0.4335     H
C       0.0072   0.2804   0.2633     C
C       0.0072   0.7804   0.7633     C
C       0.0073   0.1604   0.5691     C
C       0.0073   0.6604   0.0691     C
H       0.0074   0.0329   0.3575     H
H       0.0074   0.5329   0.8575     H
C       0.0076    0.279   0.6654     C
C       0.0076    0.779   0.1654     C
C       0.0084   0.1815   0.5319     C
C       0.0084   0.6815   0.0319     C
H       0.0103    0.357    0.061     H
H       0.0103    0.857    0.561     H
H       0.0108   0.2628   0.2803     H
H       0.0108   0.7628   0.7803     H
C       0.0112   0.2233   0.4646     C
C       0.0112   0.7233   0.9646     C
H       0.0114   0.4703    0.011     H
H       0.0114   0.9703    0.511     H
H       0.0117   0.2746   0.8379     H
H       0.0117   0.7746   0.3379     H
C        0.012   0.2274   0.0635     C
C        0.012   0.7274   0.5635     C
H       0.0122   0.2376   0.4416     H
H       0.0122   0.7376   0.9416     H
H       0.0127   0.4391    0.832     H
H       0.0127   0.9391    0.332     H
C       0.0141   0.3355    0.748     C
C       0.0141   0.8355    0.248     C
H       0.0145   0.2199   0.8626     H
H       0.0145   0.7199   0.3626     H
C       0.0151    0.312   0.4541     C
C       0.0151    0.812   0.9541     C
N       0.0164    0.297   0.6884     N
N       0.0164    0.797   0.1884     N
C       0.0168   0.2893   0.8147     C
C       0.0168   0.7893   0.3147     C
C       0.0192   0.2981   0.4151     C
C       0.0192   0.7981   0.9151     C
C       0.0198   0.4574   0.8478     C
C       0.0198   0.9574   0.3478     C
H         0.02   0.3699    0.789     H
H         0.02   0.8699    0.289     H
H       0.0201   0.1695   0.0955     H
H       0.0201   0.6695   0.5955     H
C       0.0224     0.21   0.8902     C
C       0.0224     0.71   0.3902     C
N       0.0229   0.2112   0.0354     N
N       0.0229   0.7112   0.5354     N
H       0.0231   0.3449   0.5224     H
H       0.0231   0.8449   0.0224     H
H        0.025   0.1312   0.6942     H
H        0.025   0.6312   0.1942     H
C       0.0266   0.1981   0.2996     C
C       0.0266   0.6981   0.7996     C
H        0.027   0.3728   0.1992     H
H        0.027   0.8728   0.6992     H
H       0.0271   0.0322   0.7221     H
H       0.0271   0.5322   0.2221     H
C       0.0284   0.1775   0.9729     C
C       0.0284   0.6775   0.4729     C
C       0.0287   0.1758   0.2655     C
C       0.0287   0.6758   0.7655     C
C       0.0289   0.2853   0.9822     C
C       0.0289   0.7853   0.4822     C
C       0.0304   0.3062   0.0158     C
C       0.0304   0.8062   0.5158     C
H       0.0307   0.0659   0.7055     H
C       0.0307   0.1764    0.754     C
H       0.0307   0.5659   0.2055     H
C       0.0307   0.6764    0.254     C
C       0.0309   0.2045   0.7665     C
C       0.0309   0.7045   0.2665     C
H       0.0316   0.2797   0.7898     H
H       0.0316   0.7797   0.2898     H
C       0.0332   0.4581   0.9297     C
C       0.0332   0.9581   0.4297     C
C       0.0347   0.3589   0.7667     C
C       0.0347   0.8589   0.2667     C
H       0.0353   0.3053   0.8261     H
H       0.0353   0.8053   0.3261     H
H       0.0354   0.1584   0.1431     H
H       0.0354   0.6584   0.6431     H
H       0.0359   0.4425   0.0329     H
H       0.0359   0.4709   0.8282     H
H       0.0359   0.9425   0.5329     H
H       0.0359   0.9709   0.3282     H
C       0.0361   0.3211    0.713     C
C       0.0361   0.8211    0.213     C
H       0.0374    0.154   0.5761     H
H       0.0374    0.654   0.0761     H
H       0.0383   0.0282   0.8034     H
H       0.0383   0.1468   0.9248     H
H       0.0383   0.5282   0.3034     H
H       0.0383   0.6468   0.4248     H
H       0.0391   0.1919   0.8837     H
H       0.0391   0.6919   0.3837     H
C       0.0396     0.46   0.0141     C
C       0.0396     0.96   0.5141     C
H       0.0403   0.2234   0.9081     H
H       0.0403   0.7234   0.4081     H
C       0.0419   0.3186   0.2221     C
C       0.0419   0.8186   0.7221     C
C       0.0421   0.2897   0.2355     C
C       0.0421   0.7897   0.7355     C
C       0.0443   0.1883    0.012     C
C       0.0443   0.6883    0.512     C
C       0.0445    0.161   0.1124     C
C       0.0445    0.661   0.6124     C
C        0.045   0.2797   0.1274     C
C        0.045   0.7797   0.6274     C
H       0.0462   0.0212   0.8753     H
H       0.0462   0.5212   0.3753     H
C       0.0465   0.4506   0.8852     C
C       0.0465   0.9506   0.3852     C
C       0.0471   0.0491   0.7176     C
C       0.0471   0.5491   0.2176     C
C       0.0485   0.1902   0.5144     C
C       0.0485   0.6902   0.0144     C
C         0.05   0.2111   0.4807     C
C         0.05   0.7111   0.9807     C
C       0.0501   0.1549   0.9511     C
C       0.0501   0.6549   0.4511     C
H       0.0513   0.4599   0.4365     H
H       0.0513   0.9599   0.9365     H
H       0.0522   0.1184   0.2402     H
H       0.0522   0.6184   0.7402     H
H       0.0527   0.1417   0.0999     H
H       0.0527   0.6417   0.5999     H
C       0.0539   0.3415   0.5143     C
C       0.0539   0.8415   0.0143     C
C       0.0545   0.2262   0.6058     C
C       0.0545   0.7262   0.1058     C
H       0.0555   0.1645   0.7611     H
H       0.0555   0.6645   0.2611     H
H       0.0556   0.0204   0.3039     H
H       0.0556   0.5204   0.8039     H
H       0.0558   0.0525   0.8984     H
H       0.0558   0.5525   0.3984     H
C       0.0559   0.3217   0.4759     C
C       0.0559   0.8217   0.9759     C
C       0.0566     0.45   0.9672     C
C       0.0566     0.95   0.4672     C
H       0.0578   0.3122   0.0279     H
H       0.0578   0.8122   0.5279     H
C       0.0583   0.0445   0.8025     C
C       0.0583   0.5445   0.3025     C
H       0.0588   0.4771   0.2861     H
H       0.0588   0.9771   0.7861     H
H       0.0604   0.1393   0.1985     H
C       0.0604   0.2892    0.399     C
H       0.0604   0.6393   0.6985     H
C       0.0604   0.7892    0.899     C
H       0.0611   0.4735   0.0275     H
H       0.0611   0.9735   0.5275     H
H       0.0622   0.2774   0.3731     H
H       0.0622   0.7774   0.8731     H
H       0.0624    0.257   0.9384     H
H       0.0624    0.757   0.4384     H
C       0.0657   0.1619   0.2575     C
C       0.0657   0.6619   0.7575     C
C       0.0674   0.0376   0.8809     C
C       0.0674   0.5376   0.3809     C
H       0.0678   0.3605    0.507     H
H       0.0678   0.8605    0.007     H
C       0.0679   0.0582   0.7627     C
C       0.0679   0.5582   0.2627     C
C       0.0686   0.2072   0.3199     C
H       0.0686   0.2213   0.3431     H
C       0.0686   0.7072   0.8199     C
H       0.0686   0.7213   0.8431     H
H       0.0689   0.2392    0.796     H
N       0.0689   0.2993   0.1357     N
H       0.0689   0.7392    0.296     H
N       0.0689   0.7993   0.6357     N
H       0.0694   0.3323    0.539     H
H       0.0694   0.8323    0.039     H
C       0.0702   0.1345   0.2284     C
C       0.0702   0.6345   0.7284     C
H       0.0704   0.0433   0.6971     H
H       0.0704   0.5433   0.1971     H
C        0.071   0.2711   0.9615     C
C        0.071   0.7711   0.4615     C
H       0.0726   0.2493   0.2422     H
H       0.0726   0.7493   0.7422     H
C       0.0742   0.2183   0.7887     C
C       0.0742   0.7183   0.2887     C
H       0.0743   0.3625   0.0503     H
H       0.0743   0.8625   0.5503     H
H       0.0749   0.4448     0.56     H
H       0.0749   0.9448     0.06     H
H       0.0753   0.1714   0.6526     H
H       0.0753   0.6714   0.1526     H
H       0.0759   0.4844   0.3645     H
H       0.0759   0.9844   0.8645     H
H       0.0762   0.3687    0.594     H
H       0.0762   0.8687    0.094     H
C       0.0774   0.3676   0.7541     C
C       0.0774   0.8676   0.2541     C
C       0.0779   0.0545    0.841     C
H       0.0779   0.4482   0.2622     H
C       0.0779   0.5545    0.341     C
H       0.0779   0.9482   0.7622     H
H       0.0782    0.371   0.6465     H
H       0.0782    0.871   0.1465     H
C       0.0784   0.3318   0.1978     C
C       0.0784   0.8318   0.6978     C
C       0.0787   0.3303   0.6991     C
C       0.0787   0.8303   0.1991     C
C       0.0803   0.2688   0.2301     C
C       0.0803   0.7688   0.7301     C
H       0.0813   0.2072   0.8155     H
H       0.0813   0.7072   0.3155     H
H       0.0814   0.2642   0.7068     H
H       0.0814   0.7642   0.2068     H
C       0.0817   0.4668   0.4397     C
C       0.0817   0.9668   0.9397     C
N       0.0819   0.2103   0.5944     N
H       0.0819   0.4885   0.4429     H
N       0.0819   0.7103   0.0944     N
H       0.0819   0.9885   0.9429     H
H       0.0835    0.122   0.8894     H
H       0.0835    0.622   0.3894     H
H       0.0837    0.043   0.2745     H
H       0.0837    0.543   0.7745     H
C       0.0842   0.1822   0.1104     C
C       0.0842   0.6822   0.6104     C
C       0.0847    0.404   0.8182     C
C       0.0847    0.904   0.3182     C
C        0.085   0.1789   0.0302     C
C        0.085   0.6789   0.5302     C
C       0.0852   0.0279   0.2977     C
C       0.0852   0.5279   0.7977     C
C       0.0855   0.4658   0.2794     C
C       0.0855   0.9658   0.7794     C
H       0.0868   0.1565    0.699     H
H       0.0868   0.6565    0.199     H
H       0.0873   0.2668   0.1987     H
H       0.0873   0.7668   0.6987     H
H       0.0876   0.2606   0.9844     H
C       0.0876   0.4368   0.8842     C
H       0.0876   0.7606   0.4844     H
C       0.0876   0.9368   0.3842     C
H       0.0892   0.1865   0.1771     H
H       0.0892   0.6865   0.6771     H
H       0.0895   0.2867   0.9487     H
H       0.0895   0.7867   0.4487     H
C       0.0896   0.3235    0.155     C
C       0.0896   0.8235    0.655     C
C       0.0901   0.1773    0.533     C
C       0.0901   0.6773    0.033     C
C       0.0902   0.1441   0.9687     C
C       0.0902   0.6441   0.4687     C
H       0.0923   0.0268   0.1603     H
H       0.0923   0.5268   0.6603     H
C       0.0931   0.4361   0.9632     C
C       0.0931   0.9361   0.4632     C
H       0.0937    0.028   0.8954     H
H       0.0937    0.528   0.3954     H
H       0.0938   0.2155   0.4276     H
H       0.0938   0.7155   0.9276     H
C       0.0942   0.2207   0.4589     C
C       0.0942   0.7207   0.9589     C
H       0.0945   0.4772   0.5692     H
H       0.0945   0.9772   0.0692     H
C       0.0948   0.3137   0.4584     C
C       0.0948   0.8137   0.9584     C
C       0.0949   0.3661   0.6199     C
H       0.0949   0.4577   0.4658     H
C       0.0949   0.8661   0.1199     C
H       0.0949   0.9577   0.9658     H
C       0.0952   0.4678   0.3647     C
C       0.0952   0.9678   0.8647     C
C       0.0971   0.0819   0.7614     C
C       0.0971   0.5819   0.2614     C
C       0.0974    0.353   0.7201     C
C       0.0974    0.853   0.2201     C
C       0.0975   0.1602   0.6691     C
H       0.0975   0.4521   0.6064     H
C       0.0975   0.6602   0.1691     C
H       0.0975   0.9521   0.1064     H
H       0.0977   0.0565    0.132     H
H       0.0977   0.5565    0.632     H
H        0.098   0.2423   0.4621     H
H        0.098   0.7423   0.9621     H
C       0.0982   0.2975   0.4205     C
H       0.0982   0.3585   0.2489     H
C       0.0982   0.7975   0.9205     C
H       0.0982   0.8585   0.7489     H
C       0.0984   0.4559   0.5746     C
C       0.0984   0.9559   0.0746     C
H       0.0987   0.0067   0.3761     H
H       0.0987   0.5067   0.8761     H
H       0.0988   0.2169    0.768     H
H       0.0988   0.7169    0.268     H
C       0.0991    0.393   0.7776     C
C       0.0991    0.893   0.2776     C
C       0.1008   0.3155   0.6602     C
C       0.1008   0.8155   0.1602     C
H       0.1011   0.1282   0.2276     H
H       0.1011   0.6282   0.7276     H
H       0.1018   0.1492   0.4824     H
H       0.1018   0.6492   0.9824     H
C       0.1031   0.1915   0.1501     C
C       0.1031   0.6915   0.6501     C
H       0.1032   0.1412   0.6543     H
H       0.1032   0.6412   0.1543     H
C       0.1034   0.0411   0.3373     C
C       0.1034   0.5411   0.8373     C
C       0.1035   0.3541   0.2188     C
C       0.1035   0.8541   0.7188     C
H       0.1037   0.0913   0.7342     H
H       0.1037   0.5913   0.2342     H
H        0.104   0.0115   0.2881     H
H        0.104   0.5115   0.7881     H
C       0.1046   0.4269   0.8408     C
C       0.1046   0.9269   0.3408     C
C       0.1047   0.1904   0.0729     C
C       0.1047   0.6904   0.5729     C
C       0.1052   0.3685   0.0515     C
C       0.1052   0.8685   0.5515     C
C       0.1056   0.1114   0.9051     C
C       0.1056   0.6114   0.4051     C
H       0.1057   0.4783   0.2625     H
H       0.1057   0.9783   0.7625     H
H       0.1058   0.0844   0.3151     H
H       0.1058   0.5844   0.8151     H
H       0.1059   0.2768   0.2457     H
H       0.1059   0.7768   0.7457     H
C       0.1062   0.1568   0.0069     C
C       0.1062   0.6568   0.5069     C
C       0.1063   0.1958    0.306     C
C       0.1063   0.6958    0.806     C
C       0.1065   0.1884   0.5721     C
C       0.1065   0.6884   0.0721     C
C       0.1066   0.4585   0.4011     C
C       0.1066   0.9585   0.9011     C
C       0.1071   0.0782   0.8398     C
C       0.1071   0.5782   0.3398     C
C       0.1079   0.4562   0.3228     C
C       0.1079   0.9562   0.8228     C
C       0.1084   0.1715   0.2753     C
C       0.1084   0.6715   0.7753     C
C       0.1086   0.4289   0.9213     C
C       0.1086   0.9289   0.4213     C
C       0.1095   0.0264   0.3744     C
C       0.1095   0.5264   0.8744     C
H       0.1096   0.4307   0.9885     H
H       0.1096   0.9307   0.4885     H
C       0.1104   0.3341   0.6224     C
C       0.1104   0.8341   0.1224     C
H       0.1107   0.3794   0.0789     H
H       0.1107   0.8794   0.5789     H
H       0.1119   0.3813   0.0263     H
H       0.1119   0.8813   0.5263     H
C       0.1124   0.1557   0.5101     C
C       0.1124   0.6557   0.0101     C
C       0.1127   0.0386   0.1426     C
C       0.1127   0.5386   0.6426     C
C       0.1128    0.268   0.7021     C
C       0.1128    0.768   0.2021     C
C       0.1133     0.12   0.9452     C
C       0.1133     0.62   0.4452     C
H       0.1147   0.4124   0.5171     H
H       0.1147   0.9124   0.0171     H
C       0.1151   0.0719   0.3385     C
C       0.1151   0.5719   0.8385     C
H       0.1164   0.3999   0.2678     H
H       0.1164   0.8999   0.7678     H
C       0.1167   0.0919      0.8     C
C       0.1167   0.5919      0.3     C
H       0.1187   0.2105   0.4734     H
C       0.1187   0.2882   0.6617     C
H       0.1187   0.7105   0.9734     H
C       0.1187   0.7882   0.1617     C
H       0.1204   0.3793   0.6176     H
H       0.1204   0.8793   0.1176     H
H        0.121   0.3195   0.4731     H
H        0.121   0.8195   0.9731     H
H       0.1219   0.4991   0.9472     H
H       0.1219   0.9991   0.4472     H
H       0.1229   0.0269   0.1174     H
H       0.1229   0.5269   0.6174     H
C       0.1238   0.3388   0.1331     C
C       0.1238   0.8388   0.6331     C
H       0.1242   0.1094    0.461     H
H       0.1242   0.6094    0.961     H
H       0.1249   0.0278   0.4781     H
H       0.1249   0.5278   0.9781     H
H       0.1251   0.2778   0.7281     H
H       0.1251   0.7778   0.2281     H
H       0.1258   0.3594    0.711     H
H       0.1258   0.8594    0.211     H
C       0.1262   0.0888   0.8831     C
C       0.1262   0.5888   0.3831     C
H       0.1271   0.2769   0.3674     H
H       0.1271   0.7769   0.8674     H
H       0.1281   0.2491   0.6972     H
H       0.1281   0.7491   0.1972     H
H        0.129   0.0695   0.2231     H
H        0.129   0.5695   0.7231     H
H       0.1296   0.1293   0.3676     H
H       0.1296   0.6293   0.8676     H
C       0.1313   0.0382   0.4117     C
H       0.1313   0.4605   0.7234     H
C       0.1313   0.5382   0.9117     C
H       0.1313   0.9605   0.2234     H
C       0.1333   0.3419     0.05     C
C       0.1333   0.8419     0.55     C
H       0.1336   0.1499   0.0178     H
H       0.1336   0.6499   0.5178     H
C       0.1349   0.3219   0.5885     C
C       0.1349   0.8219   0.0885     C
H       0.1353   0.1624   0.2671     H
H       0.1353   0.6624   0.7671     H
C       0.1367     0.37   0.1952     C
C       0.1367     0.87   0.6952     C
C       0.1372    0.018   0.4521     C
C       0.1372    0.518   0.9521     C
C       0.1373   0.2886   0.3926     C
C       0.1373   0.7886   0.8926     C
C       0.1376   0.4057   0.7601     C
C       0.1376   0.9057   0.2601     C
H       0.1381   0.1313   0.7763     H
H       0.1381   0.6313   0.2763     H
H       0.1393   0.1294   0.8289     H
H       0.1393   0.6294   0.3289     H
C       0.1396   0.0841   0.3724     C
C       0.1396   0.5841   0.8724     C
H       0.1404   0.1807   0.7385     H
H       0.1404   0.6807   0.2385     H
C       0.1405   0.2764   0.6244     C
C       0.1405   0.7764   0.1244     C
C       0.1414   0.1789   0.6713     C
C       0.1414   0.6789   0.1713     C
C       0.1416   0.4215   0.5253     C
C       0.1416   0.9215   0.0253     C
C       0.1421   0.2062   0.0728     C
C       0.1421   0.7062   0.5728     C
C       0.1429   0.3282   0.0898     C
C       0.1429   0.8282   0.5898     C
C       0.1434   0.2085   0.1511     C
C       0.1434   0.7085   0.6511     C
C       0.1435   0.4384   0.8221     C
C       0.1435   0.9384   0.3221     C
C       0.1437   0.4458    0.556     C
C       0.1437   0.9458    0.056     C
C       0.1438   0.4068   0.2569     C
C       0.1438   0.9068   0.7569     C
H       0.1441   0.0268   0.9957     H
H       0.1441   0.5268   0.4957     H
H       0.1442   0.3344   0.5651     H
H       0.1442   0.8344   0.0651     H
H       0.1443   0.2283   0.0125     H
H       0.1443   0.7283   0.5125     H
C       0.1444   0.3614   0.1551     C
C       0.1444   0.8614   0.6551     C
C       0.1448   0.1185   0.8015     C
C       0.1448   0.6185   0.3015     C
C       0.1453   0.4404   0.3229     C
C       0.1453   0.9404   0.8229     C
C       0.1454   0.1769   0.5908     C
C       0.1454   0.6769   0.0908     C
H        0.146   0.2615   0.5381     H
H        0.146   0.7615   0.0381     H
H       0.1463   0.3413   0.9842     H
H       0.1463   0.8413   0.4842     H
C       0.1465   0.1041   0.9688     C
C       0.1465   0.6041   0.4688     C
C       0.1466   0.2911   0.5873     C
C       0.1466   0.7911   0.0873     C
H       0.1468   0.3912   0.9043     H
H       0.1468   0.8912   0.4043     H
C       0.1469   0.4415   0.4001     C
C       0.1469   0.9415   0.9001     C
H       0.1482   0.3992   0.7324     H
H       0.1482   0.8992   0.2324     H
H       0.1489   0.3782   0.4776     H
H       0.1489   0.8782   0.9776     H
C       0.1492   0.0655   0.4102     C
C       0.1492   0.5655   0.9102     C
C       0.1509    0.143   0.5276     C
C       0.1509    0.643   0.0276     C
H       0.1512   0.4669    0.018     H
H       0.1512   0.9669    0.518     H
H       0.1513   0.2567   0.6261     H
H       0.1513   0.7567   0.1261     H
C       0.1516   0.2059   0.3246     C
C       0.1516   0.7059   0.8246     C
C       0.1518   0.0475   0.1705     C
H       0.1518   0.1085   0.9989     H
C       0.1518   0.5475   0.6705     C
H       0.1518   0.6085   0.4989     H
H        0.152   0.4923   0.7121     H
H        0.152   0.9923   0.2121     H
H       0.1523   0.3065    0.382     H
H       0.1523   0.8065    0.882     H
H       0.1525   0.2021   0.3564     H
C       0.1525   0.4102   0.9191     C
H       0.1525   0.7021   0.8564     H
C       0.1525   0.9102   0.4191     C
C       0.1526    0.103   0.4701     C
C       0.1526    0.603   0.9701     C
C       0.1529   0.3319   0.0114     C
C       0.1529   0.8319   0.5114     C
C       0.1548   0.2178   0.1147     C
C       0.1548   0.7178   0.6147     C
C       0.1551   0.1161   0.3699     C
H       0.1551   0.2077   0.2158     H
C       0.1551   0.6161   0.8699     C
H       0.1551   0.7077   0.7158     H
C       0.1552   0.0637   0.2084     C
C       0.1552   0.5637   0.7084     C
H       0.1555   0.2272   0.3192     H
H       0.1555   0.7272   0.8192     H
C       0.1558   0.4707   0.7089     C
C       0.1558   0.9707   0.2089     C
H       0.1562   0.4655   0.6776     H
H       0.1562   0.9655   0.1776     H
H       0.1563    0.278   0.1454     H
H       0.1563    0.778   0.6454     H
C       0.1569   0.1861   0.7132     C
C       0.1569   0.6861   0.2132     C
H       0.1577   0.2768   0.4103     H
H       0.1577   0.7768   0.9103     H
C       0.1598   0.3941   0.2187     C
C       0.1598   0.8941   0.7187     C
C       0.1599   0.4273    0.783     C
C       0.1599   0.9273    0.283     C
C       0.1604   0.0735    0.905     C
C       0.1604   0.5735    0.405     C
H       0.1605   0.0367   0.6987     H
H       0.1605   0.5367   0.1987     H
H       0.1608   0.4365   0.4271     H
H       0.1608   0.9365   0.9271     H
H       0.1624   0.0106   0.7344     H
C       0.1624   0.1868   0.6342     C
H       0.1624   0.5106   0.2344     H
C       0.1624   0.6868   0.1342     C
H       0.1627   0.0168   0.9487     H
H       0.1627   0.5168   0.4487     H
H       0.1632   0.4065    0.949     H
H       0.1632   0.9065    0.449     H
C       0.1645   0.2158   0.0294     C
C       0.1645   0.7158   0.5294     C
C       0.1648   0.2779   0.5477     C
C       0.1648   0.7779   0.0477     C
C        0.165   0.4289   0.2802     C
C        0.165   0.9289   0.7802     C
C       0.1653    0.154   0.5682     C
C       0.1653    0.654   0.0682     C
C       0.1658   0.4322   0.3604     C
C       0.1658   0.9322   0.8604     C
H       0.1663    0.293   0.5245     H
H       0.1663    0.793   0.0245     H
H       0.1665    0.372   0.1394     H
H       0.1665    0.872   0.6394     H
H       0.1681   0.2385   0.1929     H
N       0.1681   0.4603   0.8444     N
H       0.1681   0.7385   0.6929     H
N       0.1681   0.9603   0.3444     N
C       0.1683   0.2168   0.1897     C
C       0.1683   0.7168   0.6897     C
H       0.1686   0.0142   0.4568     H
H       0.1686   0.5142   0.9568     H
H       0.1687   0.4572   0.0655     H
H       0.1687   0.9572   0.5655     H
C       0.1697   0.0188   0.9801     C
C       0.1697   0.5188   0.4801     C
C       0.1713   0.0803   0.4491     C
C       0.1713   0.5803   0.9491     C
C       0.1716   0.0818   0.9478     C
C       0.1716   0.5818   0.4478     C
H       0.1718    0.121   0.3965     H
H       0.1718    0.621   0.8965     H
H       0.1721   0.1982   0.0122     H
C       0.1721   0.3045    0.091     C
H       0.1721   0.6982   0.5122     H
C       0.1721   0.8045    0.591     C
C       0.1726   0.1176   0.5041     C
C       0.1726   0.6176   0.0041     C
H       0.1738   0.1187    0.344     H
H       0.1738   0.6187    0.844     H
H       0.1741   0.2344   0.1145     H
H       0.1741   0.7344   0.6145     H
H       0.1747   0.4214   0.9026     H
H       0.1747   0.9214   0.4026     H
H       0.1751   0.1948     0.31     H
H       0.1751   0.6948     0.81     H
H       0.1757   0.1125   0.8003     H
H       0.1757   0.6125   0.3003     H
C       0.1758   0.4683   0.0387     C
C       0.1758   0.9683   0.5387     C
H       0.1774   0.4993   0.4922     H
H       0.1774   0.9993   0.9922     H
C        0.179   0.0211   0.7115     C
C        0.179   0.5211   0.2115     C
H       0.1796   0.2933   0.9471     H
H       0.1796   0.7933   0.4471     H
C       0.1798   0.3845   0.4784     C
C       0.1798   0.8845   0.9784     C
H       0.1806   0.0823    0.289     H
H       0.1806   0.5823    0.789     H
N       0.1811   0.0493   0.8857     N
H       0.1811   0.4892    0.046     H
N       0.1811   0.5493   0.3857     N
H       0.1811   0.9892    0.546     H
C       0.1814   0.4572   0.5699     C
H       0.1814   0.4713   0.5931     H
C       0.1814   0.9572   0.0699     C
H       0.1814   0.9713   0.0931     H
C       0.1821   0.3082   0.0127     C
C       0.1821   0.8082   0.5127     C
H       0.1822   0.1105    0.257     H
H       0.1822   0.6105    0.757     H
C       0.1826   0.2876   0.1309     C
C       0.1826   0.7876   0.6309     C
C       0.1843   0.4119   0.5075     C
C       0.1843   0.9119   0.0075     C
H       0.1876    0.007   0.6884     H
H       0.1876    0.507   0.1884     H
H       0.1878   0.0274   0.1231     H
H       0.1878   0.5274   0.6231     H
H       0.1889   0.2235   0.7775     H
H       0.1889   0.7235   0.2775     H
C       0.1896   0.0392    0.149     C
H       0.1896   0.3893   0.4485     H
C       0.1896   0.5392    0.649     C
H       0.1896   0.8893   0.9485     H
H       0.1912   0.2271   0.0361     H
H       0.1912   0.7271   0.5361     H
C       0.1917   0.2945   0.0525     C
C       0.1917   0.7945   0.5525     C
H       0.1922   0.0622   0.7779     H
H       0.1922   0.5622   0.2779     H
C       0.1934      0.2   0.7172     C
C       0.1934      0.7   0.2172     C
C       0.1941   0.0717   0.2259     C
C       0.1941   0.5717   0.7259     C
H       0.1942   0.3025   0.1484     H
H       0.1942   0.8025   0.6484     H
H       0.1944   0.2704   0.5539     H
H       0.1944   0.7704   0.0539     H
H       0.1945   0.4145   0.0111     H
H       0.1945   0.9145   0.5111     H
C       0.1955   0.4762   0.8558     C
C       0.1955   0.9762   0.3558     C
C       0.1961   0.0915   0.2643     C
C       0.1961   0.5915   0.7643     C
H       0.1973   0.3917   0.3499     H
H       0.1973   0.8917   0.8499     H
H       0.1978   0.3684   0.4902     H
H       0.1978   0.8684   0.9902     H
H       0.1987   0.2099   0.1865     H
H       0.1987   0.7099   0.6865     H
C       0.1999   0.4049   0.2011     C
C       0.1999   0.9049   0.7011     C
C          0.2   0.4611   0.7307     C
C          0.2   0.9611   0.2307     C
C       0.2015   0.4402   0.7644     C
C       0.2015   0.9402   0.2644     C
C       0.2029   0.2991   0.9676     C
C       0.2029   0.7991   0.4676     C
C       0.2035   0.2006   0.6352     C
C       0.2035   0.7006   0.1352     C
H       0.2038   0.2712   0.1253     H
H       0.2038   0.7712   0.6253     H
C        0.205   0.0297   0.8774     C
C        0.205   0.5297   0.3774     C
C       0.2055    0.411   0.3624     C
C       0.2055    0.911   0.8624     C
C       0.2057   0.4383    0.262     C
C       0.2057   0.9383    0.762     C
C       0.2079   0.0397   0.9855     C
C       0.2079   0.5397   0.4855     C
C       0.2081   0.0686   0.9721     C
C       0.2081   0.5686   0.4721     C
H       0.2097   0.4734   0.1581     H
H       0.2097   0.9734   0.6581     H
C       0.2104     0.21   0.7641     C
C       0.2104     0.71   0.2641     C
H       0.2109   0.4419   0.1337     H
H       0.2109   0.9419   0.6337     H
H       0.2117   0.2782   0.0534     H
H       0.2117   0.3968   0.1748     H
H       0.2117   0.7782   0.5534     H
H       0.2117   0.8968   0.6748     H
H       0.2126    0.404   0.8261     H
H       0.2126    0.904   0.3261     H
C       0.2139   0.0711    0.463     C
C       0.2139   0.5711    0.963     C
H       0.2141   0.1925   0.7829     H
H       0.2141   0.2209   0.5782     H
H       0.2141   0.6925   0.2829     H
H       0.2141   0.7209   0.0782     H
H       0.2146   0.4084   0.3931     H
H       0.2146   0.9084   0.8931     H
H       0.2147   0.0553   0.5761     H
H       0.2147   0.5553   0.0761     H
C       0.2153   0.1089   0.5167     C
C       0.2153   0.6089   0.0167     C
C       0.2168   0.2081   0.6797     C
C       0.2168   0.7081   0.1797     C
H       0.2184   0.0297   0.5398     H
H       0.2184   0.5297   0.0398     H
C       0.2191   0.4545   0.0165     C
C       0.2191   0.9545   0.5165     C
H       0.2193   0.3159   0.9555     H
C       0.2193   0.4264    0.004     C
H       0.2193   0.8159   0.4555     H
C       0.2193   0.9264    0.504     C
C       0.2196   0.0562   0.7658     C
C       0.2196   0.5562   0.2658     C
C       0.2211   0.0353   0.7322     C
C       0.2211   0.5353   0.2322     C
C       0.2213   0.4258   0.5155     C
C       0.2213   0.9258   0.0155     C
C       0.2216   0.4275   0.2229     C
C       0.2216   0.9275   0.7229     C
H       0.2229   0.2822   0.9721     H
H       0.2229   0.7822   0.4721     H
H        0.223   0.1228   0.9492     H
H        0.223   0.6228   0.4492     H
C       0.2234   0.4481   0.5496     C
C       0.2234   0.9481   0.0496     C
H        0.225   0.3812   0.9442     H
H        0.225   0.8812   0.4442     H
H       0.2269   0.0949   0.2724     H
H       0.2269   0.5949   0.7724     H
N       0.2271   0.4612   0.2854     N
N       0.2271   0.9612   0.7854     N
C       0.2276     0.46   0.1402     C
C       0.2276     0.96   0.6402     C
H       0.2299   0.4195   0.3455     H
H       0.2299   0.9195   0.8455     H
H         0.23   0.1199    0.539     H
H         0.23   0.6199    0.039     H
C       0.2302   0.2074   0.5978     C
C       0.2302   0.7074   0.0978     C
C       0.2308   0.0481   0.1651     C
C       0.2308   0.5481   0.6651     C
C       0.2332   0.0393   0.5647     C
C       0.2332   0.5393   0.0647     C
N       0.2336    0.047   0.4384     N
N       0.2336    0.547   0.9384     N
C       0.2349    0.062   0.2041     C
C       0.2349    0.562   0.7041     C
H       0.2355   0.4699   0.1126     H
H       0.2355   0.9699   0.6126     H
C       0.2359   0.0855    0.498     C
C       0.2359   0.5855    0.998     C
H       0.2373   0.1891    0.582     H
H       0.2373   0.6891    0.082     H
H       0.2378   0.4876   0.6916     H
H       0.2378   0.9876   0.1916     H
C        0.238   0.4774   0.3135     C
C        0.238   0.9774   0.8135     C
H       0.2383   0.0246   0.5879     H
H       0.2383   0.5246   0.0879     H
H       0.2386   0.2203    0.761     H
H       0.2386   0.7203    0.261     H
C       0.2388   0.4733   0.7146     C
C       0.2388   0.9733   0.2146     C
H       0.2392   0.0128   0.0303     H
H       0.2392   0.5128   0.5303     H
H       0.2397    0.107    0.811     H
H       0.2397    0.607    0.311     H
C       0.2416   0.4315   0.7819     C
C       0.2416   0.9315   0.2819     C
C       0.2424    0.029   0.4154     C
C       0.2424    0.529   0.9154     C
H       0.2426   0.2829   0.6075     H
H       0.2426   0.7829   0.1075     H
C       0.2427   0.4104   0.8191     C
C       0.2427   0.9104   0.3191     C
C       0.2428   0.0304   0.0133     C
C       0.2428   0.5304   0.5133     C
H       0.2431   0.2192   0.6835     H
H       0.2431   0.7192   0.1835     H
H       0.2443   0.0799   0.8449     H
H       0.2443   0.5799   0.3449     H
H       0.2452   0.3691   0.9894     H
H       0.2452   0.8691   0.4894     H
C       0.2466   0.0867    0.981     C
C       0.2466   0.5867    0.481     C
Cu      0.2487  0.49988  0.86646    Cu
Cu      0.2487  0.99988  0.36646    Cu
C       0.2499   0.3826   0.9646     C
C       0.2499   0.8826   0.4646     C
C       0.2501   0.1174   0.9646     C
C       0.2501   0.6174   0.4646     C
Cu      0.2513  0.00012  0.86646    Cu
Cu      0.2513  0.50012  0.36646    Cu
C       0.2534   0.4133    0.981     C
C       0.2534   0.9133    0.481     C
H       0.2548   0.1309   0.9894     H
H       0.2548   0.6309   0.4894     H
H       0.2557   0.4201   0.8449     H
H       0.2557   0.9201   0.3449     H
H       0.2569   0.2808   0.6835     H
H       0.2569   0.7808   0.1835     H
C       0.2572   0.4696   0.0133     C
C       0.2572   0.9696   0.5133     C
C       0.2573   0.0896   0.8191     C
C       0.2573   0.5896   0.3191     C
H       0.2574   0.2171   0.6075     H
H       0.2574   0.7171   0.1075     H
C       0.2576    0.471   0.4154     C
C       0.2576    0.971   0.9154     C
C       0.2584   0.0685   0.7819     C
C       0.2584   0.5685   0.2819     C
H       0.2603    0.393    0.811     H
H       0.2603    0.893    0.311     H
H       0.2608   0.4872   0.0303     H
H       0.2608   0.9872   0.5303     H
C       0.2612   0.0267   0.7146     C
C       0.2612   0.5267   0.2146     C
H       0.2614   0.2797    0.761     H
H       0.2614   0.7797    0.261     H
H       0.2617   0.4754   0.5879     H
H       0.2617   0.9754   0.0879     H
C        0.262   0.0226   0.3135     C
C        0.262   0.5226   0.8135     C
H       0.2622   0.0124   0.6916     H
H       0.2622   0.5124   0.1916     H
H       0.2627   0.3109    0.582     H
H       0.2627   0.8109    0.082     H
C       0.2641   0.4145    0.498     C
C       0.2641   0.9145    0.998     C
H       0.2645   0.0301   0.1126     H
H       0.2645   0.5301   0.6126     H
C       0.2651    0.438   0.2041     C
C       0.2651    0.938   0.7041     C
N       0.2664    0.453   0.4384     N
N       0.2664    0.953   0.9384     N
C       0.2668   0.4607   0.5647     C
C       0.2668   0.9607   0.0647     C
C       0.2692   0.4519   0.1651     C
C       0.2692   0.9519   0.6651     C
C       0.2698   0.2926   0.5978     C
C       0.2698   0.7926   0.0978     C
H         0.27   0.3801    0.539     H
H         0.27   0.8801    0.039     H
H       0.2701   0.0805   0.3455     H
H       0.2701   0.5805   0.8455     H
C       0.2724     0.04   0.1402     C
C       0.2724     0.54   0.6402     C
N       0.2729   0.0388   0.2854     N
N       0.2729   0.5388   0.7854     N
H       0.2731   0.4051   0.2724     H
H       0.2731   0.9051   0.7724     H
H        0.275   0.1188   0.9442     H
H        0.275   0.6188   0.4442     H
C       0.2766   0.0519   0.5496     C
C       0.2766   0.5519   0.0496     C
H        0.277   0.3772   0.9492     H
H        0.277   0.8772   0.4492     H
H       0.2771   0.2178   0.9721     H
H       0.2771   0.7178   0.4721     H
C       0.2784   0.0725   0.2229     C
C       0.2784   0.5725   0.7229     C
C       0.2787   0.0742   0.5155     C
C       0.2787   0.5742   0.0155     C
C       0.2789   0.4647   0.7322     C
C       0.2789   0.9647   0.2322     C
C       0.2804   0.4438   0.7658     C
C       0.2804   0.9438   0.2658     C
C       0.2807   0.0736    0.004     C
H       0.2807   0.1841   0.9555     H
C       0.2807   0.5736    0.504     C
H       0.2807   0.6841   0.4555     H
C       0.2809   0.0455   0.0165     C
C       0.2809   0.5455   0.5165     C
H       0.2816   0.4703   0.5398     H
H       0.2816   0.9703   0.0398     H
C       0.2832   0.2919   0.6797     C
C       0.2832   0.7919   0.1797     C
C       0.2847   0.3911   0.5167     C
C       0.2847   0.8911   0.0167     C
H       0.2853   0.4447   0.5761     H
H       0.2853   0.9447   0.0761     H
H       0.2854   0.0916   0.3931     H
H       0.2854   0.5916   0.8931     H
H       0.2859   0.2791   0.5782     H
H       0.2859   0.3075   0.7829     H
H       0.2859   0.7791   0.0782     H
H       0.2859   0.8075   0.2829     H
C       0.2861   0.4289    0.463     C
C       0.2861   0.9289    0.963     C
H       0.2874    0.096   0.8261     H
H       0.2874    0.596   0.3261     H
H       0.2883   0.1032   0.1748     H
H       0.2883   0.2218   0.0534     H
H       0.2883   0.6032   0.6748     H
H       0.2883   0.7218   0.5534     H
H       0.2891   0.0581   0.1337     H
H       0.2891   0.5581   0.6337     H
C       0.2896     0.29   0.7641     C
C       0.2896     0.79   0.2641     C
H       0.2903   0.0266   0.1581     H
H       0.2903   0.5266   0.6581     H
C       0.2919   0.4314   0.9721     C
C       0.2919   0.9314   0.4721     C
C       0.2921   0.4603   0.9855     C
C       0.2921   0.9603   0.4855     C
C       0.2943   0.0617    0.262     C
C       0.2943   0.5617    0.762     C
C       0.2945    0.089   0.3624     C
C       0.2945    0.589   0.8624     C
C        0.295   0.4703   0.8774     C
C        0.295   0.9703   0.3774     C
H       0.2962   0.2288   0.1253     H
H       0.2962   0.7288   0.6253     H
C       0.2965   0.2994   0.6352     C
C       0.2965   0.7994   0.1352     C
C       0.2971   0.2009   0.9676     C
C       0.2971   0.7009   0.4676     C
C       0.2985   0.0598   0.7644     C
C       0.2985   0.5598   0.2644     C
C          0.3   0.0389   0.7307     C
C          0.3   0.5389   0.2307     C
C       0.3001   0.0951   0.2011     C
C       0.3001   0.5951   0.7011     C
H       0.3013   0.2901   0.1865     H
H       0.3013   0.7901   0.6865     H
H       0.3022   0.1316   0.4902     H
H       0.3022   0.6316   0.9902     H
H       0.3027   0.1083   0.3499     H
H       0.3027   0.6083   0.8499     H
C       0.3039   0.4085   0.2643     C
C       0.3039   0.9085   0.7643     C
C       0.3045   0.0238   0.8558     C
C       0.3045   0.5238   0.3558     C
H       0.3055   0.0855   0.0111     H
H       0.3055   0.5855   0.5111     H
H       0.3056   0.2296   0.5539     H
H       0.3056   0.7296   0.0539     H
H       0.3058   0.1975   0.1484     H
H       0.3058   0.6975   0.6484     H
C       0.3059   0.4283   0.2259     C
C       0.3059   0.9283   0.7259     C
C       0.3066      0.3   0.7172     C
C       0.3066      0.8   0.2172     C
H       0.3078   0.4378   0.7779     H
H       0.3078   0.9378   0.2779     H
C       0.3083   0.2055   0.0525     C
C       0.3083   0.7055   0.5525     C
H       0.3088   0.2729   0.0361     H
H       0.3088   0.7729   0.5361     H
H       0.3104   0.1107   0.4485     H
C       0.3104   0.4608    0.149     C
H       0.3104   0.6107   0.9485     H
C       0.3104   0.9608    0.649     C
H       0.3111   0.2765   0.7775     H
H       0.3111   0.7765   0.2775     H
H       0.3122   0.4726   0.1231     H
H       0.3122   0.9726   0.6231     H
H       0.3124    0.493   0.6884     H
H       0.3124    0.993   0.1884     H
C       0.3157   0.0881   0.5075     C
C       0.3157   0.5881   0.0075     C
C       0.3174   0.2124   0.1309     C
C       0.3174   0.7124   0.6309     C
H       0.3178   0.3895    0.257     H
H       0.3178   0.8895    0.757     H
C       0.3179   0.1918   0.0127     C
C       0.3179   0.6918   0.5127     C
H       0.3186   0.0287   0.5931     H
C       0.3186   0.0428   0.5699     C
H       0.3186   0.5287   0.0931     H
C       0.3186   0.5428   0.0699     C
H       0.3189   0.0108    0.046     H
N       0.3189   0.4507   0.8857     N
H       0.3189   0.5108    0.546     H
N       0.3189   0.9507   0.3857     N
H       0.3194   0.4177    0.289     H
H       0.3194   0.9177    0.789     H
C       0.3202   0.1155   0.4784     C
C       0.3202   0.6155   0.9784     C
H       0.3204   0.2067   0.9471     H
H       0.3204   0.7067   0.4471     H
C        0.321   0.4789   0.7115     C
C        0.321   0.9789   0.2115     C
H       0.3226   0.0007   0.4922     H
H       0.3226   0.5007   0.9922     H
C       0.3242   0.0317   0.0387     C
C       0.3242   0.5317   0.5387     C
H       0.3243   0.3875   0.8003     H
H       0.3243   0.8875   0.3003     H
H       0.3249   0.3052     0.31     H
H       0.3249   0.8052     0.81     H
H       0.3253   0.0786   0.9026     H
H       0.3253   0.5786   0.4026     H
H       0.3259   0.2656   0.1145     H
H       0.3259   0.7656   0.6145     H
H       0.3262   0.3813    0.344     H
H       0.3262   0.8813    0.844     H
C       0.3274   0.3824   0.5041     C
C       0.3274   0.8824   0.0041     C
C       0.3279   0.1955    0.091     C
H       0.3279   0.3018   0.0122     H
C       0.3279   0.6955    0.591     C
H       0.3279   0.8018   0.5122     H
H       0.3282    0.379   0.3965     H
H       0.3282    0.879   0.8965     H
C       0.3284   0.4182   0.9478     C
C       0.3284   0.9182   0.4478     C
C       0.3287   0.4197   0.4491     C
C       0.3287   0.9197   0.9491     C
C       0.3303   0.4812   0.9801     C
C       0.3303   0.9812   0.4801     C
H       0.3313   0.0428   0.0655     H
H       0.3313   0.5428   0.5655     H
H       0.3314   0.4858   0.4568     H
H       0.3314   0.9858   0.9568     H
C       0.3317   0.2832   0.1897     C
C       0.3317   0.7832   0.6897     C
N       0.3319   0.0397   0.8444     N
H       0.3319   0.2615   0.1929     H
N       0.3319   0.5397   0.3444     N
H       0.3319   0.7615   0.6929     H
H       0.3335    0.128   0.1394     H
H       0.3335    0.628   0.6394     H
H       0.3337    0.207   0.5245     H
H       0.3337    0.707   0.0245     H
C       0.3342   0.0678   0.3604     C
C       0.3342   0.5678   0.8604     C
C       0.3347    0.346   0.5682     C
C       0.3347    0.846   0.0682     C
C        0.335   0.0711   0.2802     C
C        0.335   0.5711   0.7802     C
C       0.3352   0.2221   0.5477     C
C       0.3352   0.7221   0.0477     C
C       0.3355   0.2842   0.0294     C
C       0.3355   0.7842   0.5294     C
H       0.3368   0.0935    0.949     H
H       0.3368   0.5935    0.449     H
H       0.3373   0.4832   0.9487     H
H       0.3373   0.9832   0.4487     H
C       0.3376   0.3132   0.6342     C
H       0.3376   0.4894   0.7344     H
C       0.3376   0.8132   0.1342     C
H       0.3376   0.9894   0.2344     H
H       0.3392   0.0635   0.4271     H
H       0.3392   0.5635   0.9271     H
H       0.3395   0.4633   0.6987     H
H       0.3395   0.9633   0.1987     H
C       0.3396   0.4265    0.905     C
C       0.3396   0.9265    0.405     C
C       0.3401   0.0727    0.783     C
C       0.3401   0.5727    0.283     C
C       0.3402   0.1059   0.2187     C
C       0.3402   0.6059   0.7187     C
H       0.3423   0.2232   0.4103     H
H       0.3423   0.7232   0.9103     H
C       0.3431   0.3139   0.7132     C
C       0.3431   0.8139   0.2132     C
H       0.3437    0.222   0.1454     H
H       0.3437    0.722   0.6454     H
H       0.3438   0.0345   0.6776     H
H       0.3438   0.5345   0.1776     H
C       0.3442   0.0293   0.7089     C
C       0.3442   0.5293   0.2089     C
H       0.3445   0.2728   0.3192     H
H       0.3445   0.7728   0.8192     H
C       0.3448   0.4363   0.2084     C
C       0.3448   0.9363   0.7084     C
H       0.3449   0.2923   0.2158     H
C       0.3449   0.3839   0.3699     C
H       0.3449   0.7923   0.7158     H
C       0.3449   0.8839   0.8699     C
C       0.3452   0.2822   0.1147     C
C       0.3452   0.7822   0.6147     C
C       0.3471   0.1681   0.0114     C
C       0.3471   0.6681   0.5114     C
C       0.3474    0.397   0.4701     C
C       0.3474    0.897   0.9701     C
C       0.3475   0.0898   0.9191     C
H       0.3475   0.2979   0.3564     H
C       0.3475   0.5898   0.4191     C
H       0.3475   0.7979   0.8564     H
H       0.3477   0.1935    0.382     H
H       0.3477   0.6935    0.882     H
H        0.348   0.0077   0.7121     H
H        0.348   0.5077   0.2121     H
H       0.3482   0.3915   0.9989     H
C       0.3482   0.4525   0.1705     C
H       0.3482   0.8915   0.4989     H
C       0.3482   0.9525   0.6705     C
C       0.3484   0.2941   0.3246     C
C       0.3484   0.7941   0.8246     C
H       0.3487   0.2433   0.6261     H
H       0.3487   0.7433   0.1261     H
H       0.3488   0.0331    0.018     H
H       0.3488   0.5331    0.518     H
C       0.3491    0.357   0.5276     C
C       0.3491    0.857   0.0276     C
C       0.3508   0.4345   0.4102     C
C       0.3508   0.9345   0.9102     C
H       0.3511   0.1218   0.4776     H
H       0.3511   0.6218   0.9776     H
H       0.3518   0.1008   0.7324     H
H       0.3518   0.6008   0.2324     H
C       0.3531   0.0585   0.4001     C
C       0.3531   0.5585   0.9001     C
H       0.3532   0.1088   0.9043     H
H       0.3532   0.6088   0.4043     H
C       0.3534   0.2089   0.5873     C
C       0.3534   0.7089   0.0873     C
C       0.3535   0.3959   0.9688     C
C       0.3535   0.8959   0.4688     C
H       0.3537   0.1587   0.9842     H
H       0.3537   0.6587   0.4842     H
H        0.354   0.2385   0.5381     H
H        0.354   0.7385   0.0381     H
C       0.3546   0.3231   0.5908     C
C       0.3546   0.8231   0.0908     C
C       0.3547   0.0596   0.3229     C
C       0.3547   0.5596   0.8229     C
C       0.3552   0.3815   0.8015     C
C       0.3552   0.8815   0.3015     C
C       0.3556   0.1386   0.1551     C
C       0.3556   0.6386   0.6551     C
H       0.3557   0.2717   0.0125     H
H       0.3557   0.7717   0.5125     H
H       0.3558   0.1656   0.5651     H
H       0.3558   0.6656   0.0651     H
H       0.3559   0.4732   0.9957     H
H       0.3559   0.9732   0.4957     H
C       0.3562   0.0932   0.2569     C
C       0.3562   0.5932   0.7569     C
C       0.3563   0.0542    0.556     C
C       0.3563   0.5542    0.056     C
C       0.3565   0.0616   0.8221     C
C       0.3565   0.5616   0.3221     C
C       0.3566   0.2915   0.1511     C
C       0.3566   0.7915   0.6511     C
C       0.3571   0.1718   0.0898     C
C       0.3571   0.6718   0.5898     C
C       0.3579   0.2938   0.0728     C
C       0.3579   0.7938   0.5728     C
C       0.3584   0.0785   0.5253     C
C       0.3584   0.5785   0.0253     C
C       0.3586   0.3211   0.6713     C
C       0.3586   0.8211   0.1713     C
C       0.3595   0.2236   0.6244     C
C       0.3595   0.7236   0.1244     C
H       0.3596   0.3193   0.7385     H
H       0.3596   0.8193   0.2385     H
C       0.3604   0.4159   0.3724     C
C       0.3604   0.9159   0.8724     C
H       0.3607   0.3706   0.8289     H
H       0.3607   0.8706   0.3289     H
H       0.3619   0.3687   0.7763     H
H       0.3619   0.8687   0.2763     H
C       0.3624   0.0943   0.7601     C
C       0.3624   0.5943   0.2601     C
C       0.3627   0.2114   0.3926     C
C       0.3627   0.7114   0.8926     C
C       0.3628    0.482   0.4521     C
C       0.3628    0.982   0.9521     C
C       0.3633     0.13   0.1952     C
C       0.3633     0.63   0.6952     C
H       0.3647   0.3376   0.2671     H
H       0.3647   0.8376   0.7671     H
C       0.3651   0.1781   0.5885     C
C       0.3651   0.6781   0.0885     C
H       0.3664   0.3501   0.0178     H
H       0.3664   0.8501   0.5178     H
C       0.3667   0.1581     0.05     C
C       0.3667   0.6581     0.55     C
H       0.3687   0.0395   0.7234     H
C       0.3687   0.4618   0.4117     C
H       0.3687   0.5395   0.2234     H
C       0.3687   0.9618   0.9117     C
H       0.3704   0.3707   0.3676     H
H       0.3704   0.8707   0.8676     H
H        0.371   0.4305   0.2231     H
H        0.371   0.9305   0.7231     H
H       0.3719   0.2509   0.6972     H
H       0.3719   0.7509   0.1972     H
H       0.3729   0.2231   0.3674     H
H       0.3729   0.7231   0.8674     H
C       0.3738   0.4112   0.8831     C
C       0.3738   0.9112   0.3831     C
H       0.3742   0.1406    0.711     H
H       0.3742   0.6406    0.211     H
H       0.3749   0.2222   0.7281     H
H       0.3749   0.7222   0.2281     H
H       0.3751   0.4722   0.4781     H
H       0.3751   0.9722   0.9781     H
H       0.3758   0.3906    0.461     H
H       0.3758   0.8906    0.961     H
C       0.3762   0.1612   0.1331     C
C       0.3762   0.6612   0.6331     C
H       0.3771   0.4731   0.1174     H
H       0.3771   0.9731   0.6174     H
H       0.3781   0.0009   0.9472     H
H       0.3781   0.5009   0.4472     H
H        0.379   0.1805   0.4731     H
H        0.379   0.6805   0.9731     H
H       0.3796   0.1207   0.6176     H
H       0.3796   0.6207   0.1176     H
C       0.3813   0.2118   0.6617     C
H       0.3813   0.2895   0.4734     H
C       0.3813   0.7118   0.1617     C
H       0.3813   0.7895   0.9734     H
C       0.3833   0.4081      0.8     C
C       0.3833   0.9081      0.3     C
H       0.3836   0.1001   0.2678     H
H       0.3836   0.6001   0.7678     H
C       0.3849   0.4281   0.3385     C
C       0.3849   0.9281   0.8385     C
H       0.3853   0.0876   0.5171     H
H       0.3853   0.5876   0.0171     H
C       0.3867     0.38   0.9452     C
C       0.3867     0.88   0.4452     C
C       0.3872    0.232   0.7021     C
C       0.3872    0.732   0.2021     C
C       0.3873   0.4614   0.1426     C
C       0.3873   0.9614   0.6426     C
C       0.3876   0.3443   0.5101     C
C       0.3876   0.8443   0.0101     C
H       0.3881   0.1187   0.0263     H
H       0.3881   0.6187   0.5263     H
H       0.3893   0.1206   0.0789     H
H       0.3893   0.6206   0.5789     H
C       0.3896   0.1659   0.6224     C
C       0.3896   0.6659   0.1224     C
H       0.3904   0.0693   0.9885     H
H       0.3904   0.5693   0.4885     H
C       0.3905   0.4736   0.3744     C
C       0.3905   0.9736   0.8744     C
C       0.3914   0.0711   0.9213     C
C       0.3914   0.5711   0.4213     C
C       0.3916   0.3285   0.2753     C
C       0.3916   0.8285   0.7753     C
C       0.3921   0.0438   0.3228     C
C       0.3921   0.5438   0.8228     C
C       0.3929   0.4218   0.8398     C
C       0.3929   0.9218   0.3398     C
C       0.3934   0.0415   0.4011     C
C       0.3934   0.5415   0.9011     C
C       0.3935   0.3116   0.5721     C
C       0.3935   0.8116   0.0721     C
C       0.3937   0.3042    0.306     C
C       0.3937   0.8042    0.806     C
C       0.3938   0.3432   0.0069     C
C       0.3938   0.8432   0.5069     C
H       0.3941   0.2232   0.2457     H
H       0.3941   0.7232   0.7457     H
H       0.3942   0.4156   0.3151     H
H       0.3942   0.9156   0.8151     H
H       0.3943   0.0217   0.2625     H
H       0.3943   0.5217   0.7625     H
C       0.3944   0.3886   0.9051     C
C       0.3944   0.8886   0.4051     C
C       0.3948   0.1315   0.0515     C
C       0.3948   0.6315   0.5515     C
C       0.3953   0.3096   0.0729     C
C       0.3953   0.8096   0.5729     C
C       0.3954   0.0731   0.8408     C
C       0.3954   0.5731   0.3408     C
H        0.396   0.4885   0.2881     H
H        0.396   0.9885   0.7881     H
H       0.3963   0.4087   0.7342     H
H       0.3963   0.9087   0.2342     H
C       0.3965   0.1459   0.2188     C
C       0.3965   0.6459   0.7188     C
C       0.3966   0.4589   0.3373     C
C       0.3966   0.9589   0.8373     C
H       0.3968   0.3588   0.6543     H
H       0.3968   0.8588   0.1543     H
C       0.3969   0.3085   0.1501     C
C       0.3969   0.8085   0.6501     C
H       0.3982   0.3508   0.4824     H
H       0.3982   0.8508   0.9824     H
H       0.3989   0.3718   0.2276     H
H       0.3989   0.8718   0.7276     H
C       0.3992   0.1845   0.6602     C
C       0.3992   0.6845   0.1602     C
C       0.4009    0.107   0.7776     C
C       0.4009    0.607   0.2776     C
H       0.4012   0.2831    0.768     H
H       0.4012   0.7831    0.268     H
H       0.4013   0.4933   0.3761     H
H       0.4013   0.9933   0.8761     H
C       0.4016   0.0441   0.5746     C
C       0.4016   0.5441   0.0746     C
H       0.4018   0.1415   0.2489     H
C       0.4018   0.2025   0.4205     C
H       0.4018   0.6415   0.7489     H
C       0.4018   0.7025   0.9205     C
H        0.402   0.2577   0.4621     H
H        0.402   0.7577   0.9621     H
H       0.4023   0.4435    0.132     H
H       0.4023   0.9435    0.632     H
H       0.4025   0.0479   0.6064     H
C       0.4025   0.3398   0.6691     C
H       0.4025   0.5479   0.1064     H
C       0.4025   0.8398   0.1691     C
C       0.4026    0.147   0.7201     C
C       0.4026    0.647   0.2201     C
C       0.4029   0.4181   0.7614     C
C       0.4029   0.9181   0.2614     C
C       0.4048   0.0322   0.3647     C
C       0.4048   0.5322   0.8647     C
H       0.4051   0.0423   0.4658     H
C       0.4051   0.1339   0.6199     C
H       0.4051   0.5423   0.9658     H
C       0.4051   0.6339   0.1199     C
C       0.4052   0.1863   0.4584     C
C       0.4052   0.6863   0.9584     C
H       0.4055   0.0228   0.5692     H
H       0.4055   0.5228   0.0692     H
C       0.4058   0.2793   0.4589     C
C       0.4058   0.7793   0.9589     C
H       0.4062   0.2845   0.4276     H
H       0.4062   0.7845   0.9276     H
H       0.4063    0.472   0.8954     H
H       0.4063    0.972   0.3954     H
C       0.4069   0.0639   0.9632     C
C       0.4069   0.5639   0.4632     C
H       0.4077   0.4732   0.1603     H
H       0.4077   0.9732   0.6603     H
C       0.4098   0.3559   0.9687     C
C       0.4098   0.8559   0.4687     C
C       0.4099   0.3227    0.533     C
C       0.4099   0.8227    0.033     C
C       0.4104   0.1765    0.155     C
C       0.4104   0.6765    0.655     C
H       0.4105   0.2133   0.9487     H
H       0.4105   0.7133   0.4487     H
H       0.4108   0.3135   0.1771     H
H       0.4108   0.8135   0.6771     H
C       0.4124   0.0632   0.8842     C
H       0.4124   0.2394   0.9844     H
C       0.4124   0.5632   0.3842     C
H       0.4124   0.7394   0.4844     H
H       0.4127   0.2332   0.1987     H
H       0.4127   0.7332   0.6987     H
H       0.4132   0.3435    0.699     H
H       0.4132   0.8435    0.199     H
C       0.4145   0.0342   0.2794     C
C       0.4145   0.5342   0.7794     C
C       0.4148   0.4721   0.2977     C
C       0.4148   0.9721   0.7977     C
C        0.415   0.3211   0.0302     C
C        0.415   0.8211   0.5302     C
C       0.4153    0.096   0.8182     C
C       0.4153    0.596   0.3182     C
C       0.4158   0.3178   0.1104     C
C       0.4158   0.8178   0.6104     C
H       0.4163    0.457   0.2745     H
H       0.4163    0.957   0.7745     H
H       0.4165    0.378   0.8894     H
H       0.4165    0.878   0.3894     H
H       0.4181   0.0115   0.4429     H
N       0.4181   0.2897   0.5944     N
H       0.4181   0.5115   0.9429     H
N       0.4181   0.7897   0.0944     N
C       0.4183   0.0332   0.4397     C
C       0.4183   0.5332   0.9397     C
H       0.4186   0.2358   0.7068     H
H       0.4186   0.7358   0.2068     H
H       0.4187   0.2928   0.8155     H
H       0.4187   0.7928   0.3155     H
C       0.4197   0.2312   0.2301     C
C       0.4197   0.7312   0.7301     C
C       0.4213   0.1697   0.6991     C
C       0.4213   0.6697   0.1991     C
C       0.4216   0.1682   0.1978     C
C       0.4216   0.6682   0.6978     C
H       0.4218    0.129   0.6465     H
H       0.4218    0.629   0.1465     H
H       0.4221   0.0518   0.2622     H
C       0.4221   0.4455    0.841     C
H       0.4221   0.5518   0.7622     H
C       0.4221   0.9455    0.341     C
C       0.4226   0.1324   0.7541     C
C       0.4226   0.6324   0.2541     C
H       0.4238   0.1313    0.594     H
H       0.4238   0.6313    0.094     H
H       0.4241   0.0156   0.3645     H
H       0.4241   0.5156   0.8645     H
H       0.4247   0.3286   0.6526     H
H       0.4247   0.8286   0.1526     H
H       0.4251   0.0552     0.56     H
H       0.4251   0.5552     0.06     H
H       0.4257   0.1375   0.0503     H
H       0.4257   0.6375   0.5503     H
C       0.4258   0.2817   0.7887     C
C       0.4258   0.7817   0.2887     C
H       0.4274   0.2507   0.2422     H
H       0.4274   0.7507   0.7422     H
C        0.429   0.2289   0.9615     C
C        0.429   0.7289   0.4615     C
H       0.4296   0.4567   0.6971     H
H       0.4296   0.9567   0.1971     H
C       0.4298   0.3655   0.2284     C
C       0.4298   0.8655   0.7284     C
H       0.4306   0.1677    0.539     H
H       0.4306   0.6677    0.039     H
N       0.4311   0.2007   0.1357     N
H       0.4311   0.2608    0.796     H
N       0.4311   0.7007   0.6357     N
H       0.4311   0.7608    0.296     H
H       0.4314   0.2787   0.3431     H
C       0.4314   0.2928   0.3199     C
H       0.4314   0.7787   0.8431     H
C       0.4314   0.7928   0.8199     C
C       0.4321   0.4418   0.7627     C
C       0.4321   0.9418   0.2627     C
H       0.4322   0.1395    0.507     H
H       0.4322   0.6395    0.007     H
C       0.4326   0.4624   0.8809     C
C       0.4326   0.9624   0.3809     C
C       0.4343   0.3381   0.2575     C
C       0.4343   0.8381   0.7575     C
H       0.4376    0.243   0.9384     H
H       0.4376    0.743   0.4384     H
H       0.4378   0.2226   0.3731     H
H       0.4378   0.7226   0.8731     H
H       0.4389   0.0265   0.0275     H
H       0.4389   0.5265   0.5275     H
C       0.4396   0.2108    0.399     C
H       0.4396   0.3607   0.1985     H
C       0.4396   0.7108    0.899     C
H       0.4396   0.8607   0.6985     H
H       0.4412   0.0229   0.2861     H
H       0.4412   0.5229   0.7861     H
C       0.4417   0.4555   0.8025     C
C       0.4417   0.9555   0.3025     C
H       0.4422   0.1878   0.0279     H
H       0.4422   0.6878   0.5279     H
C       0.4434     0.05   0.9672     C
C       0.4434     0.55   0.4672     C
C       0.4441   0.1783   0.4759     C
C       0.4441   0.6783   0.9759     C
H       0.4442   0.4475   0.8984     H
H       0.4442   0.9475   0.3984     H
H       0.4444   0.4796   0.3039     H
H       0.4444   0.9796   0.8039     H
H       0.4445   0.3355   0.7611     H
H       0.4445   0.8355   0.2611     H
C       0.4455   0.2738   0.6058     C
C       0.4455   0.7738   0.1058     C
C       0.4461   0.1585   0.5143     C
C       0.4461   0.6585   0.0143     C
H       0.4473   0.3583   0.0999     H
H       0.4473   0.8583   0.5999     H
H       0.4478   0.3816   0.2402     H
H       0.4478   0.8816   0.7402     H
H       0.4487   0.0401   0.4365     H
H       0.4487   0.5401   0.9365     H
C       0.4499   0.3451   0.9511     C
C       0.4499   0.8451   0.4511     C
C         0.45   0.2889   0.4807     C
C         0.45   0.7889   0.9807     C
C       0.4515   0.3098   0.5144     C
C       0.4515   0.8098   0.0144     C
C       0.4529   0.4509   0.7176     C
C       0.4529   0.9509   0.2176     C
C       0.4535   0.0494   0.8852     C
C       0.4535   0.5494   0.3852     C
H       0.4538   0.4788   0.8753     H
H       0.4538   0.9788   0.3753     H
C        0.455   0.2203   0.1274     C
C        0.455   0.7203   0.6274     C
C       0.4555    0.339   0.1124     C
C       0.4555    0.839   0.6124     C
C       0.4557   0.3117    0.012     C
C       0.4557   0.8117    0.512     C
C       0.4579   0.2103   0.2355     C
C       0.4579   0.7103   0.7355     C
C       0.4581   0.1814   0.2221     C
C       0.4581   0.6814   0.7221     C
H       0.4597   0.2766   0.9081     H
H       0.4597   0.7766   0.4081     H
C       0.4604     0.04   0.0141     C
C       0.4604     0.54   0.5141     C
H       0.4609   0.3081   0.8837     H
H       0.4609   0.8081   0.3837     H
H       0.4617   0.3532   0.9248     H
H       0.4617   0.4718   0.8034     H
H       0.4617   0.8532   0.4248     H
H       0.4617   0.9718   0.3034     H
H       0.4626    0.346   0.5761     H
H       0.4626    0.846   0.0761     H
C       0.4639   0.1789    0.713     C
C       0.4639   0.6789    0.213     C
H       0.4641   0.0291   0.8282     H
H       0.4641   0.0575   0.0329     H
H       0.4641   0.5291   0.3282     H
H       0.4641   0.5575   0.5329     H
H       0.4646   0.3416   0.1431     H
H       0.4646   0.8416   0.6431     H
H       0.4647   0.1947   0.8261     H
H       0.4647   0.6947   0.3261     H
C       0.4653   0.1411   0.7667     C
C       0.4653   0.6411   0.2667     C
C       0.4668   0.0419   0.9297     C
C       0.4668   0.5419   0.4297     C
H       0.4684   0.2203   0.7898     H
H       0.4684   0.7203   0.2898     H
C       0.4691   0.2955   0.7665     C
C       0.4691   0.7955   0.2665     C
C       0.4693   0.3236    0.754     C
H       0.4693   0.4341   0.7055     H
C       0.4693   0.8236    0.254     C
H       0.4693   0.9341   0.2055     H
C       0.4696   0.1938   0.0158     C
C       0.4696   0.6938   0.5158     C
C       0.4711   0.2147   0.9822     C
C       0.4711   0.7147   0.4822     C
C       0.4713   0.3242   0.2655     C
C       0.4713   0.8242   0.7655     C
C       0.4716   0.3225   0.9729     C
C       0.4716   0.8225   0.4729     C
H       0.4729   0.4678   0.7221     H
H       0.4729   0.9678   0.2221     H
H        0.473   0.1272   0.1992     H
H        0.473   0.6272   0.6992     H
C       0.4734   0.3019   0.2996     C
C       0.4734   0.8019   0.7996     C
H        0.475   0.3688   0.6942     H
H        0.475   0.8688   0.1942     H
H       0.4769   0.1551   0.5224     H
H       0.4769   0.6551   0.0224     H
N       0.4771   0.2888   0.0354     N
N       0.4771   0.7888   0.5354     N
C       0.4776     0.29   0.8902     C
C       0.4776     0.79   0.3902     C
H       0.4799   0.3305   0.0955     H
H       0.4799   0.8305   0.5955     H
H         0.48   0.1301    0.789     H
H         0.48   0.6301    0.289     H
C       0.4802   0.0426   0.8478     C
C       0.4802   0.5426   0.3478     C
C       0.4808   0.2019   0.4151     C
C       0.4808   0.7019   0.9151     C
C       0.4832   0.2107   0.8147     C
C       0.4832   0.7107   0.3147     C
N       0.4836    0.203   0.6884     N
N       0.4836    0.703   0.1884     N
C       0.4849    0.188   0.4541     C
C       0.4849    0.688   0.9541     C
H       0.4855   0.2801   0.8626     H
H       0.4855   0.7801   0.3626     H
C       0.4859   0.1645    0.748     C
C       0.4859   0.6645    0.248     C
H       0.4873   0.0609    0.832     H
H       0.4873   0.5609    0.332     H
H       0.4878   0.2624   0.4416     H
H       0.4878   0.7624   0.9416     H
C        0.488   0.2726   0.0635     C
C        0.488   0.7726   0.5635     C
H       0.4883   0.2254   0.8379     H
H       0.4883   0.7254   0.3379     H
H       0.4886   0.0297    0.011     H
H       0.4886   0.5297    0.511     H
C       0.4888   0.2767   0.4646     C
C       0.4888   0.7767   0.9646     C
H       0.4892   0.2372   0.2803     H
H       0.4892   0.7372   0.7803     H
H       0.4897    0.143    0.061     H
H       0.4897    0.643    0.561     H
C       0.4916   0.3185   0.5319     C
C       0.4916   0.8185   0.0319     C
C       0.4924    0.221   0.6654     C
C       0.4924    0.721   0.1654     C
H       0.4926   0.4671   0.3575     H
H       0.4926   0.9671   0.8575     H
C       0.4927   0.3396   0.5691     C
C       0.4927   0.8396   0.0691     C
C       0.4928   0.2196   0.2633     C
C       0.4928   0.7196   0.7633     C
H       0.4931   0.0308   0.9335     H
H       0.4931   0.5308   0.4335     H
H       0.4943   0.1701   0.0949     H
H       0.4943   0.6701   0.5949     H
H       0.4952   0.3809   0.7394     H
H       0.4952   0.8809   0.2394     H
C       0.4966   0.1633    0.231     C
C       0.4966   0.6633    0.731     C
Cu      0.4987  0.25012  0.61646    Cu
Cu      0.4987  0.75012  0.11646    Cu
C       0.4999   0.3674   0.7146     C
C       0.4999   0.8674   0.2146     C
C       0.5001   0.1326   0.2146     C
C       0.5001   0.6326   0.7146     C
Cu      0.5013  0.24988  0.11646    Cu
Cu      0.5013  0.74988  0.61646    Cu
C       0.5034   0.3367    0.731     C
C       0.5034   0.8367    0.231     C
H       0.5048   0.1191   0.2394     H
H       0.5048   0.6191   0.7394     H
H       0.5057   0.3299   0.5949     H
H       0.5057   0.8299   0.0949     H
H       0.5069   0.4692   0.4335     H
H       0.5069   0.9692   0.9335     H
C       0.5072   0.2804   0.7633     C
C       0.5072   0.7804   0.2633     C
C       0.5073   0.1604   0.0691     C
C       0.5073   0.6604   0.5691     C
H       0.5074   0.0329   0.8575     H
H       0.5074   0.5329   0.3575     H
C       0.5076    0.279   0.1654     C
C       0.5076    0.779   0.6654     C
C       0.5084   0.1815   0.0319     C
C       0.5084   0.6815   0.5319     C
H       0.5103    0.357    0.561     H
H       0.5103    0.857    0.061     H
H       0.5108   0.2628   0.7803     H
H       0.5108   0.7628   0.2803     H
C       0.5112   0.2233   0.9646     C
C       0.5112   0.7233   0.4646     C
H       0.5114   0.4703    0.511     H
H       0.5114   0.9703    0.011     H
H       0.5117   0.2746   0.3379     H
H       0.5117   0.7746   0.8379     H
C        0.512   0.2274   0.5635     C
C        0.512   0.7274   0.0635     C
H       0.5122   0.2376   0.9416     H
H       0.5122   0.7376   0.4416     H
H       0.5127   0.4391    0.332     H
H       0.5127   0.9391    0.832     H
C       0.5141   0.3355    0.248     C
C       0.5141   0.8355    0.748     C
H       0.5145   0.2199   0.3626     H
H       0.5145   0.7199   0.8626     H
C       0.5151    0.312   0.9541     C
C       0.5151    0.812   0.4541     C
N       0.5164    0.297   0.1884     N
N       0.5164    0.797   0.6884     N
C       0.5168   0.2893   0.3147     C
C       0.5168   0.7893   0.8147     C
C       0.5192   0.2981   0.9151     C
C       0.5192   0.7981   0.4151     C
C       0.5198   0.4574   0.3478     C
C       0.5198   0.9574   0.8478     C
H         0.52   0.3699    0.289     H
H         0.52   0.8699    0.789     H
H       0.5201   0.1695   0.5955     H
H       0.5201   0.6695   0.0955     H
C       0.5224     0.21   0.3902     C
C       0.5224     0.71   0.8902     C
N       0.5229   0.2112   0.5354     N
N       0.5229   0.7112   0.0354     N
H       0.5231   0.3449   0.0224     H
H       0.5231   0.8449   0.5224     H
H        0.525   0.1312   0.1942     H
H        0.525   0.6312   0.6942     H
C       0.5266   0.1981   0.7996     C
C       0.5266   0.6981   0.2996     C
H        0.527   0.3728   0.6992     H
H        0.527   0.8728   0.1992     H
H       0.5271   0.0322   0.2221     H
H       0.5271   0.5322   0.7221     H
C       0.5284   0.1775   0.4729     C
C       0.5284   0.6775   0.9729     C
C       0.5287   0.1758   0.7655     C
C       0.5287   0.6758   0.2655     C
C       0.5289   0.2853   0.4822     C
C       0.5289   0.7853   0.9822     C
C       0.5304   0.3062   0.5158     C
C       0.5304   0.8062   0.0158     C
H       0.5307   0.0659   0.2055     H
C       0.5307   0.1764    0.254     C
H       0.5307   0.5659   0.7055     H
C       0.5307   0.6764    0.754     C
C       0.5309   0.2045   0.2665     C
C       0.5309   0.7045   0.7665     C
H       0.5316   0.2797   0.2898     H
H       0.5316   0.7797   0.7898     H
C       0.5332   0.4581   0.4297     C
C       0.5332   0.9581   0.9297     C
C       0.5347   0.3589   0.2667     C
C       0.5347   0.8589   0.7667     C
H       0.5353   0.3053   0.3261     H
H       0.5353   0.8053   0.8261     H
H       0.5354   0.1584   0.6431     H
H       0.5354   0.6584   0.1431     H
H       0.5359   0.4425   0.5329     H
H       0.5359   0.4709   0.3282     H
H       0.5359   0.9425   0.0329     H
H       0.5359   0.9709   0.8282     H
C       0.5361   0.3211    0.213     C
C       0.5361   0.8211    0.713     C
H       0.5374    0.154   0.0761     H
H       0.5374    0.654   0.5761     H
H       0.5383   0.0282   0.3034     H
H       0.5383   0.1468   0.4248     H
H       0.5383   0.5282   0.8034     H
H       0.5383   0.6468   0.9248     H
H       0.5391   0.1919   0.3837     H
H       0.5391   0.6919   0.8837     H
C       0.5396     0.46   0.5141     C
C       0.5396     0.96   0.0141     C
H       0.5403   0.2234   0.4081     H
H       0.5403   0.7234   0.9081     H
C       0.5419   0.3186   0.7221     C
C       0.5419   0.8186   0.2221     C
C       0.5421   0.2897   0.7355     C
C       0.5421   0.7897   0.2355     C
C       0.5443   0.1883    0.512     C
C       0.5443   0.6883    0.012     C
C       0.5445    0.161   0.6124     C
C       0.5445    0.661   0.1124     C
C        0.545   0.2797   0.6274     C
C        0.545   0.7797   0.1274     C
H       0.5462   0.0212   0.3753     H
H       0.5462   0.5212   0.8753     H
C       0.5465   0.4506   0.3852     C
C       0.5465   0.9506   0.8852     C
C       0.5471   0.0491   0.2176     C
C       0.5471   0.5491   0.7176     C
C       0.5485   0.1902   0.0144     C
C       0.5485   0.6902   0.5144     C
C         0.55   0.2111   0.9807     C
C         0.55   0.7111   0.4807     C
C       0.5501   0.1549   0.4511     C
C       0.5501   0.6549   0.9511     C
H       0.5513   0.4599   0.9365     H
H       0.5513   0.9599   0.4365     H
H       0.5522   0.1184   0.7402     H
H       0.5522   0.6184   0.2402     H
H       0.5527   0.1417   0.5999     H
H       0.5527   0.6417   0.0999     H
C       0.5539   0.3415   0.0143     C
C       0.5539   0.8415   0.5143     C
C       0.5545   0.2262   0.1058     C
C       0.5545   0.7262   0.6058     C
H       0.5555   0.1645   0.2611     H
H       0.5555   0.6645   0.7611     H
H       0.5556   0.0204   0.8039     H
H       0.5556   0.5204   0.3039     H
H       0.5558   0.0525   0.3984     H
H       0.5558   0.5525   0.8984     H
C       0.5559   0.3217   0.9759     C
C       0.5559   0.8217   0.4759     C
C       0.5566     0.45   0.4672     C
C       0.5566     0.95   0.9672     C
H       0.5578   0.3122   0.5279     H
H       0.5578   0.8122   0.0279     H
C       0.5583   0.0445   0.3025     C
C       0.5583   0.5445   0.8025     C
H       0.5588   0.4771   0.7861     H
H       0.5588   0.9771   0.2861     H
H       0.5604   0.1393   0.6985     H
C       0.5604   0.2892    0.899     C
H       0.5604   0.6393   0.1985     H
C       0.5604   0.7892    0.399     C
H       0.5611   0.4735   0.5275     H
H       0.5611   0.9735   0.0275     H
H       0.5622   0.2774   0.8731     H
H       0.5622   0.7774   0.3731     H
H       0.5624    0.257   0.4384     H
H       0.5624    0.757   0.9384     H
C       0.5657   0.1619   0.7575     C
C       0.5657   0.6619   0.2575     C
C       0.5674   0.0376   0.3809     C
C       0.5674   0.5376   0.8809     C
H       0.5678   0.3605    0.007     H
H       0.5678   0.8605    0.507     H
C       0.5679   0.0582   0.2627     C
C       0.5679   0.5582   0.7627     C
C       0.5686   0.2072   0.8199     C
H       0.5686   0.2213   0.8431     H
C       0.5686   0.7072   0.3199     C
H       0.5686   0.7213   0.3431     H
H       0.5689   0.2392    0.296     H
N       0.5689   0.2993   0.6357     N
H       0.5689   0.7392    0.796     H
N       0.5689   0.7993   0.1357     N
H       0.5694   0.3323    0.039     H
H       0.5694   0.8323    0.539     H
C       0.5702   0.1345   0.7284     C
C       0.5702   0.6345   0.2284     C
H       0.5704   0.0433   0.1971     H
H       0.5704   0.5433   0.6971     H
C        0.571   0.2711   0.4615     C
C        0.571   0.7711   0.9615     C
H       0.5726   0.2493   0.7422     H
H       0.5726   0.7493   0.2422     H
C       0.5742   0.2183   0.2887     C
C       0.5742   0.7183   0.7887     C
H       0.5743   0.3625   0.5503     H
H       0.5743   0.8625   0.0503     H
H       0.5749   0.4448     0.06     H
H       0.5749   0.9448     0.56     H
H       0.5753   0.1714   0.1526     H
H       0.5753   0.6714   0.6526     H
H       0.5759   0.4844   0.8645     H
H       0.5759   0.9844   0.3645     H
H       0.5762   0.3687    0.094     H
H       0.5762   0.8687    0.594     H
C       0.5774   0.3676   0.2541     C
C       0.5774   0.8676   0.7541     C
C       0.5779   0.0545    0.341     C
H       0.5779   0.4482   0.7622     H
C       0.5779   0.5545    0.841     C
H       0.5779   0.9482   0.2622     H
H       0.5782    0.371   0.1465     H
H       0.5782    0.871   0.6465     H
C       0.5784   0.3318   0.6978     C
C       0.5784   0.8318   0.1978     C
C       0.5787   0.3303   0.1991     C
C       0.5787   0.8303   0.6991     C
C       0.5803   0.2688   0.7301     C
C       0.5803   0.7688   0.2301     C
H       0.5813   0.2072   0.3155     H
H       0.5813   0.7072   0.8155     H
H       0.5814   0.2642   0.2068     H
H       0.5814   0.7642   0.7068     H
C       0.5817   0.4668   0.9397     C
C       0.5817   0.9668   0.4397     C
N       0.5819   0.2103   0.0944     N
H       0.5819   0.4885   0.9429     H
N       0.5819   0.7103   0.5944     N
H       0.5819   0.9885   0.4429     H
H       0.5835    0.122   0.3894     H
H       0.5835    0.622   0.8894     H
H       0.5837    0.043   0.7745     H
H       0.5837    0.543   0.2745     H
C       0.5842   0.1822   0.6104     C
C       0.5842   0.6822   0.1104     C
C       0.5847    0.404   0.3182     C
C       0.5847    0.904   0.8182     C
C        0.585   0.1789   0.5302     C
C        0.585   0.6789   0.0302     C
C       0.5852   0.0279   0.7977     C
C       0.5852   0.5279   0.2977     C
C       0.5855   0.4658   0.7794     C
C       0.5855   0.9658   0.2794     C
H       0.5868   0.1565    0.199     H
H       0.5868   0.6565    0.699     H
H       0.5873   0.2668   0.6987     H
H       0.5873   0.7668   0.1987     H
H       0.5876   0.2606   0.4844     H
C       0.5876   0.4368   0.3842     C
H       0.5876   0.7606   0.9844     H
C       0.5876   0.9368   0.8842     C
H       0.5892   0.1865   0.6771     H
H       0.5892   0.6865   0.1771     H
H       0.5895   0.2867   0.4487     H
H       0.5895   0.7867   0.9487     H
C       0.5896   0.3235    0.655     C
C       0.5896   0.8235    0.155     C
C       0.5901   0.1773    0.033     C
C       0.5901   0.6773    0.533     C
C       0.5902   0.1441   0.4687     C
C       0.5902   0.6441   0.9687     C
H       0.5923   0.0268   0.6603     H
H       0.5923   0.5268   0.1603     H
C       0.5931   0.4361   0.4632     C
C       0.5931   0.9361   0.9632     C
H       0.5937    0.028   0.3954     H
H       0.5937    0.528   0.8954     H
H       0.5938   0.2155   0.9276     H
H       0.5938   0.7155   0.4276     H
C       0.5942   0.2207   0.9589     C
C       0.5942   0.7207   0.4589     C
H       0.5945   0.4772   0.0692     H
H       0.5945   0.9772   0.5692     H
C       0.5948   0.3137   0.9584     C
C       0.5948   0.8137   0.4584     C
C       0.5949   0.3661   0.1199     C
H       0.5949   0.4577   0.9658     H
C       0.5949   0.8661   0.6199     C
H       0.5949   0.9577   0.4658     H
C       0.5952   0.4678   0.8647     C
C       0.5952   0.9678   0.3647     C
C       0.5971   0.0819   0.2614     C
C       0.5971   0.5819   0.7614     C
C       0.5974    0.353   0.2201     C
C       0.5974    0.853   0.7201     C
C       0.5975   0.1602   0.1691     C
H       0.5975   0.4521   0.1064     H
C       0.5975   0.6602   0.6691     C
H       0.5975   0.9521   0.6064     H
H       0.5977   0.0565    0.632     H
H       0.5977   0.5565    0.132     H
H        0.598   0.2423   0.9621     H
H        0.598   0.7423   0.4621     H
C       0.5982   0.2975   0.9205     C
H       0.5982   0.3585   0.7489     H
C       0.5982   0.7975   0.4205     C
H       0.5982   0.8585   0.2489     H
C       0.5984   0.4559   0.0746     C
C       0.5984   0.9559   0.5746     C
H       0.5987   0.0067   0.8761     H
H       0.5987   0.5067   0.3761     H
H       0.5988   0.2169    0.268     H
H       0.5988   0.7169    0.768     H
C       0.5991    0.393   0.2776     C
C       0.5991    0.893   0.7776     C
C       0.6008   0.3155   0.1602     C
C       0.6008   0.8155   0.6602     C
H       0.6011   0.1282   0.7276     H
H       0.6011   0.6282   0.2276     H
H       0.6018   0.1492   0.9824     H
H       0.6018   0.6492   0.4824     H
C       0.6031   0.1915   0.6501     C
C       0.6031   0.6915   0.1501     C
H       0.6032   0.1412   0.1543     H
H       0.6032   0.6412   0.6543     H
C       0.6034   0.0411   0.8373     C
C       0.6034   0.5411   0.3373     C
C       0.6035   0.3541   0.7188     C
C       0.6035   0.8541   0.2188     C
H       0.6037   0.0913   0.2342     H
H       0.6037   0.5913   0.7342     H
H        0.604   0.0115   0.7881     H
H        0.604   0.5115   0.2881     H
C       0.6046   0.4269   0.3408     C
C       0.6046   0.9269   0.8408     C
C       0.6047   0.1904   0.5729     C
C       0.6047   0.6904   0.0729     C
C       0.6052   0.3685   0.5515     C
C       0.6052   0.8685   0.0515     C
C       0.6056   0.1114   0.4051     C
C       0.6056   0.6114   0.9051     C
H       0.6057   0.4783   0.7625     H
H       0.6057   0.9783   0.2625     H
H       0.6058   0.0844   0.8151     H
H       0.6058   0.5844   0.3151     H
H       0.6059   0.2768   0.7457     H
H       0.6059   0.7768   0.2457     H
C       0.6062   0.1568   0.5069     C
C       0.6062   0.6568   0.0069     C
C       0.6063   0.1958    0.806     C
C       0.6063   0.6958    0.306     C
C       0.6065   0.1884   0.0721     C
C       0.6065   0.6884   0.5721     C
C       0.6066   0.4585   0.9011     C
C       0.6066   0.9585   0.4011     C
C       0.6071   0.0782   0.3398     C
C       0.6071   0.5782   0.8398     C
C       0.6079   0.4562   0.8228     C
C       0.6079   0.9562   0.3228     C
C       0.6084   0.1715   0.7753     C
C       0.6084   0.6715   0.2753     C
C       0.6086   0.4289   0.4213     C
C       0.6086   0.9289   0.9213     C
C       0.6095   0.0264   0.8744     C
C       0.6095   0.5264   0.3744     C
H       0.6096   0.4307   0.4885     H
H       0.6096   0.9307   0.9885     H
C       0.6104   0.3341   0.1224     C
C       0.6104   0.8341   0.6224     C
H       0.6107   0.3794   0.5789     H
H       0.6107   0.8794   0.0789     H
H       0.6119   0.3813   0.5263     H
H       0.6119   0.8813   0.0263     H
C       0.6124   0.1557   0.0101     C
C       0.6124   0.6557   0.5101     C
C       0.6127   0.0386   0.6426     C
C       0.6127   0.5386   0.1426     C
C       0.6128    0.268   0.2021     C
C       0.6128    0.768   0.7021     C
C       0.6133     0.12   0.4452     C
C       0.6133     0.62   0.9452     C
H       0.6147   0.4124   0.0171     H
H       0.6147   0.9124   0.5171     H
C       0.6151   0.0719   0.8385     C
C       0.6151   0.5719   0.3385     C
H       0.6164   0.3999   0.7678     H
H       0.6164   0.8999   0.2678     H
C       0.6167   0.0919      0.3     C
C       0.6167   0.5919      0.8     C
H       0.6187   0.2105   0.9734     H
C       0.6187   0.2882   0.1617     C
H       0.6187   0.7105   0.4734     H
C       0.6187   0.7882   0.6617     C
H       0.6204   0.3793   0.1176     H
H       0.6204   0.8793   0.6176     H
H        0.621   0.3195   0.9731     H
H        0.621   0.8195   0.4731     H
H       0.6219   0.4991   0.4472     H
H       0.6219   0.9991   0.9472     H
H       0.6229   0.0269   0.6174     H
H       0.6229   0.5269   0.1174     H
C       0.6238   0.3388   0.6331     C
C       0.6238   0.8388   0.1331     C
H       0.6242   0.1094    0.961     H
H       0.6242   0.6094    0.461     H
H       0.6249   0.0278   0.9781     H
H       0.6249   0.5278   0.4781     H
H       0.6251   0.2778   0.2281     H
H       0.6251   0.7778   0.7281     H
H       0.6258   0.3594    0.211     H
H       0.6258   0.8594    0.711     H
C       0.6262   0.0888   0.3831     C
C       0.6262   0.5888   0.8831     C
H       0.6271   0.2769   0.8674     H
H       0.6271   0.7769   0.3674     H
H       0.6281   0.2491   0.1972     H
H       0.6281   0.7491   0.6972     H
H        0.629   0.0695   0.7231     H
H        0.629   0.5695   0.2231     H
H       0.6296   0.1293   0.8676     H
H       0.6296   0.6293   0.3676     H
C       0.6313   0.0382   0.9117     C
H       0.6313   0.4605   0.2234     H
C       0.6313   0.5382   0.4117     C
H       0.6313   0.9605   0.7234     H
C       0.6333   0.3419     0.55     C
C       0.6333   0.8419     0.05     C
H       0.6336   0.1499   0.5178     H
H       0.6336   0.6499   0.0178     H
C       0.6349   0.3219   0.0885     C
C       0.6349   0.8219   0.5885     C
H       0.6353   0.1624   0.7671     H
H       0.6353   0.6624   0.2671     H
C       0.6367     0.37   0.6952     C
C       0.6367     0.87   0.1952     C
C       0.6372    0.018   0.9521     C
C       0.6372    0.518   0.4521     C
C       0.6373   0.2886   0.8926     C
C       0.6373   0.7886   0.3926     C
C       0.6376   0.4057   0.2601     C
C       0.6376   0.9057   0.7601     C
H       0.6381   0.1313   0.2763     H
H       0.6381   0.6313   0.7763     H
H       0.6393   0.1294   0.3289     H
H       0.6393   0.6294   0.8289     H
C       0.6396   0.0841   0.8724     C
C       0.6396   0.5841   0.3724     C
H       0.6404   0.1807   0.2385     H
H       0.6404   0.6807   0.7385     H
C       0.6405   0.2764   0.1244     C
C       0.6405   0.7764   0.6244     C
C       0.6414   0.1789   0.1713     C
C       0.6414   0.6789   0.6713     C
C       0.6416   0.4215   0.0253     C
C       0.6416   0.9215   0.5253     C
C       0.6421   0.2062   0.5728     C
C       0.6421   0.7062   0.0728     C
C       0.6429   0.3282   0.5898     C
C       0.6429   0.8282   0.0898     C
C       0.6434   0.2085   0.6511     C
C       0.6434   0.7085   0.1511     C
C       0.6435   0.4384   0.3221     C
C       0.6435   0.9384   0.8221     C
C       0.6437   0.4458    0.056     C
C       0.6437   0.9458    0.556     C
C       0.6438   0.4068   0.7569     C
C       0.6438   0.9068   0.2569     C
H       0.6441   0.0268   0.4957     H
H       0.6441   0.5268   0.9957     H
H       0.6442   0.3344   0.0651     H
H       0.6442   0.8344   0.5651     H
H       0.6443   0.2283   0.5125     H
H       0.6443   0.7283   0.0125     H
C       0.6444   0.3614   0.6551     C
C       0.6444   0.8614   0.1551     C
C       0.6448   0.1185   0.3015     C
C       0.6448   0.6185   0.8015     C
C       0.6453   0.4404   0.8229     C
C       0.6453   0.9404   0.3229     C
C       0.6454   0.1769   0.0908     C
C       0.6454   0.6769   0.5908     C
H        0.646   0.2615   0.0381     H
H        0.646   0.7615   0.5381     H
H       0.6463   0.3413   0.4842     H
H       0.6463   0.8413   0.9842     H
C       0.6465   0.1041   0.4688     C
C       0.6465   0.6041   0.9688     C
C       0.6466   0.2911   0.0873     C
C       0.6466   0.7911   0.5873     C
H       0.6468   0.3912   0.4043     H
H       0.6468   0.8912   0.9043     H
C       0.6469   0.4415   0.9001     C
C       0.6469   0.9415   0.4001     C
H       0.6482   0.3992   0.2324     H
H       0.6482   0.8992   0.7324     H
H       0.6489   0.3782   0.9776     H
H       0.6489   0.8782   0.4776     H
C       0.6492   0.0655   0.9102     C
C       0.6492   0.5655   0.4102     C
C       0.6509    0.143   0.0276     C
C       0.6509    0.643   0.5276     C
H       0.6512   0.4669    0.518     H
H       0.6512   0.9669    0.018     H
H       0.6513   0.2567   0.1261     H
H       0.6513   0.7567   0.6261     H
C       0.6516   0.2059   0.8246     C
C       0.6516   0.7059   0.3246     C
C       0.6518   0.0475   0.6705     C
H       0.6518   0.1085   0.4989     H
C       0.6518   0.5475   0.1705     C
H       0.6518   0.6085   0.9989     H
H        0.652   0.4923   0.2121     H
H        0.652   0.9923   0.7121     H
H       0.6523   0.3065    0.882     H
H       0.6523   0.8065    0.382     H
H       0.6525   0.2021   0.8564     H
C       0.6525   0.4102   0.4191     C
H       0.6525   0.7021   0.3564     H
C       0.6525   0.9102   0.9191     C
C       0.6526    0.103   0.9701     C
C       0.6526    0.603   0.4701     C
C       0.6529   0.3319   0.5114     C
C       0.6529   0.8319   0.0114     C
C       0.6548   0.2178   0.6147     C
C       0.6548   0.7178   0.1147     C
C       0.6551   0.1161   0.8699     C
H       0.6551   0.2077   0.7158     H
C       0.6551   0.6161   0.3699     C
H       0.6551   0.7077   0.2158     H
C       0.6552   0.0637   0.7084     C
C       0.6552   0.5637   0.2084     C
H       0.6555   0.2272   0.8192     H
H       0.6555   0.7272   0.3192     H
C       0.6558   0.4707   0.2089     C
C       0.6558   0.9707   0.7089     C
H       0.6562   0.4655   0.1776     H
H       0.6562   0.9655   0.6776     H
H       0.6563    0.278   0.6454     H
H       0.6563    0.778   0.1454     H
C       0.6569   0.1861   0.2132     C
C       0.6569   0.6861   0.7132     C
H       0.6577   0.2768   0.9103     H
H       0.6577   0.7768   0.4103     H
C       0.6598   0.3941   0.7187     C
C       0.6598   0.8941   0.2187     C
C       0.6599   0.4273    0.283     C
C       0.6599   0.9273    0.783     C
C       0.6604   0.0735    0.405     C
C       0.6604   0.5735    0.905     C
H       0.6605   0.0367   0.1987     H
H       0.6605   0.5367   0.6987     H
H       0.6608   0.4365   0.9271     H
H       0.6608   0.9365   0.4271     H
H       0.6624   0.0106   0.2344     H
C       0.6624   0.1868   0.1342     C
H       0.6624   0.5106   0.7344     H
C       0.6624   0.6868   0.6342     C
H       0.6627   0.0168   0.4487     H
H       0.6627   0.5168   0.9487     H
H       0.6632   0.4065    0.449     H
H       0.6632   0.9065    0.949     H
C       0.6645   0.2158   0.5294     C
C       0.6645   0.7158   0.0294     C
C       0.6648   0.2779   0.0477     C
C       0.6648   0.7779   0.5477     C
C        0.665   0.4289   0.7802     C
C        0.665   0.9289   0.2802     C
C       0.6653    0.154   0.0682     C
C       0.6653    0.654   0.5682     C
C       0.6658   0.4322   0.8604     C
C       0.6658   0.9322   0.3604     C
H       0.6663    0.293   0.0245     H
H       0.6663    0.793   0.5245     H
H       0.6665    0.372   0.6394     H
H       0.6665    0.872   0.1394     H
H       0.6681   0.2385   0.6929     H
N       0.6681   0.4603   0.3444     N
H       0.6681   0.7385   0.1929     H
N       0.6681   0.9603   0.8444     N
C       0.6683   0.2168   0.6897     C
C       0.6683   0.7168   0.1897     C
H       0.6686   0.0142   0.9568     H
H       0.6686   0.5142   0.4568     H
H       0.6687   0.4572   0.5655     H
H       0.6687   0.9572   0.0655     H
C       0.6697   0.0188   0.4801     C
C       0.6697   0.5188   0.9801     C
C       0.6713   0.0803   0.9491     C
C       0.6713   0.5803   0.4491     C
C       0.6716   0.0818   0.4478     C
C       0.6716   0.5818   0.9478     C
H       0.6718    0.121   0.8965     H
H       0.6718    0.621   0.3965     H
H       0.6721   0.1982   0.5122     H
C       0.6721   0.3045    0.591     C
H       0.6721   0.6982   0.0122     H
C       0.6721   0.8045    0.091     C
C       0.6726   0.1176   0.0041     C
C       0.6726   0.6176   0.5041     C
H       0.6738   0.1187    0.844     H
H       0.6738   0.6187    0.344     H
H       0.6741   0.2344   0.6145     H
H       0.6741   0.7344   0.1145     H
H       0.6747   0.4214   0.4026     H
H       0.6747   0.9214   0.9026     H
H       0.6751   0.1948     0.81     H
H       0.6751   0.6948     0.31     H
H       0.6757   0.1125   0.3003     H
H       0.6757   0.6125   0.8003     H
C       0.6758   0.4683   0.5387     C
C       0.6758   0.9683   0.0387     C
H       0.6774   0.4993   0.9922     H
H       0.6774   0.9993   0.4922     H
C        0.679   0.0211   0.2115     C
C        0.679   0.5211   0.7115     C
H       0.6796   0.2933   0.4471     H
H       0.6796   0.7933   0.9471     H
C       0.6798   0.3845   0.9784     C
C       0.6798   0.8845   0.4784     C
H       0.6806   0.0823    0.789     H
H       0.6806   0.5823    0.289     H
N       0.6811   0.0493   0.3857     N
H       0.6811   0.4892    0.546     H
N       0.6811   0.5493   0.8857     N
H       0.6811   0.9892    0.046     H
C       0.6814   0.4572   0.0699     C
H       0.6814   0.4713   0.0931     H
C       0.6814   0.9572   0.5699     C
H       0.6814   0.9713   0.5931     H
C       0.6821   0.3082   0.5127     C
C       0.6821   0.8082   0.0127     C
H       0.6822   0.1105    0.757     H
H       0.6822   0.6105    0.257     H
C       0.6826   0.2876   0.6309     C
C       0.6826   0.7876   0.1309     C
C       0.6843   0.4119   0.0075     C
C       0.6843   0.9119   0.5075     C
H       0.6876    0.007   0.1884     H
H       0.6876    0.507   0.6884     H
H       0.6878   0.0274   0.6231     H
H       0.6878   0.5274   0.1231     H
H       0.6889   0.2235   0.2775     H
H       0.6889   0.7235   0.7775     H
C       0.6896   0.0392    0.649     C
H       0.6896   0.3893   0.9485     H
C       0.6896   0.5392    0.149     C
H       0.6896   0.8893   0.4485     H
H       0.6912   0.2271   0.5361     H
H       0.6912   0.7271   0.0361     H
C       0.6917   0.2945   0.5525     C
C       0.6917   0.7945   0.0525     C
H       0.6922   0.0622   0.2779     H
H       0.6922   0.5622   0.7779     H
C       0.6934      0.2   0.2172     C
C       0.6934      0.7   0.7172     C
C       0.6941   0.0717   0.7259     C
C       0.6941   0.5717   0.2259     C
H       0.6942   0.3025   0.6484     H
H       0.6942   0.8025   0.1484     H
H       0.6944   0.2704   0.0539     H
H       0.6944   0.7704   0.5539     H
H       0.6945   0.4145   0.5111     H
H       0.6945   0.9145   0.0111     H
C       0.6955   0.4762   0.3558     C
C       0.6955   0.9762   0.8558     C
C       0.6961   0.0915   0.7643     C
C       0.6961   0.5915   0.2643     C
H       0.6973   0.3917   0.8499     H
H       0.6973   0.8917   0.3499     H
H       0.6978   0.3684   0.9902     H
H       0.6978   0.8684   0.4902     H
H       0.6987   0.2099   0.6865     H
H       0.6987   0.7099   0.1865     H
C       0.6999   0.4049   0.7011     C
C       0.6999   0.9049   0.2011     C
C          0.7   0.4611   0.2307     C
C          0.7   0.9611   0.7307     C
C       0.7015   0.4402   0.2644     C
C       0.7015   0.9402   0.7644     C
C       0.7029   0.2991   0.4676     C
C       0.7029   0.7991   0.9676     C
C       0.7035   0.2006   0.1352     C
C       0.7035   0.7006   0.6352     C
H       0.7038   0.2712   0.6253     H
H       0.7038   0.7712   0.1253     H
C        0.705   0.0297   0.3774     C
C        0.705   0.5297   0.8774     C
C       0.7055    0.411   0.8624     C
C       0.7055    0.911   0.3624     C
C       0.7057   0.4383    0.762     C
C       0.7057   0.9383    0.262     C
C       0.7079   0.0397   0.4855     C
C       0.7079   0.5397   0.9855     C
C       0.7081   0.0686   0.4721     C
C       0.7081   0.5686   0.9721     C
H       0.7097   0.4734   0.6581     H
H       0.7097   0.9734   0.1581     H
C       0.7104     0.21   0.2641     C
C       0.7104     0.71   0.7641     C
H       0.7109   0.4419   0.6337     H
H       0.7109   0.9419   0.1337     H
H       0.7117   0.2782   0.5534     H
H       0.7117   0.3968   0.6748     H
H       0.7117   0.7782   0.0534     H
H       0.7117   0.8968   0.1748     H
H       0.7126    0.404   0.3261     H
H       0.7126    0.904   0.8261     H
C       0.7139   0.0711    0.963     C
C       0.7139   0.5711    0.463     C
H       0.7141   0.1925   0.2829     H
H       0.7141   0.2209   0.0782     H
H       0.7141   0.6925   0.7829     H
H       0.7141   0.7209   0.5782     H
H       0.7146   0.4084   0.8931     H
H       0.7146   0.9084   0.3931     H
H       0.7147   0.0553   0.0761     H
H       0.7147   0.5553   0.5761     H
C       0.7153   0.1089   0.0167     C
C       0.7153   0.6089   0.5167     C
C       0.7168   0.2081   0.1797     C
C       0.7168   0.7081   0.6797     C
H       0.7184   0.0297   0.0398     H
H       0.7184   0.5297   0.5398     H
C       0.7191   0.4545   0.5165     C
C       0.7191   0.9545   0.0165     C
H       0.7193   0.3159   0.4555     H
C       0.7193   0.4264    0.504     C
H       0.7193   0.8159   0.9555     H
C       0.7193   0.9264    0.004     C
C       0.7196   0.0562   0.2658     C
C       0.7196   0.5562   0.7658     C
C       0.7211   0.0353   0.2322     C
C       0.7211   0.5353   0.7322     C
C       0.7213   0.4258   0.0155     C
C       0.7213   0.9258   0.5155     C
C       0.7216   0.4275   0.7229     C
C       0.7216   0.9275   0.2229     C
H       0.7229   0.2822   0.4721     H
H       0.7229   0.7822   0.9721     H
H        0.723   0.1228   0.4492     H
H        0.723   0.6228   0.9492     H
C       0.7234   0.4481   0.0496     C
C       0.7234   0.9481   0.5496     C
H        0.725   0.3812   0.4442     H
H        0.725   0.8812   0.9442     H
H       0.7269   0.0949   0.7724     H
H       0.7269   0.5949   0.2724     H
N       0.7271   0.4612   0.7854     N
N       0.7271   0.9612   0.2854     N
C       0.7276     0.46   0.6402     C
C       0.7276     0.96   0.1402     C
H       0.7299   0.4195   0.8455     H
H       0.7299   0.9195   0.3455     H
H         0.73   0.1199    0.039     H
H         0.73   0.6199    0.539     H
C       0.7302   0.2074   0.0978     C
C       0.7302   0.7074   0.5978     C
C       0.7308   0.0481   0.6651     C
C       0.7308   0.5481   0.1651     C
C       0.7332   0.0393   0.0647     C
C       0.7332   0.5393   0.5647     C
N       0.7336    0.047   0.9384     N
N       0.7336    0.547   0.4384     N
C       0.7349    0.062   0.7041     C
C       0.7349    0.562   0.2041     C
H       0.7355   0.4699   0.6126     H
H       0.7355   0.9699   0.1126     H
C       0.7359   0.0855    0.998     C
C       0.7359   0.5855    0.498     C
H       0.7373   0.1891    0.082     H
H       0.7373   0.6891    0.582     H
H       0.7378   0.4876   0.1916     H
H       0.7378   0.9876   0.6916     H
C        0.738   0.4774   0.8135     C
C        0.738   0.9774   0.3135     C
H       0.7383   0.0246   0.0879     H
H       0.7383   0.5246   0.5879     H
H       0.7386   0.2203    0.261     H
H       0.7386   0.7203    0.761     H
C       0.7388   0.4733   0.2146     C
C       0.7388   0.9733   0.7146     C
H       0.7392   0.0128   0.5303     H
H       0.7392   0.5128   0.0303     H
H       0.7397    0.107    0.311     H
H       0.7397    0.607    0.811     H
C       0.7416   0.4315   0.2819     C
C       0.7416   0.9315   0.7819     C
C       0.7424    0.029   0.9154     C
C       0.7424    0.529   0.4154     C
H       0.7426   0.2829   0.1075     H
H       0.7426   0.7829   0.6075     H
C       0.7427   0.4104   0.3191     C
C       0.7427   0.9104   0.8191     C
C       0.7428   0.0304   0.5133     C
C       0.7428   0.5304   0.0133     C
H       0.7431   0.2192   0.1835     H
H       0.7431   0.7192   0.6835     H
H       0.7443   0.0799   0.3449     H
H       0.7443   0.5799   0.8449     H
H       0.7452   0.3691   0.4894     H
H       0.7452   0.8691   0.9894     H
C       0.7466   0.0867    0.481     C
C       0.7466   0.5867    0.981     C
Cu      0.7487  0.49988  0.36646    Cu
Cu      0.7487  0.99988  0.86646    Cu
C       0.7499   0.3826   0.4646     C
C       0.7499   0.8826   0.9646     C
C       0.7501   0.1174   0.4646     C
C       0.7501   0.6174   0.9646     C
Cu      0.7513  0.00012  0.36646    Cu
Cu      0.7513  0.50012  0.86646    Cu
C       0.7534   0.4133    0.481     C
C       0.7534   0.9133    0.981     C
H       0.7548   0.1309   0.4894     H
H       0.7548   0.6309   0.9894     H
H       0.7557   0.4201   0.3449     H
H       0.7557   0.9201   0.8449     H
H       0.7569   0.2808   0.1835     H
H       0.7569   0.7808   0.6835     H
C       0.7572   0.4696   0.5133     C
C       0.7572   0.9696   0.0133     C
C       0.7573   0.0896   0.3191     C
C       0.7573   0.5896   0.8191     C
H       0.7574   0.2171   0.1075     H
H       0.7574   0.7171   0.6075     H
C       0.7576    0.471   0.9154     C
C       0.7576    0.971   0.4154     C
C       0.7584   0.0685   0.2819     C
C       0.7584   0.5685   0.7819     C
H       0.7603    0.393    0.311     H
H       0.7603    0.893    0.811     H
H       0.7608   0.4872   0.5303     H
H       0.7608   0.9872   0.0303     H
C       0.7612   0.0267   0.2146     C
C       0.7612   0.5267   0.7146     C
H       0.7614   0.2797    0.261     H
H       0.7614   0.7797    0.761     H
H       0.7617   0.4754   0.0879     H
H       0.7617   0.9754   0.5879     H
C        0.762   0.0226   0.8135     C
C        0.762   0.5226   0.3135     C
H       0.7622   0.0124   0.1916     H
H       0.7622   0.5124   0.6916     H
H       0.7627   0.3109    0.082     H
H       0.7627   0.8109    0.582     H
C       0.7641   0.4145    0.998     C
C       0.7641   0.9145    0.498     C
H       0.7645   0.0301   0.6126     H
H       0.7645   0.5301   0.1126     H
C       0.7651    0.438   0.7041     C
C       0.7651    0.938   0.2041     C
N       0.7664    0.453   0.9384     N
N       0.7664    0.953   0.4384     N
C       0.7668   0.4607   0.0647     C
C       0.7668   0.9607   0.5647     C
C       0.7692   0.4519   0.6651     C
C       0.7692   0.9519   0.1651     C
C       0.7698   0.2926   0.0978     C
C       0.7698   0.7926   0.5978     C
H         0.77   0.3801    0.039     H
H         0.77   0.8801    0.539     H
H       0.7701   0.0805   0.8455     H
H       0.7701   0.5805   0.3455     H
C       0.7724     0.04   0.6402     C
C       0.7724     0.54   0.1402     C
N       0.7729   0.0388   0.7854     N
N       0.7729   0.5388   0.2854     N
H       0.7731   0.4051   0.7724     H
H       0.7731   0.9051   0.2724     H
H        0.775   0.1188   0.4442     H
H        0.775   0.6188   0.9442     H
C       0.7766   0.0519   0.0496     C
C       0.7766   0.5519   0.5496     C
H        0.777   0.3772   0.4492     H
H        0.777   0.8772   0.9492     H
H       0.7771   0.2178   0.4721     H
H       0.7771   0.7178   0.9721     H
C       0.7784   0.0725   0.7229     C
C       0.7784   0.5725   0.2229     C
C       0.7787   0.0742   0.0155     C
C       0.7787   0.5742   0.5155     C
C       0.7789   0.4647   0.2322     C
C       0.7789   0.9647   0.7322     C
C       0.7804   0.4438   0.2658     C
C       0.7804   0.9438   0.7658     C
C       0.7807   0.0736    0.504     C
H       0.7807   0.1841   0.4555     H
C       0.7807   0.5736    0.004     C
H       0.7807   0.6841   0.9555     H
C       0.7809   0.0455   0.5165     C
C       0.7809   0.5455   0.0165     C
H       0.7816   0.4703   0.0398     H
H       0.7816   0.9703   0.5398     H
C       0.7832   0.2919   0.1797     C
C       0.7832   0.7919   0.6797     C
C       0.7847   0.3911   0.0167     C
C       0.7847   0.8911   0.5167     C
H       0.7853   0.4447   0.0761     H
H       0.7853   0.9447   0.5761     H
H       0.7854   0.0916   0.8931     H
H       0.7854   0.5916   0.3931     H
H       0.7859   0.2791   0.0782     H
H       0.7859   0.3075   0.2829     H
H       0.7859   0.7791   0.5782     H
H       0.7859   0.8075   0.7829     H
C       0.7861   0.4289    0.963     C
C       0.7861   0.9289    0.463     C
H       0.7874    0.096   0.3261     H
H       0.7874    0.596   0.8261     H
H       0.7883   0.1032   0.6748     H
H       0.7883   0.2218   0.5534     H
H       0.7883   0.6032   0.1748     H
H       0.7883   0.7218   0.0534     H
H       0.7891   0.0581   0.6337     H
H       0.7891   0.5581   0.1337     H
C       0.7896     0.29   0.2641     C
C       0.7896     0.79   0.7641     C
H       0.7903   0.0266   0.6581     H
H       0.7903   0.5266   0.1581     H
C       0.7919   0.4314   0.4721     C
C       0.7919   0.9314   0.9721     C
C       0.7921   0.4603   0.4855     C
C       0.7921   0.9603   0.9855     C
C       0.7943   0.0617    0.762     C
C       0.7943   0.5617    0.262     C
C       0.7945    0.089   0.8624     C
C       0.7945    0.589   0.3624     C
C        0.795   0.4703   0.3774     C
C        0.795   0.9703   0.8774     C
H       0.7962   0.2288   0.6253     H
H       0.7962   0.7288   0.1253     H
C       0.7965   0.2994   0.1352     C
C       0.7965   0.7994   0.6352     C
C       0.7971   0.2009   0.4676     C
C       0.7971   0.7009   0.9676     C
C       0.7985   0.0598   0.2644     C
C       0.7985   0.5598   0.7644     C
C          0.8   0.0389   0.2307     C
C          0.8   0.5389   0.7307     C
C       0.8001   0.0951   0.7011     C
C       0.8001   0.5951   0.2011     C
H       0.8013   0.2901   0.6865     H
H       0.8013   0.7901   0.1865     H
H       0.8022   0.1316   0.9902     H
H       0.8022   0.6316   0.4902     H
H       0.8027   0.1083   0.8499     H
H       0.8027   0.6083   0.3499     H
C       0.8039   0.4085   0.7643     C
C       0.8039   0.9085   0.2643     C
C       0.8045   0.0238   0.3558     C
C       0.8045   0.5238   0.8558     C
H       0.8055   0.0855   0.5111     H
H       0.8055   0.5855   0.0111     H
H       0.8056   0.2296   0.0539     H
H       0.8056   0.7296   0.5539     H
H       0.8058   0.1975   0.6484     H
H       0.8058   0.6975   0.1484     H
C       0.8059   0.4283   0.7259     C
C       0.8059   0.9283   0.2259     C
C       0.8066      0.3   0.2172     C
C       0.8066      0.8   0.7172     C
H       0.8078   0.4378   0.2779     H
H       0.8078   0.9378   0.7779     H
C       0.8083   0.2055   0.5525     C
C       0.8083   0.7055   0.0525     C
H       0.8088   0.2729   0.5361     H
H       0.8088   0.7729   0.0361     H
H       0.8104   0.1107   0.9485     H
C       0.8104   0.4608    0.649     C
H       0.8104   0.6107   0.4485     H
C       0.8104   0.9608    0.149     C
H       0.8111   0.2765   0.2775     H
H       0.8111   0.7765   0.7775     H
H       0.8122   0.4726   0.6231     H
H       0.8122   0.9726   0.1231     H
H       0.8124    0.493   0.1884     H
H       0.8124    0.993   0.6884     H
C       0.8157   0.0881   0.0075     C
C       0.8157   0.5881   0.5075     C
C       0.8174   0.2124   0.6309     C
C       0.8174   0.7124   0.1309     C
H       0.8178   0.3895    0.757     H
H       0.8178   0.8895    0.257     H
C       0.8179   0.1918   0.5127     C
C       0.8179   0.6918   0.0127     C
H       0.8186   0.0287   0.0931     H
C       0.8186   0.0428   0.0699     C
H       0.8186   0.5287   0.5931     H
C       0.8186   0.5428   0.5699     C
H       0.8189   0.0108    0.546     H
N       0.8189   0.4507   0.3857     N
H       0.8189   0.5108    0.046     H
N       0.8189   0.9507   0.8857     N
H       0.8194   0.4177    0.789     H
H       0.8194   0.9177    0.289     H
C       0.8202   0.1155   0.9784     C
C       0.8202   0.6155   0.4784     C
H       0.8204   0.2067   0.4471     H
H       0.8204   0.7067   0.9471     H
C        0.821   0.4789   0.2115     C
C        0.821   0.9789   0.7115     C
H       0.8226   0.0007   0.9922     H
H       0.8226   0.5007   0.4922     H
C       0.8242   0.0317   0.5387     C
C       0.8242   0.5317   0.0387     C
H       0.8243   0.3875   0.3003     H
H       0.8243   0.8875   0.8003     H
H       0.8249   0.3052     0.81     H
H       0.8249   0.8052     0.31     H
H       0.8253   0.0786   0.4026     H
H       0.8253   0.5786   0.9026     H
H       0.8259   0.2656   0.6145     H
H       0.8259   0.7656   0.1145     H
H       0.8262   0.3813    0.844     H
H       0.8262   0.8813    0.344     H
C       0.8274   0.3824   0.0041     C
C       0.8274   0.8824   0.5041     C
C       0.8279   0.1955    0.591     C
H       0.8279   0.3018   0.5122     H
C       0.8279   0.6955    0.091     C
H       0.8279   0.8018   0.0122     H
H       0.8282    0.379   0.8965     H
H       0.8282    0.879   0.3965     H
C       0.8284   0.4182   0.4478     C
C       0.8284   0.9182   0.9478     C
C       0.8287   0.4197   0.9491     C
C       0.8287   0.9197   0.4491     C
C       0.8303   0.4812   0.4801     C
C       0.8303   0.9812   0.9801     C
H       0.8313   0.0428   0.5655     H
H       0.8313   0.5428   0.0655     H
H       0.8314   0.4858   0.9568     H
H       0.8314   0.9858   0.4568     H
C       0.8317   0.2832   0.6897     C
C       0.8317   0.7832   0.1897     C
N       0.8319   0.0397   0.3444     N
H       0.8319   0.2615   0.6929     H
N       0.8319   0.5397   0.8444     N
H       0.8319   0.7615   0.1929     H
H       0.8335    0.128   0.6394     H
H       0.8335    0.628   0.1394     H
H       0.8337    0.207   0.0245     H
H       0.8337    0.707   0.5245     H
C       0.8342   0.0678   0.8604     C
C       0.8342   0.5678   0.3604     C
C       0.8347    0.346   0.0682     C
C       0.8347    0.846   0.5682     C
C        0.835   0.0711   0.7802     C
C        0.835   0.5711   0.2802     C
C       0.8352   0.2221   0.0477     C
C       0.8352   0.7221   0.5477     C
C       0.8355   0.2842   0.5294     C
C       0.8355   0.7842   0.0294     C
H       0.8368   0.0935    0.449     H
H       0.8368   0.5935    0.949     H
H       0.8373   0.4832   0.4487     H
H       0.8373   0.9832   0.9487     H
C       0.8376   0.3132   0.1342     C
H       0.8376   0.4894   0.2344     H
C       0.8376   0.8132   0.6342     C
H       0.8376   0.9894   0.7344     H
H       0.8392   0.0635   0.9271     H
H       0.8392   0.5635   0.4271     H
H       0.8395   0.4633   0.1987     H
H       0.8395   0.9633   0.6987     H
C       0.8396   0.4265    0.405     C
C       0.8396   0.9265    0.905     C
C       0.8401   0.0727    0.283     C
C       0.8401   0.5727    0.783     C
C       0.8402   0.1059   0.7187     C
C       0.8402   0.6059   0.2187     C
H       0.8423   0.2232   0.9103     H
H       0.8423   0.7232   0.4103     H
C       0.8431   0.3139   0.2132     C
C       0.8431   0.8139   0.7132     C
H       0.8437    0.222   0.6454     H
H       0.8437    0.722   0.1454     H
H       0.8438   0.0345   0.1776     H
H       0.8438   0.5345   0.6776     H
C       0.8442   0.0293   0.2089     C
C       0.8442   0.5293   0.7089     C
H       0.8445   0.2728   0.8192     H
H       0.8445   0.7728   0.3192     H
C       0.8448   0.4363   0.7084     C
C       0.8448   0.9363   0.2084     C
H       0.8449   0.2923   0.7158     H
C       0.8449   0.3839   0.8699     C
H       0.8449   0.7923   0.2158     H
C       0.8449   0.8839   0.3699     C
C       0.8452   0.2822   0.6147     C
C       0.8452   0.7822   0.1147     C
C       0.8471   0.1681   0.5114     C
C       0.8471   0.6681   0.0114     C
C       0.8474    0.397   0.9701     C
C       0.8474    0.897   0.4701     C
C       0.8475   0.0898   0.4191     C
H       0.8475   0.2979   0.8564     H
C       0.8475   0.5898   0.9191     C
H       0.8475   0.7979   0.3564     H
H       0.8477   0.1935    0.882     H
H       0.8477   0.6935    0.382     H
H        0.848   0.0077   0.2121     H
H        0.848   0.5077   0.7121     H
H       0.8482   0.3915   0.4989     H
C       0.8482   0.4525   0.6705     C
H       0.8482   0.8915   0.9989     H
C       0.8482   0.9525   0.1705     C
C       0.8484   0.2941   0.8246     C
C       0.8484   0.7941   0.3246     C
H       0.8487   0.2433   0.1261     H
H       0.8487   0.7433   0.6261     H
H       0.8488   0.0331    0.518     H
H       0.8488   0.5331    0.018     H
C       0.8491    0.357   0.0276     C
C       0.8491    0.857   0.5276     C
C       0.8508   0.4345   0.9102     C
C       0.8508   0.9345   0.4102     C
H       0.8511   0.1218   0.9776     H
H       0.8511   0.6218   0.4776     H
H       0.8518   0.1008   0.2324     H
H       0.8518   0.6008   0.7324     H
C       0.8531   0.0585   0.9001     C
C       0.8531   0.5585   0.4001     C
H       0.8532   0.1088   0.4043     H
H       0.8532   0.6088   0.9043     H
C       0.8534   0.2089   0.0873     C
C       0.8534   0.7089   0.5873     C
C       0.8535   0.3959   0.4688     C
C       0.8535   0.8959   0.9688     C
H       0.8537   0.1587   0.4842     H
H       0.8537   0.6587   0.9842     H
H        0.854   0.2385   0.0381     H
H        0.854   0.7385   0.5381     H
C       0.8546   0.3231   0.0908     C
C       0.8546   0.8231   0.5908     C
C       0.8547   0.0596   0.8229     C
C       0.8547   0.5596   0.3229     C
C       0.8552   0.3815   0.3015     C
C       0.8552   0.8815   0.8015     C
C       0.8556   0.1386   0.6551     C
C       0.8556   0.6386   0.1551     C
H       0.8557   0.2717   0.5125     H
H       0.8557   0.7717   0.0125     H
H       0.8558   0.1656   0.0651     H
H       0.8558   0.6656   0.5651     H
H       0.8559   0.4732   0.4957     H
H       0.8559   0.9732   0.9957     H
C       0.8562   0.0932   0.7569     C
C       0.8562   0.5932   0.2569     C
C       0.8563   0.0542    0.056     C
C       0.8563   0.5542    0.556     C
C       0.8565   0.0616   0.3221     C
C       0.8565   0.5616   0.8221     C
C       0.8566   0.2915   0.6511     C
C       0.8566   0.7915   0.1511     C
C       0.8571   0.1718   0.5898     C
C       0.8571   0.6718   0.0898     C
C       0.8579   0.2938   0.5728     C
C       0.8579   0.7938   0.0728     C
C       0.8584   0.0785   0.0253     C
C       0.8584   0.5785   0.5253     C
C       0.8586   0.3211   0.1713     C
C       0.8586   0.8211   0.6713     C
C       0.8595   0.2236   0.1244     C
C       0.8595   0.7236   0.6244     C
H       0.8596   0.3193   0.2385     H
H       0.8596   0.8193   0.7385     H
C       0.8604   0.4159   0.8724     C
C       0.8604   0.9159   0.3724     C
H       0.8607   0.3706   0.3289     H
H       0.8607   0.8706   0.8289     H
H       0.8619   0.3687   0.2763     H
H       0.8619   0.8687   0.7763     H
C       0.8624   0.0943   0.2601     C
C       0.8624   0.5943   0.7601     C
C       0.8627   0.2114   0.8926     C
C       0.8627   0.7114   0.3926     C
C       0.8628    0.482   0.9521     C
C       0.8628    0.982   0.4521     C
C       0.8633     0.13   0.6952     C
C       0.8633     0.63   0.1952     C
H       0.8647   0.3376   0.7671     H
H       0.8647   0.8376   0.2671     H
C       0.8651   0.1781   0.0885     C
C       0.8651   0.6781   0.5885     C
H       0.8664   0.3501   0.5178     H
H       0.8664   0.8501   0.0178     H
C       0.8667   0.1581     0.55     C
C       0.8667   0.6581     0.05     C
H       0.8687   0.0395   0.2234     H
C       0.8687   0.4618   0.9117     C
H       0.8687   0.5395   0.7234     H
C       0.8687   0.9618   0.4117     C
H       0.8704   0.3707   0.8676     H
H       0.8704   0.8707   0.3676     H
H        0.871   0.4305   0.7231     H
H        0.871   0.9305   0.2231     H
H       0.8719   0.2509   0.1972     H
H       0.8719   0.7509   0.6972     H
H       0.8729   0.2231   0.8674     H
H       0.8729   0.7231   0.3674     H
C       0.8738   0.4112   0.3831     C
C       0.8738   0.9112   0.8831     C
H       0.8742   0.1406    0.211     H
H       0.8742   0.6406    0.711     H
H       0.8749   0.2222   0.2281     H
H       0.8749   0.7222   0.7281     H
H       0.8751   0.4722   0.9781     H
H       0.8751   0.9722   0.4781     H
H       0.8758   0.3906    0.961     H
H       0.8758   0.8906    0.461     H
C       0.8762   0.1612   0.6331     C
C       0.8762   0.6612   0.1331     C
H       0.8771   0.4731   0.6174     H
H       0.8771   0.9731   0.1174     H
H       0.8781   0.0009   0.4472     H
H       0.8781   0.5009   0.9472     H
H        0.879   0.1805   0.9731     H
H        0.879   0.6805   0.4731     H
H       0.8796   0.1207   0.1176     H
H       0.8796   0.6207   0.6176     H
C       0.8813   0.2118   0.1617     C
H       0.8813   0.2895   0.9734     H
C       0.8813   0.7118   0.6617     C
H       0.8813   0.7895   0.4734     H
C       0.8833   0.4081      0.3     C
C       0.8833   0.9081      0.8     C
H       0.8836   0.1001   0.7678     H
H       0.8836   0.6001   0.2678     H
C       0.8849   0.4281   0.8385     C
C       0.8849   0.9281   0.3385     C
H       0.8853   0.0876   0.0171     H
H       0.8853   0.5876   0.5171     H
C       0.8867     0.38   0.4452     C
C       0.8867     0.88   0.9452     C
C       0.8872    0.232   0.2021     C
C       0.8872    0.732   0.7021     C
C       0.8873   0.4614   0.6426     C
C       0.8873   0.9614   0.1426     C
C       0.8876   0.3443   0.0101     C
C       0.8876   0.8443   0.5101     C
H       0.8881   0.1187   0.5263     H
H       0.8881   0.6187   0.0263     H
H       0.8893   0.1206   0.5789     H
H       0.8893   0.6206   0.0789     H
C       0.8896   0.1659   0.1224     C
C       0.8896   0.6659   0.6224     C
H       0.8904   0.0693   0.4885     H
H       0.8904   0.5693   0.9885     H
C       0.8905   0.4736   0.8744     C
C       0.8905   0.9736   0.3744     C
C       0.8914   0.0711   0.4213     C
C       0.8914   0.5711   0.9213     C
C       0.8916   0.3285   0.7753     C
C       0.8916   0.8285   0.2753     C
C       0.8921   0.0438   0.8228     C
C       0.8921   0.5438   0.3228     C
C       0.8929   0.4218   0.3398     C
C       0.8929   0.9218   0.8398     C
C       0.8934   0.0415   0.9011     C
C       0.8934   0.5415   0.4011     C
C       0.8935   0.3116   0.0721     C
C       0.8935   0.8116   0.5721     C
C       0.8937   0.3042    0.806     C
C       0.8937   0.8042    0.306     C
C       0.8938   0.3432   0.5069     C
C       0.8938   0.8432   0.0069     C
H       0.8941   0.2232   0.7457     H
H       0.8941   0.7232   0.2457     H
H       0.8942   0.4156   0.8151     H
H       0.8942   0.9156   0.3151     H
H       0.8943   0.0217   0.7625     H
H       0.8943   0.5217   0.2625     H
C       0.8944   0.3886   0.4051     C
C       0.8944   0.8886   0.9051     C
C       0.8948   0.1315   0.5515     C
C       0.8948   0.6315   0.0515     C
C       0.8953   0.3096   0.5729     C
C       0.8953   0.8096   0.0729     C
C       0.8954   0.0731   0.3408     C
C       0.8954   0.5731   0.8408     C
H        0.896   0.4885   0.7881     H
H        0.896   0.9885   0.2881     H
H       0.8963   0.4087   0.2342     H
H       0.8963   0.9087   0.7342     H
C       0.8965   0.1459   0.7188     C
C       0.8965   0.6459   0.2188     C
C       0.8966   0.4589   0.8373     C
C       0.8966   0.9589   0.3373     C
H       0.8968   0.3588   0.1543     H
H       0.8968   0.8588   0.6543     H
C       0.8969   0.3085   0.6501     C
C       0.8969   0.8085   0.1501     C
H       0.8982   0.3508   0.9824     H
H       0.8982   0.8508   0.4824     H
H       0.8989   0.3718   0.7276     H
H       0.8989   0.8718   0.2276     H
C       0.8992   0.1845   0.1602     C
C       0.8992   0.6845   0.6602     C
C       0.9009    0.107   0.2776     C
C       0.9009    0.607   0.7776     C
H       0.9012   0.2831    0.268     H
H       0.9012   0.7831    0.768     H
H       0.9013   0.4933   0.8761     H
H       0.9013   0.9933   0.3761     H
C       0.9016   0.0441   0.0746     C
C       0.9016   0.5441   0.5746     C
H       0.9018   0.1415   0.7489     H
C       0.9018   0.2025   0.9205     C
H       0.9018   0.6415   0.2489     H
C       0.9018   0.7025   0.4205     C
H        0.902   0.2577   0.9621     H
H        0.902   0.7577   0.4621     H
H       0.9023   0.4435    0.632     H
H       0.9023   0.9435    0.132     H
H       0.9025   0.0479   0.1064     H
C       0.9025   0.3398   0.1691     C
H       0.9025   0.5479   0.6064     H
C       0.9025   0.8398   0.6691     C
C       0.9026    0.147   0.2201     C
C       0.9026    0.647   0.7201     C
C       0.9029   0.4181   0.2614     C
C       0.9029   0.9181   0.7614     C
C       0.9048   0.0322   0.8647     C
C       0.9048   0.5322   0.3647     C
H       0.9051   0.0423   0.9658     H
C       0.9051   0.1339   0.1199     C
H       0.9051   0.5423   0.4658     H
C       0.9051   0.6339   0.6199     C
C       0.9052   0.1863   0.9584     C
C       0.9052   0.6863   0.4584     C
H       0.9055   0.0228   0.0692     H
H       0.9055   0.5228   0.5692     H
C       0.9058   0.2793   0.9589     C
C       0.9058   0.7793   0.4589     C
H       0.9062   0.2845   0.9276     H
H       0.9062   0.7845   0.4276     H
H       0.9063    0.472   0.3954     H
H       0.9063    0.972   0.8954     H
C       0.9069   0.0639   0.4632     C
C       0.9069   0.5639   0.9632     C
H       0.9077   0.4732   0.6603     H
H       0.9077   0.9732   0.1603     H
C       0.9098   0.3559   0.4687     C
C       0.9098   0.8559   0.9687     C
C       0.9099   0.3227    0.033     C
C       0.9099   0.8227    0.533     C
C       0.9104   0.1765    0.655     C
C       0.9104   0.6765    0.155     C
H       0.9105   0.2133   0.4487     H
H       0.9105   0.7133   0.9487     H
H       0.9108   0.3135   0.6771     H
H       0.9108   0.8135   0.1771     H
C       0.9124   0.0632   0.3842     C
H       0.9124   0.2394   0.4844     H
C       0.9124   0.5632   0.8842     C
H       0.9124   0.7394   0.9844     H
H       0.9127   0.2332   0.6987     H
H       0.9127   0.7332   0.1987     H
H       0.9132   0.3435    0.199     H
H       0.9132   0.8435    0.699     H
C       0.9145   0.0342   0.7794     C
C       0.9145   0.5342   0.2794     C
C       0.9148   0.4721   0.7977     C
C       0.9148   0.9721   0.2977     C
C        0.915   0.3211   0.5302     C
C        0.915   0.8211   0.0302     C
C       0.9153    0.096   0.3182     C
C       0.9153    0.596   0.8182     C
C       0.9158   0.3178   0.6104     C
C       0.9158   0.8178   0.1104     C
H       0.9163    0.457   0.7745     H
H       0.9163    0.957   0.2745     H
H       0.9165    0.378   0.3894     H
H       0.9165    0.878   0.8894     H
H       0.9181   0.0115   0.9429     H
N       0.9181   0.2897   0.0944     N
H       0.9181   0.5115   0.4429     H
N       0.9181   0.7897   0.5944     N
C       0.9183   0.0332   0.9397     C
C       0.9183   0.5332   0.4397     C
H       0.9186   0.2358   0.2068     H
H       0.9186   0.7358   0.7068     H
H       0.9187   0.2928   0.3155     H
H       0.9187   0.7928   0.8155     H
C       0.9197   0.2312   0.7301     C
C       0.9197   0.7312   0.2301     C
C       0.9213   0.1697   0.1991     C
C       0.9213   0.6697   0.6991     C
C       0.9216   0.1682   0.6978     C
C       0.9216   0.6682   0.1978     C
H       0.9218    0.129   0.1465     H
H       0.9218    0.629   0.6465     H
H       0.9221   0.0518   0.7622     H
C       0.9221   0.4455    0.341     C
H       0.9221   0.5518   0.2622     H
C       0.9221   0.9455    0.841     C
C       0.9226   0.1324   0.2541     C
C       0.9226   0.6324   0.7541     C
H       0.9238   0.1313    0.094     H
H       0.9238   0.6313    0.594     H
H       0.9241   0.0156   0.8645     H
H       0.9241   0.5156   0.3645     H
H       0.9247   0.3286   0.1526     H
H       0.9247   0.8286   0.6526     H
H       0.9251   0.0552     0.06     H
H       0.9251   0.5552     0.56     H
H       0.9257   0.1375   0.5503     H
H       0.9257   0.6375   0.0503     H
C       0.9258   0.2817   0.2887     C
C       0.9258   0.7817   0.7887     C
H       0.9274   0.2507   0.7422     H
H       0.9274   0.7507   0.2422     H
C        0.929   0.2289   0.4615     C
C        0.929   0.7289   0.9615     C
H       0.9296   0.4567   0.1971     H
H       0.9296   0.9567   0.6971     H
C       0.9298   0.3655   0.7284     C
C       0.9298   0.8655   0.2284     C
H       0.9306   0.1677    0.039     H
H       0.9306   0.6677    0.539     H
N       0.9311   0.2007   0.6357     N
H       0.9311   0.2608    0.296     H
N       0.9311   0.7007   0.1357     N
H       0.9311   0.7608    0.796     H
H       0.9314   0.2787   0.8431     H
C       0.9314   0.2928   0.8199     C
H       0.9314   0.7787   0.3431     H
C       0.9314   0.7928   0.3199     C
C       0.9321   0.4418   0.2627     C
C       0.9321   0.9418   0.7627     C
H       0.9322   0.1395    0.007     H
H       0.9322   0.6395    0.507     H
C       0.9326   0.4624   0.3809     C
C       0.9326   0.9624   0.8809     C
C       0.9343   0.3381   0.7575     C
C       0.9343   0.8381   0.2575     C
H       0.9376    0.243   0.4384     H
H       0.9376    0.743   0.9384     H
H       0.9378   0.2226   0.8731     H
H       0.9378   0.7226   0.3731     H
H       0.9389   0.0265   0.5275     H
H       0.9389   0.5265   0.0275     H
C       0.9396   0.2108    0.899     C
H       0.9396   0.3607   0.6985     H
C       0.9396   0.7108    0.399     C
H       0.9396   0.8607   0.1985     H
H       0.9412   0.0229   0.7861     H
H       0.9412   0.5229   0.2861     H
C       0.9417   0.4555   0.3025     C
C       0.9417   0.9555   0.8025     C
H       0.9422   0.1878   0.5279     H
H       0.9422   0.6878   0.0279     H
C       0.9434     0.05   0.4672     C
C       0.9434     0.55   0.9672     C
C       0.9441   0.1783   0.9759     C
C       0.9441   0.6783   0.4759     C
H       0.9442   0.4475   0.3984     H
H       0.9442   0.9475   0.8984     H
H       0.9444   0.4796   0.8039     H
H       0.9444   0.9796   0.3039     H
H       0.9445   0.3355   0.2611     H
H       0.9445   0.8355   0.7611     H
C       0.9455   0.2738   0.1058     C
C       0.9455   0.7738   0.6058     C
C       0.9461   0.1585   0.0143     C
C       0.9461   0.6585   0.5143     C
H       0.9473   0.3583   0.5999     H
H       0.9473   0.8583   0.0999     H
H       0.9478   0.3816   0.7402     H
H       0.9478   0.8816   0.2402     H
H       0.9487   0.0401   0.9365     H
H       0.9487   0.5401   0.4365     H
C       0.9499   0.3451   0.4511     C
C       0.9499   0.8451   0.9511     C
C         0.95   0.2889   0.9807     C
C         0.95   0.7889   0.4807     C
C       0.9515   0.3098   0.0144     C
C       0.9515   0.8098   0.5144     C
C       0.9529   0.4509   0.2176     C
C       0.9529   0.9509   0.7176     C
C       0.9535   0.0494   0.3852     C
C       0.9535   0.5494   0.8852     C
H       0.9538   0.4788   0.3753     H
H       0.9538   0.9788   0.8753     H
C        0.955   0.2203   0.6274     C
C        0.955   0.7203   0.1274     C
C       0.9555    0.339   0.6124     C
C       0.9555    0.839   0.1124     C
C       0.9557   0.3117    0.512     C
C       0.9557   0.8117    0.012     C
C       0.9579   0.2103   0.7355     C
C       0.9579   0.7103   0.2355     C
C       0.9581   0.1814   0.7221     C
C       0.9581   0.6814   0.2221     C
H       0.9597   0.2766   0.4081     H
H       0.9597   0.7766   0.9081     H
C       0.9604     0.04   0.5141     C
C       0.9604     0.54   0.0141     C
H       0.9609   0.3081   0.3837     H
H       0.9609   0.8081   0.8837     H
H       0.9617   0.3532   0.4248     H
H       0.9617   0.4718   0.3034     H
H       0.9617   0.8532   0.9248     H
H       0.9617   0.9718   0.8034     H
H       0.9626    0.346   0.0761     H
H       0.9626    0.846   0.5761     H
C       0.9639   0.1789    0.213     C
C       0.9639   0.6789    0.713     C
H       0.9641   0.0291   0.3282     H
H       0.9641   0.0575   0.5329     H
H       0.9641   0.5291   0.8282     H
H       0.9641   0.5575   0.0329     H
H       0.9646   0.3416   0.6431     H
H       0.9646   0.8416   0.1431     H
H       0.9647   0.1947   0.3261     H
H       0.9647   0.6947   0.8261     H
C       0.9653   0.1411   0.2667     C
C       0.9653   0.6411   0.7667     C
C       0.9668   0.0419   0.4297     C
C       0.9668   0.5419   0.9297     C
H       0.9684   0.2203   0.2898     H
H       0.9684   0.7203   0.7898     H
C       0.9691   0.2955   0.2665     C
C       0.9691   0.7955   0.7665     C
C       0.9693   0.3236    0.254     C
H       0.9693   0.4341   0.2055     H
C       0.9693   0.8236    0.754     C
H       0.9693   0.9341   0.7055     H
C       0.9696   0.1938   0.5158     C
C       0.9696   0.6938   0.0158     C
C       0.9711   0.2147   0.4822     C
C       0.9711   0.7147   0.9822     C
C       0.9713   0.3242   0.7655     C
C       0.9713   0.8242   0.2655     C
C       0.9716   0.3225   0.4729     C
C       0.9716   0.8225   0.9729     C
H       0.9729   0.4678   0.2221     H
H       0.9729   0.9678   0.7221     H
H        0.973   0.1272   0.6992     H
H        0.973   0.6272   0.1992     H
C       0.9734   0.3019   0.7996     C
C       0.9734   0.8019   0.2996     C
H        0.975   0.3688   0.1942     H
H        0.975   0.8688   0.6942     H
H       0.9769   0.1551   0.0224     H
H       0.9769   0.6551   0.5224     H
N       0.9771   0.2888   0.5354     N
N       0.9771   0.7888   0.0354     N
C       0.9776     0.29   0.3902     C
C       0.9776     0.79   0.8902     C
H       0.9799   0.3305   0.5955     H
H       0.9799   0.8305   0.0955     H
H         0.98   0.1301    0.289     H
H         0.98   0.6301    0.789     H
C       0.9802   0.0426   0.3478     C
C       0.9802   0.5426   0.8478     C
C       0.9808   0.2019   0.9151     C
C       0.9808   0.7019   0.4151     C
C       0.9832   0.2107   0.3147     C
C       0.9832   0.7107   0.8147     C
N       0.9836    0.203   0.1884     N
N       0.9836    0.703   0.6884     N
C       0.9849    0.188   0.9541     C
C       0.9849    0.688   0.4541     C
H       0.9855   0.2801   0.3626     H
H       0.9855   0.7801   0.8626     H
C       0.9859   0.1645    0.248     C
C       0.9859   0.6645    0.748     C
H       0.9873   0.0609    0.332     H
H       0.9873   0.5609    0.832     H
H       0.9878   0.2624   0.9416     H
H       0.9878   0.7624   0.4416     H
C        0.988   0.2726   0.5635     C
C        0.988   0.7726   0.0635     C
H       0.9883   0.2254   0.3379     H
H       0.9883   0.7254   0.8379     H
H       0.9886   0.0297    0.511     H
H       0.9886   0.5297    0.011     H
C       0.9888   0.2767   0.9646     C
C       0.9888   0.7767   0.4646     C
H       0.9892   0.2372   0.7803     H
H       0.9892   0.7372   0.2803     H
H       0.9897    0.143    0.561     H
H       0.9897    0.643    0.061     H
C       0.9916   0.3185   0.0319     C
C       0.9916   0.8185   0.5319     C
C       0.9924    0.221   0.1654     C
C       0.9924    0.721   0.6654     C
H       0.9926   0.4671   0.8575     H
H       0.9926   0.9671   0.3575     H
C       0.9927   0.3396   0.0691     C
C       0.9927   0.8396   0.5691     C
C       0.9928   0.2196   0.7633     C
C       0.9928   0.7196   0.2633     C
H       0.9931   0.0308   0.4335     H
H       0.9931   0.5308   0.9335     H
H       0.9943   0.1701   0.5949     H
H       0.9943   0.6701   0.0949     H
H       0.9952   0.3809   0.2394     H
H       0.9952   0.8809   0.7394     H
C       0.9966   0.1633    0.731     C
C       0.9966   0.6633    0.231     C
Cu      0.9987  0.25012  0.11646    Cu
Cu      0.9987  0.75012  0.61646    Cu
C       0.9999   0.3674   0.2146     C
C       0.9999   0.8674   0.7146     C
