data_I
_chemical_name_common  '/home/zhangsd/repos/MofS-CGCNN/ML/data/TSD/clean_cifs/HAPVAX_clean'
_cell_length_a 11.61820
_cell_length_b 15.58870
_cell_length_c 13.11340
_cell_angle_alpha 90.00000
_cell_angle_beta  90.00000
_cell_angle_gamma 90.00000
_space_group_name_H-M_alt      'P 1'


loop_
_space_group_symop_operation_xyz
  'x, y, z' 

loop_
_atom_site_label
_atom_site_fract_x
_atom_site_fract_y
_atom_site_fract_z
_atom_site_type_symbol
U          0.0      0.0      0.0     U
U          0.0      0.5      0.5     U
C       0.0008   0.2661   0.7805     C
C       0.0008   0.7661   0.7195     C
O        0.047   0.2386   0.6993     O
O        0.047   0.7386   0.8007     O
O       0.0514    0.291    0.859     O
O       0.0514    0.791    0.641     O
O       0.0689   0.3877   0.3952     O
O       0.0689   0.8877   0.1048     O
O       0.0747   0.0768   0.1426     O
O       0.0747   0.5768   0.3574     O
C       0.1259   0.3272   0.4337     C
C       0.1259   0.8272   0.0663     C
C       0.1266    0.145   0.1188     C
C       0.1266    0.645   0.3812     C
O       0.1292   0.1738   0.0303     O
O       0.1292   0.6738   0.4697     O
C       0.1298   0.2314   0.2811     C
C       0.1298   0.7314   0.2189     C
O       0.1319   0.3145   0.5276     O
O       0.1319   0.8145   0.9724     O
C       0.1898   0.1908   0.2029     C
C       0.1898   0.6908   0.2971     C
C       0.1902   0.2723   0.3596     C
C       0.1902   0.7723   0.1404     C
O         0.25   0.1779   0.8077     O
U         0.25    0.247  0.65705     U
Ce        0.25  0.28635  0.93879    Ce
O         0.25   0.3411   0.7336     O
O         0.25   0.6779   0.6923     O
U         0.25    0.747  0.84295     U
Ce        0.25  0.78635  0.56121    Ce
O         0.25   0.8411   0.7664     O
C       0.3098   0.2723   0.3596     C
C       0.3098   0.7723   0.1404     C
C       0.3102   0.1908   0.2029     C
C       0.3102   0.6908   0.2971     C
O       0.3681   0.3145   0.5276     O
O       0.3681   0.8145   0.9724     O
C       0.3702   0.2314   0.2811     C
C       0.3702   0.7314   0.2189     C
O       0.3708   0.1738   0.0303     O
O       0.3708   0.6738   0.4697     O
C       0.3734    0.145   0.1188     C
C       0.3734    0.645   0.3812     C
C       0.3741   0.3272   0.4337     C
C       0.3741   0.8272   0.0663     C
O       0.4253   0.0768   0.1426     O
O       0.4253   0.5768   0.3574     O
O       0.4311   0.3877   0.3952     O
O       0.4311   0.8877   0.1048     O
O       0.4486    0.291    0.859     O
O       0.4486    0.791    0.641     O
O        0.453   0.2386   0.6993     O
O        0.453   0.7386   0.8007     O
C       0.4992   0.2661   0.7805     C
C       0.4992   0.7661   0.7195     C
U          0.5      0.5      0.5     U
U          0.5      1.0      1.0     U
C       0.5008   0.2339   0.2805     C
C       0.5008   0.7339   0.2195     C
O        0.547   0.2614   0.1993     O
O        0.547   0.7614   0.3007     O
O       0.5514    0.209    0.359     O
O       0.5514    0.709    0.141     O
O       0.5689   0.1123   0.8952     O
O       0.5689   0.6123   0.6048     O
O       0.5747   0.4232   0.6426     O
O       0.5747   0.9232   0.8574     O
C       0.6259   0.1728   0.9337     C
C       0.6259   0.6728   0.5663     C
C       0.6266    0.355   0.6188     C
C       0.6266    0.855   0.8812     C
O       0.6292   0.3262   0.5303     O
O       0.6292   0.8262   0.9697     O
C       0.6298   0.2686   0.7811     C
C       0.6298   0.7686   0.7189     C
O       0.6319   0.1855   0.0276     O
O       0.6319   0.6855   0.4724     O
C       0.6898   0.3092   0.7029     C
C       0.6898   0.8092   0.7971     C
C       0.6902   0.2277   0.8596     C
C       0.6902   0.7277   0.6404     C
O         0.75   0.1589   0.2336     O
Ce        0.75  0.21365  0.43879    Ce
U         0.75    0.253  0.15705     U
O         0.75   0.3221   0.3077     O
O         0.75   0.6589   0.2664     O
Ce        0.75  0.71365  0.06121    Ce
U         0.75    0.753  0.34295     U
O         0.75   0.8221   0.1923     O
C       0.8098   0.2277   0.8596     C
C       0.8098   0.7277   0.6404     C
C       0.8102   0.3092   0.7029     C
C       0.8102   0.8092   0.7971     C
O       0.8681   0.1855   0.0276     O
O       0.8681   0.6855   0.4724     O
C       0.8702   0.2686   0.7811     C
C       0.8702   0.7686   0.7189     C
O       0.8708   0.3262   0.5303     O
O       0.8708   0.8262   0.9697     O
C       0.8734    0.355   0.6188     C
C       0.8734    0.855   0.8812     C
C       0.8741   0.1728   0.9337     C
C       0.8741   0.6728   0.5663     C
O       0.9253   0.4232   0.6426     O
O       0.9253   0.9232   0.8574     O
O       0.9311   0.1123   0.8952     O
O       0.9311   0.6123   0.6048     O
O       0.9486    0.209    0.359     O
O       0.9486    0.709    0.141     O
O        0.953   0.2614   0.1993     O
O        0.953   0.7614   0.3007     O
C       0.9992   0.2339   0.2805     C
C       0.9992   0.7339   0.2195     C
