data_I
_chemical_name_common  '/home/zhangsd/repos/MofS-CGCNN/ML/data/TSD/clean_cifs/HAPVEB_clean'
_cell_length_a 11.62800
_cell_length_b 15.57800
_cell_length_c 13.06500
_cell_angle_alpha 90.00000
_cell_angle_beta  90.00000
_cell_angle_gamma 90.00000
_space_group_name_H-M_alt      'P 1'


loop_
_space_group_symop_operation_xyz
  'x, y, z' 

loop_
_atom_site_label
_atom_site_fract_x
_atom_site_fract_y
_atom_site_fract_z
_atom_site_type_symbol
U          0.0      0.0      0.0     U
U          0.0      0.5      0.5     U
C       0.0012   0.2662   0.7829     C
C       0.0012   0.7662   0.7171     C
O        0.047    0.238   0.7014     O
O        0.047    0.738   0.7986     O
O       0.0521   0.2911   0.8612     O
O       0.0521   0.7911   0.6388     O
O       0.0697   0.3872   0.3963     O
O       0.0697   0.8872   0.1037     O
O       0.0739   0.0776   0.1422     O
O       0.0739   0.5776   0.3578     O
C       0.1252   0.3268   0.4364     C
C       0.1252   0.8268   0.0636     C
C        0.127   0.1456   0.1189     C
C        0.127   0.6456   0.3811     C
C       0.1295   0.2305    0.283     C
C       0.1295   0.7305    0.217     C
O       0.1305   0.1749    0.031     O
O       0.1305   0.6749    0.469     O
O       0.1318   0.3146   0.5301     O
O       0.1318   0.8146   0.9699     O
C       0.1899   0.1906   0.2047     C
C       0.1899   0.6906   0.2953     C
C       0.1902   0.2714   0.3617     C
C       0.1902   0.7714   0.1383     C
O         0.25   0.1774   0.8116     O
U         0.25  0.24607  0.65944     U
Nd        0.25   0.2857  0.93986    Nd
O         0.25   0.3403   0.7363     O
O         0.25   0.6774   0.6884     O
U         0.25  0.74607  0.84056     U
Nd        0.25   0.7857  0.56014    Nd
O         0.25   0.8403   0.7637     O
C       0.3098   0.2714   0.3617     C
C       0.3098   0.7714   0.1383     C
C       0.3101   0.1906   0.2047     C
C       0.3101   0.6906   0.2953     C
O       0.3682   0.3146   0.5301     O
O       0.3682   0.8146   0.9699     O
O       0.3695   0.1749    0.031     O
O       0.3695   0.6749    0.469     O
C       0.3705   0.2305    0.283     C
C       0.3705   0.7305    0.217     C
C        0.373   0.1456   0.1189     C
C        0.373   0.6456   0.3811     C
C       0.3748   0.3268   0.4364     C
C       0.3748   0.8268   0.0636     C
O       0.4261   0.0776   0.1422     O
O       0.4261   0.5776   0.3578     O
O       0.4303   0.3872   0.3963     O
O       0.4303   0.8872   0.1037     O
O       0.4479   0.2911   0.8612     O
O       0.4479   0.7911   0.6388     O
O        0.453    0.238   0.7014     O
O        0.453    0.738   0.7986     O
C       0.4988   0.2662   0.7829     C
C       0.4988   0.7662   0.7171     C
U          0.5      0.0      0.0     U
U          0.5      0.5      0.5     U
C       0.5012   0.2338   0.2829     C
C       0.5012   0.7338   0.2171     C
O        0.547    0.262   0.2014     O
O        0.547    0.762   0.2986     O
O       0.5521   0.2089   0.3612     O
O       0.5521   0.7089   0.1388     O
O       0.5697   0.1128   0.8963     O
O       0.5697   0.6128   0.6037     O
O       0.5739   0.4224   0.6422     O
O       0.5739   0.9224   0.8578     O
C       0.6252   0.1732   0.9364     C
C       0.6252   0.6732   0.5636     C
C        0.627   0.3544   0.6189     C
C        0.627   0.8544   0.8811     C
C       0.6295   0.2695    0.783     C
C       0.6295   0.7695    0.717     C
O       0.6305   0.3251    0.531     O
O       0.6305   0.8251    0.969     O
O       0.6318   0.1854   0.0301     O
O       0.6318   0.6854   0.4699     O
C       0.6899   0.3094   0.7047     C
C       0.6899   0.8094   0.7953     C
C       0.6902   0.2286   0.8617     C
C       0.6902   0.7286   0.6383     C
O         0.75   0.1597   0.2363     O
Nd        0.75   0.2143  0.43986    Nd
U         0.75  0.25393  0.15944     U
O         0.75   0.3226   0.3116     O
O         0.75   0.6597   0.2637     O
Nd        0.75   0.7143  0.06014    Nd
U         0.75  0.75393  0.34056     U
O         0.75   0.8226   0.1884     O
C       0.8098   0.2286   0.8617     C
C       0.8098   0.7286   0.6383     C
C       0.8101   0.3094   0.7047     C
C       0.8101   0.8094   0.7953     C
O       0.8682   0.1854   0.0301     O
O       0.8682   0.6854   0.4699     O
O       0.8695   0.3251    0.531     O
O       0.8695   0.8251    0.969     O
C       0.8705   0.2695    0.783     C
C       0.8705   0.7695    0.717     C
C        0.873   0.3544   0.6189     C
C        0.873   0.8544   0.8811     C
C       0.8748   0.1732   0.9364     C
C       0.8748   0.6732   0.5636     C
O       0.9261   0.4224   0.6422     O
O       0.9261   0.9224   0.8578     O
O       0.9303   0.1128   0.8963     O
O       0.9303   0.6128   0.6037     O
O       0.9479   0.2089   0.3612     O
O       0.9479   0.7089   0.1388     O
O        0.953    0.262   0.2014     O
O        0.953    0.762   0.2986     O
C       0.9988   0.2338   0.2829     C
C       0.9988   0.7338   0.2171     C
