data_I
_chemical_name_common  '/home/zhangsd/repos/MofS-CGCNN/ML/data/TSD/clean_cifs/HAWREE_clean'
_cell_length_a 11.10530
_cell_length_b 12.57670
_cell_length_c 20.07510
_cell_angle_alpha 82.84000
_cell_angle_beta  77.76500
_cell_angle_gamma 79.25800
_space_group_name_H-M_alt      'P 1'


loop_
_space_group_symop_operation_xyz
  'x, y, z' 

loop_
_atom_site_label
_atom_site_fract_x
_atom_site_fract_y
_atom_site_fract_z
_atom_site_type_symbol
H       0.0049   0.6486   0.7726     H
C       0.0054   0.9288   0.7508     C
C       0.0184   0.5074   0.2372     C
C       0.0304   0.9565   0.2481     C
H       0.0311   0.1854   0.7575     H
C       0.0547   0.1091   0.7556     C
C       0.0554   0.3932   0.2319     C
H       0.0563   0.1136   0.2505     H
H       0.0758   0.6473   0.2478     H
C        0.101   0.5717   0.2435     C
C        0.115   0.4442   0.7661     C
C       0.1246   0.8776   0.7517     C
H       0.1474   0.8011    0.751     H
O       0.1527   0.3474  0.75094     O
C       0.1631   0.9068   0.2529     C
H       0.1746   0.7549   0.9457     H
C       0.1753   0.3423   0.2331     C
C       0.1774   0.0572   0.7565     C
O       0.1799   0.5033  0.78381     O
H        0.184   0.6724   0.8624     H
O       0.1988   0.8081  0.24261     O
H       0.1993   0.2661   0.2304     H
H       0.2087   0.2165   0.4296     H
H        0.212    0.828   0.8758     H
C       0.2128   0.9447   0.7538     C
H       0.2229   0.1428    0.342     H
C       0.2245   0.5209   0.2433     C
O       0.2285   0.9676  0.26759     O
C       0.2404   0.7643   0.9054     C
C       0.2616   0.4089   0.2387     C
H       0.2636   0.2902   0.3633     H
C       0.2644   0.6814   0.8731     C
H       0.2795   0.6982   0.7912     H
C       0.2809   0.2229   0.3925     C
N       0.2833   0.0985   0.7574     N
H       0.2862   0.6196   0.9064     H
O       0.2893   0.2829  0.87448     O
H       0.2978   0.6601   0.4868     H
C       0.3015   0.1434   0.3576     C
H       0.3134   0.0778   0.3899     H
H       0.3159   0.7749     0.92     H
H       0.3214    0.155   0.9766     H
O       0.3262   0.7478  0.36883     O
Mn      0.3263  0.25547  0.77027    Mn
N       0.3277   0.6044   0.6217     N
N       0.3293   0.5621   0.2466     N
C       0.3351   0.7077   0.5063     C
N       0.3377   0.9208   0.7532     N
O       0.3441   0.6658  0.81909     O
C       0.3464   0.3403   0.8999     C
C       0.3498   0.6893   0.5746     C
C       0.3535    0.202   0.9995     C
H       0.3544   0.2244   0.4119     H
N        0.364   0.6236   0.6767     N
Mn     0.37142  0.51055   0.7722    Mn
Mn     0.37152  0.71754   0.2654    Mn
C       0.3722   0.3048   0.9704     C
N       0.3759    0.014   0.7553     N
C       0.3759   0.8131   0.3925     C
C       0.3768   0.7975   0.4682     C
N       0.3779   0.0738   0.1051     N
C        0.384   0.1699   0.0642     C
N       0.3852   0.3851     0.24     N
O       0.3881   0.1284  0.30598     O
O       0.3885   0.4231   0.8695     O
C       0.3994   0.7618   0.6044     C
N       0.4072   0.7178   0.6691     N
N       0.4188   0.0869   0.1603     N
C       0.4193   0.3746   0.0051     C
Mn     0.41963   0.9747  0.25766    Mn
H       0.4197   0.0623   0.3065     H
N        0.423   0.4775   0.2443     N
C       0.4242   0.8719   0.4993     C
O       0.4273   0.8891  0.35831     O
H       0.4301    0.445   0.9839     H
C       0.4319   0.2392   0.0977     C
C        0.435   0.8569   0.5673     C
H       0.4376   0.3807   0.6678     H
O       0.4419   0.3668  0.71745     O
H       0.4495   0.9344   0.4723     H
C       0.4499   0.3444    0.068     C
N       0.4533   0.1846   0.1582     N
H        0.465   0.9082   0.5878     H
Mn     0.47676  0.76862  0.75526    Mn
H       0.4817   0.3919   0.0906     H
H       0.4827   0.8357   0.1595     H
O        0.486   0.8264  0.20931     O
O        0.514   0.1736  0.79069     O
H       0.5173   0.1643   0.8405     H
H       0.5183   0.6081   0.9094     H
Mn     0.52324  0.23138  0.24474    Mn
H        0.535   0.0918   0.4122     H
N       0.5467   0.8154   0.8418     N
C       0.5501   0.6556    0.932     C
H       0.5505   0.0656   0.5277     H
O       0.5581   0.6332  0.28255     O
H       0.5624   0.6193   0.3322     H
C        0.565   0.1431   0.4327     C
C       0.5681   0.7608   0.9023     C
H       0.5699    0.555   0.0161     H
O       0.5727   0.1109  0.64169     O
C       0.5758   0.1281   0.5007     C
N        0.577   0.5225   0.7557     N
H       0.5803   0.9377   0.6935     H
Mn     0.58037   0.0253  0.74234    Mn
C       0.5807   0.6254   0.9949     C
N       0.5812   0.9131   0.8397     N
N       0.5928   0.2822   0.3309     N
C       0.6006   0.2382   0.3956     C
O       0.6115   0.5769   0.1305     O
O       0.6119   0.8716  0.69402     O
N       0.6148   0.6149     0.76     N
C        0.616   0.8301   0.9358     C
N       0.6221   0.9262   0.8949     N
C       0.6232   0.2025   0.5318     C
C       0.6241   0.1869   0.6075     C
N       0.6241    0.986   0.2447     N
C       0.6278   0.6952   0.0296     C
Mn     0.62848  0.28246   0.7346    Mn
Mn     0.62858  0.48945   0.2278    Mn
N        0.636   0.3764   0.3233     N
H       0.6456   0.7756   0.5881     H
C       0.6465    0.798   0.0005     C
C       0.6502   0.3107   0.4254     C
C       0.6536   0.6597   0.1001     C
O       0.6559   0.3342  0.18091     O
N       0.6623   0.0792   0.2468     N
C       0.6649   0.2923   0.4937     C
N       0.6707   0.4379   0.7534     N
N       0.6723   0.3956   0.3783     N
Mn      0.6737  0.74453  0.22973    Mn
O       0.6738   0.2522  0.63117     O
H       0.6786    0.845   0.0234     H
H       0.6841   0.2251     0.08     H
H       0.6866   0.9222   0.6101     H
C       0.6985   0.8566   0.6424     C
H       0.7022   0.3399   0.5132     H
O       0.7107   0.7171  0.12552     O
H       0.7138   0.3804   0.0936     H
N       0.7167   0.9015   0.2426     N
C       0.7191   0.7771   0.6075     C
H       0.7205   0.3018   0.2088     H
C       0.7356   0.3186   0.1269     C
H       0.7364   0.7098   0.6367     H
C       0.7384   0.5911   0.7613     C
C       0.7596   0.2357   0.0946     C
O       0.7715   0.0324  0.73241     O
C       0.7755   0.4791   0.7567     C
H       0.7771   0.8572    0.658     H
C       0.7872   0.0553   0.2462     C
H        0.788    0.172   0.1242     H
H       0.7913   0.7835   0.5704     H
H       0.8007   0.7339   0.7696     H
O       0.8012   0.1919  0.75739     O
H        0.816   0.3276   0.1376     H
O       0.8201   0.4967  0.21619     O
C       0.8226   0.9428   0.2435     C
C       0.8247   0.6577   0.7669     C
H       0.8254   0.2451   0.0543     H
C       0.8369   0.0932   0.7471     C
O       0.8473   0.6526  0.24906     O
H       0.8526   0.1989    0.249     H
C       0.8754   0.1224   0.2483     C
C        0.885   0.5558   0.2339     C
C        0.899   0.4283   0.7565     C
H       0.9242   0.3527   0.7522     H
H       0.9437   0.8864   0.7495     H
C       0.9446   0.6068   0.7681     C
C       0.9453   0.8909   0.2444     C
H       0.9689   0.8146   0.2425     H
C       0.9696   0.0435   0.7519     C
C       0.9816   0.4926   0.7628     C
C       0.9946   0.0712   0.2492     C
H       0.9951   0.3514   0.2274     H
