data_I
_chemical_name_common  '/home/zhangsd/repos/MofS-CGCNN/ML/data/TSD/clean_cifs/HAWWUZ_clean'
_cell_length_a 12.14550
_cell_length_b 17.00720
_cell_length_c 25.59370
_cell_angle_alpha 102.38500
_cell_angle_beta  90.00000
_cell_angle_gamma 90.00000
_space_group_name_H-M_alt      'P 1'


loop_
_space_group_symop_operation_xyz
  'x, y, z' 

loop_
_atom_site_label
_atom_site_fract_x
_atom_site_fract_y
_atom_site_fract_z
_atom_site_type_symbol
H       0.0161   0.0754   0.2357     H
H       0.0161   0.4246   0.2643     H
Nd      0.0274  0.51463  0.08101    Nd
Nd      0.0274  0.98537  0.41899    Nd
O       0.0284   0.0339   0.3335     O
O       0.0284   0.4661   0.1665     O
C       0.0539   0.5529   0.7301     C
C       0.0539   0.9471   0.7699     C
C       0.0569   0.0034   0.6857     C
C       0.0569   0.4966   0.8143     C
O       0.0888  0.11398  0.47208     O
O       0.0888  0.38602  0.02792     O
O        0.093   0.1192   0.5601     O
O        0.093   0.3808   0.9399     O
H       0.0997   0.5835    0.659     H
H       0.0997   0.9165    0.841     H
C       0.1028   0.5121   0.7633     C
C       0.1028   0.9879   0.7367     C
O       0.1048   0.0519   0.6628     O
O       0.1048   0.4481   0.8372     O
O       0.1122  0.54855  0.00245     O
O       0.1122  0.95145  0.49755     O
C       0.1159    0.145   0.5189     C
C       0.1159    0.355   0.9811     C
C       0.1209   0.5577    0.686     C
C       0.1209   0.9423    0.814     C
O       0.1304   0.5833   0.9252     O
O       0.1304   0.9167   0.5748     O
C       0.1533   0.5922   0.9736     C
C       0.1533   0.9078   0.5264     C
C       0.1835   0.2208   0.5264     C
C       0.1835   0.2792   0.9736     C
S      0.20991  0.23841  0.02757     S
S      0.20991  0.26159  0.47243     S
C       0.2188    0.521    0.687     C
C       0.2188    0.979    0.813     C
C       0.2291   0.6585   0.9982     C
C       0.2291   0.8415   0.5018     C
S      0.23017  0.02213  0.75852     S
S      0.23017  0.47787  0.74148     S
H       0.2319    0.248   0.6039     H
H       0.2319    0.252   0.8961     H
C       0.2347   0.2372    0.929     C
C       0.2347   0.2628    0.571     C
H        0.255   0.6466   0.0747     H
H        0.255   0.8534   0.4253     H
C        0.269   0.6771   0.0493     C
C        0.269   0.8229   0.4507     C
S      0.27527  0.72498  0.96174     S
S      0.27527  0.77502  0.53826     S
C       0.2868    0.162   0.9889     C
C       0.2868    0.338   0.5111     C
C       0.2921   0.1695   0.9374     C
C       0.2921   0.3305   0.5626     C
O       0.2995   0.5592   0.6127     O
O       0.2995   0.9408   0.8873     O
C       0.3103   0.5202   0.6491     C
C       0.3103   0.9798   0.8509     C
H       0.3295   0.1338   0.9106     H
H       0.3295   0.3662   0.5894     H
C       0.3332   0.7466   0.0589     C
C       0.3332   0.7534   0.4411     C
O       0.3349   0.1144   0.0653     O
O       0.3349   0.3856   0.4347     O
C       0.3391   0.1028    0.015     C
C       0.3391   0.3972    0.485     C
C       0.3412   0.7194   0.4844     C
C       0.3412   0.7806   0.0156     C
H        0.367   0.7325   0.4085     H
H        0.367   0.7675   0.0915     H
O       0.3889   0.0424    0.988     O
O       0.3889   0.4576    0.512     O
O       0.3989   0.0174   0.8457     O
O       0.3989   0.4826   0.6543     O
C       0.3991   0.6433   0.4886     C
C       0.3991   0.8567   0.0114     C
O       0.4201   0.5942   0.4455     O
O       0.4201   0.9058   0.0545     O
O       0.4203   0.6349   0.5349     O
O       0.4203   0.8651   0.9651     O
Nd     0.49908  0.53925  0.58282    Nd
Nd     0.49908  0.96075  0.91718    Nd
Nd     0.50092  0.03925  0.08282    Nd
Nd     0.50092  0.46075  0.41718    Nd
O       0.5797   0.1349   0.0349     O
O       0.5797   0.3651   0.4651     O
O       0.5799   0.0942   0.9455     O
O       0.5799   0.4058   0.5545     O
C       0.6009   0.1433   0.9886     C
C       0.6009   0.3567   0.5114     C
O       0.6011   0.5174   0.3457     O
O       0.6011   0.9826   0.1543     O
O       0.6111   0.5424    0.488     O
O       0.6111   0.9576    0.012     O
H        0.633   0.2325   0.9085     H
H        0.633   0.2675   0.5915     H
C       0.6588   0.2194   0.9844     C
C       0.6588   0.2806   0.5156     C
C       0.6609   0.6028    0.515     C
C       0.6609   0.8972    0.985     C
O       0.6651   0.6144   0.5653     O
O       0.6651   0.8856   0.9347     O
C       0.6668   0.2466   0.5589     C
C       0.6668   0.2534   0.9411     C
H       0.6705   0.6338   0.4106     H
H       0.6705   0.8662   0.0894     H
C       0.6897   0.0202   0.1491     C
C       0.6897   0.4798   0.3509     C
O       0.7005   0.0592   0.1127     O
O       0.7005   0.4408   0.3873     O
C       0.7079   0.6695   0.4374     C
C       0.7079   0.8305   0.0626     C
C       0.7132    0.662   0.4889     C
C       0.7132    0.838   0.0111     C
S      0.72473  0.22498  0.46174     S
S      0.72473  0.27502  0.03826     S
C        0.731   0.1771   0.5493     C
C        0.731   0.3229   0.9507     C
H        0.745   0.1466   0.5747     H
H        0.745   0.3534   0.9253     H
C       0.7653   0.7372    0.429     C
C       0.7653   0.7628    0.071     C
H       0.7681    0.748   0.1039     H
H       0.7681    0.752   0.3961     H
S      0.76983  0.52213  0.25852     S
S      0.76983  0.97787  0.24148     S
C       0.7709   0.1585   0.4982     C
C       0.7709   0.3415   0.0018     C
C       0.7812    0.021    0.187     C
C       0.7812    0.479    0.313     C
S      0.79009  0.73841  0.52757     S
S      0.79009  0.76159  0.97243     S
C       0.8165   0.7208   0.0264     C
C       0.8165   0.7792   0.4736     C
C       0.8467   0.0922   0.4736     C
C       0.8467   0.4078   0.0264     C
O       0.8696   0.0833   0.4252     O
O       0.8696   0.4167   0.0748     O
C       0.8791   0.0577    0.186     C
C       0.8791   0.4423    0.314     C
C       0.8841    0.645   0.0189     C
C       0.8841    0.855   0.4811     C
O       0.8878  0.04855  0.50245     O
O       0.8878  0.45145  0.99755     O
O       0.8952   0.5519   0.1628     O
O       0.8952   0.9481   0.3372     O
C       0.8972   0.0121   0.2633     C
C       0.8972   0.4879   0.2367     C
H       0.9003   0.0835    0.159     H
H       0.9003   0.4165    0.341     H
O        0.907   0.6192   0.0601     O
O        0.907   0.8808   0.4399     O
O       0.9112  0.61398  0.97208     O
O       0.9112  0.88602  0.52792     O
C       0.9431   0.5034   0.1857     C
C       0.9431   0.9966   0.3143     C
C       0.9461   0.0529   0.2301     C
C       0.9461   0.4471   0.2699     C
O       0.9716   0.5339   0.8335     O
O       0.9716   0.9661   0.6665     O
Nd      0.9726  0.01463  0.58101    Nd
Nd      0.9726  0.48537  0.91899    Nd
H       0.9839   0.5754   0.7357     H
H       0.9839   0.9246   0.7643     H
