data_I
_chemical_name_common  '/home/zhangsd/repos/MofS-CGCNN/ML/data/TSD/clean_cifs/HAWWIN_clean'
_cell_length_a 11.68710
_cell_length_b 17.34130
_cell_length_c 25.85120
_cell_angle_alpha 102.30100
_cell_angle_beta  90.00000
_cell_angle_gamma 90.00000
_space_group_name_H-M_alt      'P 1'


loop_
_space_group_symop_operation_xyz
  'x, y, z' 

loop_
_atom_site_label
_atom_site_fract_x
_atom_site_fract_y
_atom_site_fract_z
_atom_site_type_symbol
H       0.0281   0.5765   0.2366     H
H       0.0281   0.9235   0.2634     H
Nd     0.02827  0.01322  0.08097    Nd
Nd     0.02827  0.48678  0.41903    Nd
O       0.0334  0.53951  0.33551     O
O       0.0334  0.96049  0.16449     O
C       0.0433   0.0526   0.7303     C
C       0.0433   0.4474   0.7697     C
C       0.0504  0.50001  0.68491     C
C       0.0504  0.99999  0.81509     C
H       0.0878   0.0801   0.6587     H
H       0.0878   0.4199   0.8413     H
O       0.0904  0.61225  0.47325     O
O       0.0904  0.88775  0.02675     O
C       0.0944   0.0115   0.7637     C
C       0.0944   0.4885   0.7363     C
O       0.0951  0.61778  0.56068     O
O       0.0951  0.88222  0.93932     O
O       0.0989  0.55006  0.66336     O
O       0.0989  0.94994  0.83664     O
C       0.1102   0.0547   0.6853     C
C       0.1102   0.4453   0.8147     C
C       0.1174   0.6432   0.5196     C
C       0.1174   0.8568   0.9804     C
O       0.1198  0.04575  0.00345     O
O       0.1198  0.45425  0.49655     O
O        0.137  0.08031  0.92681     O
O        0.137  0.41969  0.57319     O
C       0.1595   0.0913   0.9748     C
C       0.1595   0.4087   0.5252     C
C       0.1836    0.718   0.5269     C
C       0.1836    0.782   0.9731     C
C       0.2102   0.0161   0.6851     C
C       0.2102   0.4839   0.8149     C
S      0.21398  0.74407  0.02769     S
S      0.21398  0.75593  0.47231     S
H       0.2243   0.7495   0.8953     H
H       0.2243   0.7505   0.6047     H
S      0.22462  0.52557  0.76051     S
S      0.22462  0.97443  0.73949     S
C       0.2309   0.7375   0.9286     C
C       0.2309   0.7625   0.5714     C
C        0.231  0.15885  0.99975     C
C        0.231  0.34115  0.50025     C
H        0.265   0.1442   0.0738     H
H        0.265   0.3558   0.4262     H
S      0.26632  0.22917  0.96525     S
S      0.26632  0.27083  0.53475     S
C       0.2747   0.1761   0.0494     C
C       0.2747   0.3239   0.4506     C
O       0.2863  0.04363  0.60703     O
O       0.2863  0.45637  0.89297     O
C       0.2891    0.667   0.9899     C
C       0.2891    0.833   0.5101     C
C        0.291   0.6712   0.9381     C
C        0.291   0.8288   0.5619     C
C        0.304   0.0119   0.6462     C
C        0.304   0.4881   0.8538     C
H       0.3278   0.6346   0.9118     H
H       0.3278   0.8654   0.5882     H
C       0.3358   0.2471     0.06     C
C       0.3358   0.2529     0.44     C
C       0.3375   0.2163   0.4812     C
C       0.3375   0.2837   0.0188     C
C       0.3449   0.6104   0.0176     C
C       0.3449   0.8896   0.4824     C
O       0.3513  0.62976  0.06656     O
O       0.3513  0.87024  0.43344     O
H       0.3717   0.2329   0.4078     H
H       0.3717   0.2671   0.0922     H
O       0.3876  0.54667  0.99187     O
O       0.3876  0.95333  0.50813     O
C       0.3907   0.1399   0.4852     C
C       0.3907   0.3601   0.0148     C
O       0.3965  0.51975  0.84735     O
O       0.3965  0.98025  0.65265     O
O       0.4019   0.1276    0.531     O
O       0.4019   0.3724    0.969     O
O       0.4188  0.09413  0.44283     O
O       0.4188  0.40587  0.05717     O
Nd     0.49206  0.03928  0.58059    Nd
Nd     0.49206  0.46072  0.91941    Nd
Nd     0.50794  0.53928  0.08059    Nd
Nd     0.50794  0.96072  0.41941    Nd
O       0.5812  0.59413  0.94283     O
O       0.5812  0.90587  0.55717     O
O       0.5981   0.6276    0.031     O
O       0.5981   0.8724    0.469     O
O       0.6035  0.01975  0.34735     O
O       0.6035  0.48025  0.15265     O
C       0.6093   0.6399   0.9852     C
C       0.6093   0.8601   0.5148     C
O       0.6124  0.04667  0.49187     O
O       0.6124  0.45333  0.00813     O
H       0.6283   0.7329   0.9078     H
H       0.6283   0.7671   0.5922     H
O       0.6487  0.12976  0.56656     O
O       0.6487  0.37024  0.93344     O
C       0.6551   0.1104   0.5176     C
C       0.6551   0.3896   0.9824     C
C       0.6625   0.7163   0.9812     C
C       0.6625   0.7837   0.5188     C
C       0.6642   0.7471     0.56     C
C       0.6642   0.7529     0.94     C
H       0.6722   0.1346   0.4118     H
H       0.6722   0.3654   0.0882     H
C        0.696   0.5119   0.1462     C
C        0.696   0.9881   0.3538     C
C        0.709   0.1712   0.4381     C
C        0.709   0.3288   0.0619     C
C       0.7109    0.167   0.4899     C
C       0.7109    0.333   0.0101     C
O       0.7137  0.54363  0.10703     O
O       0.7137  0.95637  0.39297     O
C       0.7253   0.6761   0.5494     C
C       0.7253   0.8239   0.9506     C
S      0.73368  0.72917  0.46525     S
S      0.73368  0.77083  0.03475     S
H        0.735   0.6442   0.5738     H
H        0.735   0.8558   0.9262     H
C        0.769  0.65885  0.49975     C
C        0.769  0.84115  0.00025     C
C       0.7691   0.2375   0.4286     C
C       0.7691   0.2625   0.0714     C
S      0.77538  0.02557  0.26051     S
S      0.77538  0.47443  0.23949     S
H       0.7757   0.2495   0.3953     H
H       0.7757   0.2505   0.1047     H
S      0.78602  0.24407  0.52769     S
S      0.78602  0.25593  0.97231     S
C       0.7898   0.5161   0.1851     C
C       0.7898   0.9839   0.3149     C
C       0.8164    0.218   0.0269     C
C       0.8164    0.282   0.4731     C
C       0.8405   0.5913   0.4748     C
C       0.8405   0.9087   0.0252     C
O        0.863  0.58031  0.42681     O
O        0.863  0.91969  0.07319     O
O       0.8802  0.54575  0.50345     O
O       0.8802  0.95425  0.99655     O
C       0.8826   0.1432   0.0196     C
C       0.8826   0.3568   0.4804     C
C       0.8898   0.5547   0.1853     C
C       0.8898   0.9453   0.3147     C
O       0.9011  0.05006  0.16336     O
O       0.9011  0.44994  0.33664     O
O       0.9049  0.11778  0.06068     O
O       0.9049  0.38222  0.43932     O
C       0.9056   0.5115   0.2637     C
C       0.9056   0.9885   0.2363     C
O       0.9096  0.11225  0.97325     O
O       0.9096  0.38775  0.52675     O
H       0.9122   0.5801   0.1587     H
H       0.9122   0.9199   0.3413     H
C       0.9496    1e-05  0.18491     C
C       0.9496  0.49999  0.31509     C
C       0.9567   0.5526   0.2303     C
C       0.9567   0.9474   0.2697     C
O       0.9666  0.03951  0.83551     O
O       0.9666  0.46049  0.66449     O
Nd     0.97173  0.51322  0.58097    Nd
Nd     0.97173  0.98678  0.91903    Nd
H       0.9719   0.0765   0.7366     H
H       0.9719   0.4235   0.7634     H
