data_I
_chemical_name_common  '/home/zhangsd/repos/MofS-CGCNN/ML/data/TSD/clean_cifs/HAWWEK_clean'
_cell_length_a 18.90110
_cell_length_b 14.84880
_cell_length_c 12.93020
_cell_angle_alpha 90.00000
_cell_angle_beta  90.00000
_cell_angle_gamma 90.00000
_space_group_name_H-M_alt      'P 1'


loop_
_space_group_symop_operation_xyz
  'x, y, z' 

loop_
_atom_site_label
_atom_site_fract_x
_atom_site_fract_y
_atom_site_fract_z
_atom_site_type_symbol
Cu         0.0      0.0    0.724    Cu
Cu         0.0      0.5    0.224    Cu
N       0.0693   0.0781   0.8031     N
N       0.0693   0.5781   0.3031     N
N       0.0711    0.424   0.1461     N
N       0.0711    0.924   0.6461     N
H        0.079   0.1715   0.6981     H
H        0.079   0.6715   0.1981     H
H       0.0794   0.3303   0.2509     H
H       0.0794   0.8303   0.7509     H
H       0.0819    0.001   0.9269     H
H       0.0819    0.501   0.4269     H
H       0.0829   0.0003   0.5218     H
H       0.0829   0.5003   0.0218     H
C        0.097   0.1516   0.7611     C
C        0.097   0.6516   0.2611     C
C       0.0979   0.3503   0.1883     C
C       0.0979   0.8503   0.6883     C
C       0.0986   0.0525    0.894     C
C       0.0986   0.5525    0.394     C
C       0.0999   0.4491    0.055     C
C       0.0999   0.9491    0.555     C
C       0.1501   0.1991    0.805     C
C       0.1501   0.6991    0.305     C
C       0.1514   0.3025    0.144     C
C       0.1514   0.8025    0.644     C
C       0.1521   0.1003   0.9383     C
C       0.1521   0.6003   0.4383     C
C        0.153   0.4016   0.0111     C
C        0.153   0.9016   0.5111     C
H       0.1671   0.2503   0.7718     H
H       0.1671   0.7503   0.2718     H
H       0.1681    0.251   0.1769     H
H       0.1681    0.751   0.6769     H
H       0.1706   0.0803   0.0009     H
H       0.1706   0.5803   0.5009     H
H        0.171   0.4215   0.9481     H
H        0.171   0.9215   0.4481     H
N       0.1789    0.174   0.8961     N
N       0.1789    0.674   0.3961     N
N       0.1807   0.3281   0.0531     N
N       0.1807   0.8281   0.5531     N
Cu        0.25     0.25    0.974    Cu
Cu        0.25     0.75    0.474    Cu
N       0.3193   0.1719   0.0531     N
N       0.3193   0.6719   0.5531     N
N       0.3211    0.326   0.8961     N
N       0.3211    0.826   0.3961     N
H        0.329   0.0785   0.9481     H
H        0.329   0.5785   0.4481     H
H       0.3294   0.4197   0.0009     H
H       0.3294   0.9197   0.5009     H
H       0.3319    0.249   0.1769     H
H       0.3319    0.749   0.6769     H
H       0.3329   0.2497   0.7718     H
H       0.3329   0.7497   0.2718     H
C        0.347   0.0984   0.0111     C
C        0.347   0.5984   0.5111     C
C       0.3479   0.3997   0.9383     C
C       0.3479   0.8997   0.4383     C
C       0.3486   0.1975    0.144     C
C       0.3486   0.6975    0.644     C
C       0.3499   0.3009    0.805     C
C       0.3499   0.8009    0.305     C
C       0.4001   0.0509    0.055     C
C       0.4001   0.5509    0.555     C
C       0.4014   0.4475    0.894     C
C       0.4014   0.9475    0.394     C
C       0.4021   0.1497   0.1883     C
C       0.4021   0.6497   0.6883     C
C        0.403   0.3484   0.7611     C
C        0.403   0.8484   0.2611     C
H       0.4171   0.4997   0.5218     H
H       0.4171   0.9997   0.0218     H
H       0.4181    0.499   0.9269     H
H       0.4181    0.999   0.4269     H
H       0.4206   0.1697   0.2509     H
H       0.4206   0.6697   0.7509     H
H        0.421   0.3285   0.6981     H
H        0.421   0.8285   0.1981     H
N       0.4289    0.076   0.1461     N
N       0.4289    0.576   0.6461     N
N       0.4307   0.4219   0.8031     N
N       0.4307   0.9219   0.3031     N
Cu         0.5      0.0    0.224    Cu
Cu         0.5      0.5    0.724    Cu
N       0.5693   0.0781   0.3031     N
N       0.5693   0.5781   0.8031     N
N       0.5711    0.424   0.6461     N
N       0.5711    0.924   0.1461     N
H        0.579   0.1715   0.1981     H
H        0.579   0.6715   0.6981     H
H       0.5794   0.3303   0.7509     H
H       0.5794   0.8303   0.2509     H
H       0.5819    0.001   0.4269     H
H       0.5819    0.501   0.9269     H
H       0.5829   0.0003   0.0218     H
H       0.5829   0.5003   0.5218     H
C        0.597   0.1516   0.2611     C
C        0.597   0.6516   0.7611     C
C       0.5979   0.3503   0.6883     C
C       0.5979   0.8503   0.1883     C
C       0.5986   0.0525    0.394     C
C       0.5986   0.5525    0.894     C
C       0.5999   0.4491    0.555     C
C       0.5999   0.9491    0.055     C
C       0.6501   0.1991    0.305     C
C       0.6501   0.6991    0.805     C
C       0.6514   0.3025    0.644     C
C       0.6514   0.8025    0.144     C
C       0.6521   0.1003   0.4383     C
C       0.6521   0.6003   0.9383     C
C        0.653   0.4016   0.5111     C
C        0.653   0.9016   0.0111     C
H       0.6671   0.2503   0.2718     H
H       0.6671   0.7503   0.7718     H
H       0.6681    0.251   0.6769     H
H       0.6681    0.751   0.1769     H
H       0.6706   0.0803   0.5009     H
H       0.6706   0.5803   0.0009     H
H        0.671   0.4215   0.4481     H
H        0.671   0.9215   0.9481     H
N       0.6789    0.174   0.3961     N
N       0.6789    0.674   0.8961     N
N       0.6807   0.3281   0.5531     N
N       0.6807   0.8281   0.0531     N
Cu        0.75     0.25    0.474    Cu
Cu        0.75     0.75    0.974    Cu
N       0.8193   0.1719   0.5531     N
N       0.8193   0.6719   0.0531     N
N       0.8211    0.326   0.3961     N
N       0.8211    0.826   0.8961     N
H        0.829   0.0785   0.4481     H
H        0.829   0.5785   0.9481     H
H       0.8294   0.4197   0.5009     H
H       0.8294   0.9197   0.0009     H
H       0.8319    0.249   0.6769     H
H       0.8319    0.749   0.1769     H
H       0.8329   0.2497   0.2718     H
H       0.8329   0.7497   0.7718     H
C        0.847   0.0984   0.5111     C
C        0.847   0.5984   0.0111     C
C       0.8479   0.3997   0.4383     C
C       0.8479   0.8997   0.9383     C
C       0.8486   0.1975    0.644     C
C       0.8486   0.6975    0.144     C
C       0.8499   0.3009    0.305     C
C       0.8499   0.8009    0.805     C
C       0.9001   0.0509    0.555     C
C       0.9001   0.5509    0.055     C
C       0.9014   0.4475    0.394     C
C       0.9014   0.9475    0.894     C
C       0.9021   0.1497   0.6883     C
C       0.9021   0.6497   0.1883     C
C        0.903   0.3484   0.2611     C
C        0.903   0.8484   0.7611     C
H       0.9171   0.4997   0.0218     H
H       0.9171   0.9997   0.5218     H
H       0.9181    0.499   0.4269     H
H       0.9181    0.999   0.9269     H
H       0.9206   0.1697   0.7509     H
H       0.9206   0.6697   0.2509     H
H        0.921   0.3285   0.1981     H
H        0.921   0.8285   0.6981     H
N       0.9289    0.076   0.6461     N
N       0.9289    0.576   0.1461     N
N       0.9307   0.4219   0.3031     N
N       0.9307   0.9219   0.8031     N
