data_I
_chemical_name_common  '/home/zhangsd/repos/MofS-CGCNN/ML/data/TSD/clean_cifs/HAZGOF05_clean_h'
_cell_length_a  8.73460
_cell_length_b 11.24890
_cell_length_c 17.72290
_cell_angle_alpha 84.51020
_cell_angle_beta  75.73450
_cell_angle_gamma 67.15510
_space_group_name_H-M_alt      'P 1'


loop_
_space_group_symop_operation_xyz
  'x, y, z' 

loop_
_atom_site_label
_atom_site_fract_x
_atom_site_fract_y
_atom_site_fract_z
_atom_site_type_symbol
O      0.01189  0.17004  0.31578     O
C      0.01364  0.47272     0.25     C
C      0.01851  0.18054  0.75064     C
C      0.04088  0.06254   0.4385     C
C      0.05031  0.68054  0.25064     C
C      0.06078  0.37844     0.75     C
O      0.06713  0.58386  0.77078     O
H      0.06776  0.87441   0.2479     H
C      0.10016  0.96074  0.55634     C
C      0.10019  0.14052   0.3665     C
O      0.10699  0.16924  0.14064     O
Sc     0.11427     0.75  0.77146    Sc
O      0.15099  0.41614  0.27078     O
C      0.15348  0.03054   0.4899     C
O      0.16209  0.91614  0.77078     O
H      0.17141  0.06069  0.02484     H
H      0.17755  0.92675  0.60295     H
C      0.18922  0.12156     0.75     C
H      0.19007  0.62559   0.2521     H
H      0.19625  0.56069  0.97516     H
H      0.22143  0.57463  0.60399     H
O      0.22377  0.16924  0.35936     O
C      0.23085  0.31946  0.75064     C
O      0.24763  0.66924  0.85936     O
H      0.25695  0.43931  0.47516     H
C      0.25929  0.14052   0.1335     C
C      0.26364  0.97272     0.75     C
H      0.26789  0.06069  0.47516     H
H      0.29605  0.42537    0.104     H
C      0.30095  0.18054  0.74936     C
H      0.31566  0.37441   0.7521     H
C      0.31598  0.03054   0.0101     C
O      0.31807  0.17004  0.18422     O
C      0.32608  0.53054   0.9899     C
O      0.32767  0.67004  0.68422     O
C       0.3435  0.53926  0.55634     C
C      0.35662  0.46946   0.4899     C
Sc     0.36427     0.25  0.27146    Sc
C      0.38276  0.46074  0.05634     C
C      0.39279  0.64052   0.8665     C
C      0.39658  0.06254   0.0615     C
H      0.40005  0.92537    0.896     H
O      0.41687  0.33076  0.35936     O
O      0.42177  0.91614  0.72922     O
C       0.4391  0.96074  0.94366     C
H      0.44217  0.12559   0.7479     H
C      0.45808  0.56254   0.9385     C
C      0.46669  0.64052   0.6335     C
C      0.47938  0.56254   0.5615     C
O      0.49771  0.32996  0.18422     O
O      0.50229  0.67004  0.81578     O
C      0.52062  0.43746   0.4385     C
C      0.53331  0.35948   0.3665     C
C      0.54192  0.43746   0.0615     C
H      0.55783  0.87441   0.2521     H
C       0.5609  0.03926  0.05634     C
O      0.57823  0.08386  0.27078     O
O      0.58313  0.66924  0.64064     O
H      0.59995  0.07463    0.104     H
C      0.60342  0.93746   0.9385     C
C      0.60721  0.35948   0.1335     C
C      0.61724  0.53926  0.94366     C
Sc     0.63573     0.75  0.72854    Sc
C      0.64338  0.53054   0.5101     C
C       0.6565  0.46074  0.44366     C
O      0.67233  0.32996  0.31578     O
C      0.67392  0.46946   0.0101     C
O      0.68193  0.82996  0.81578     O
C      0.68402  0.96946   0.9899     C
H      0.68434  0.62559   0.2479     H
C      0.69905  0.81946  0.25064     C
H      0.70725  0.57325  0.89705     H
H       0.7276  0.94697  0.51596     H
C      0.73636  0.02728     0.25     C
C      0.74071  0.85948   0.8665     C
H      0.74305  0.56069  0.52484     H
O      0.75237  0.33076  0.14064     O
C      0.76915  0.68054  0.24936     C
O      0.77623  0.83076  0.64064     O
H      0.77857  0.42537  0.39601     H
H      0.80375  0.43931  0.02484     H
H      0.80993  0.37441   0.7479     H
C      0.81078  0.87844     0.25     C
H      0.82542  0.07463    0.396     H
H      0.82859  0.93931  0.97516     H
O      0.83791  0.08386  0.22922     O
C      0.84652  0.96946   0.5101     C
O      0.84901  0.58386  0.72922     O
Sc     0.88573     0.25  0.22854    Sc
O      0.89301  0.83076  0.85936     O
C      0.89981  0.85948   0.6335     C
C      0.89984  0.03926  0.44366     C
H      0.93224  0.12559   0.7521     H
O      0.93287  0.41614  0.22922     O
C      0.93922  0.62156     0.25     C
C      0.94969  0.31946  0.74936     C
C      0.95912  0.93746   0.5615     C
C      0.98149  0.81946  0.24936     C
C      0.98636  0.52728     0.75     C
O      0.98811  0.82996  0.68422     O
