data_I
_chemical_name_common  '/home/zhangsd/repos/MofS-CGCNN/ML/data/TSD/clean_cifs/HAZGOF04_clean_h'
_cell_length_a  8.74210
_cell_length_b 11.25340
_cell_length_c 17.72220
_cell_angle_alpha 84.50270
_cell_angle_beta  75.72120
_cell_angle_gamma 67.14380
_space_group_name_H-M_alt      'P 1'


loop_
_space_group_symop_operation_xyz
  'x, y, z' 

loop_
_atom_site_label
_atom_site_fract_x
_atom_site_fract_y
_atom_site_fract_z
_atom_site_type_symbol
O      0.01376  0.66966  0.81532     O
C      0.01404  0.97192     0.75     C
C      0.01722  0.68094  0.25042     C
C      0.04296   0.5625  0.93858     C
C      0.05142  0.18094  0.75042     C
C      0.06034  0.87932     0.25     C
O      0.06721   0.0842  0.27114     O
H      0.06871  0.37401  0.74862     H
C      0.09898  0.63988  0.86756     C
C      0.10206  0.46046  0.05602     C
O      0.10769  0.66894   0.6406     O
Sc     0.11431     0.25  0.27138    Sc
C      0.15133  0.53112  0.99102     C
O      0.15141   0.9158  0.77114     O
O      0.16165   0.4158  0.27114     O
H      0.17298  0.56289   0.5218     H
H      0.18213  0.42488  0.10153     H
C      0.18966  0.62068     0.25     C
H      0.19134  0.12599  0.75138     H
H      0.19478  0.06289   0.4782     H
H      0.21634  0.07512  0.10153     H
O      0.22337  0.66894   0.8594     O
C      0.23236  0.81906  0.25042     C
O      0.24829  0.16894   0.3594     O
H      0.25767  0.93711   0.9782     H
C      0.26114  0.63988  0.63244     C
C      0.26404  0.47192     0.25     C
H      0.26413  0.56289   0.9782     H
H      0.29612  0.92291  0.60301     H
C      0.30184  0.68094  0.24958     C
O      0.31658  0.66966  0.68468     O
H      0.31733  0.87401  0.25138     H
C      0.31755  0.53112  0.50898     C
C      0.32653  0.03112  0.49102     C
O      0.32908  0.16966  0.18468     O
C      0.34192  0.03954  0.05602     C
C      0.35765  0.96888  0.99102     C
Sc     0.36431     0.75  0.77138    Sc
C      0.38146  0.96046  0.55602     C
C      0.39358  0.13988  0.36756     C
C      0.39454   0.5625  0.56142     C
H      0.39912  0.42291  0.39699     H
O      0.41723  0.83106   0.8594     O
O      0.42255   0.4158  0.22886     O
C      0.43748  0.46046  0.44398     C
H      0.44272  0.62599  0.24862     H
C      0.45596   0.0625  0.43858     C
C      0.46654  0.13988  0.13244     C
C      0.48154   0.0625  0.06142     C
O      0.49874  0.83034  0.68468     O
O      0.50126  0.16966  0.31532     O
C      0.51846   0.9375  0.93858     C
C      0.53346  0.86012  0.86756     C
C      0.54404   0.9375  0.56142     C
H      0.55728  0.37401  0.75138     H
C      0.56252  0.53954  0.55602     C
O      0.57745   0.5842  0.77114     O
O      0.58277  0.16894   0.1406     O
H      0.60088  0.57709  0.60301     H
C      0.60546   0.4375  0.43858     C
C      0.60642  0.86012  0.63244     C
C      0.61854  0.03954  0.44398     C
Sc     0.63569     0.25  0.22862    Sc
C      0.64235  0.03112  0.00898     C
C      0.65808  0.96046  0.94398     C
O      0.67092  0.83034  0.81532     O
C      0.67347  0.96888  0.50898     C
C      0.68245  0.46888  0.49102     C
H      0.68267  0.12599  0.74862     H
O      0.68342  0.33034  0.31532     O
C      0.69816  0.31906  0.75042     C
H      0.70388  0.07709  0.39699     H
H      0.73225  0.44339  0.01458     H
C      0.73596  0.52808     0.75     C
C      0.73886  0.36012  0.36756     C
O      0.75171  0.83106   0.6406     O
H      0.75318  0.05661  0.01458     H
C      0.76764  0.18094  0.74958     C
O      0.77663  0.33106   0.1406     O
H      0.78097  0.92291  0.89699     H
H      0.80522  0.93711   0.5218     H
H      0.80866  0.87401  0.24862     H
C      0.81034  0.37932     0.75     C
H      0.82203  0.57709  0.89699     H
H      0.82437  0.44339  0.48542     H
O      0.83835   0.5842  0.72886     O
O      0.84859   0.0842  0.22886     O
C      0.84867  0.46888  0.00898     C
Sc     0.88569     0.75  0.72862    Sc
O      0.89231  0.33106   0.3594     O
C      0.89794  0.53954  0.94398     C
C      0.90102  0.36012  0.13244     C
H      0.93129  0.62599  0.25138     H
O      0.93279   0.9158  0.72886     O
C      0.93966  0.12068     0.75     C
C      0.94858  0.81906  0.24958     C
C      0.95704   0.4375  0.06142     C
C      0.98278  0.31906  0.74958     C
C      0.98596  0.02808     0.25     C
O      0.98624  0.33034  0.18468     O
