data_I
_chemical_name_common  '/home/zhangsd/repos/MofS-CGCNN/ML/data/TSD/clean_cifs/HAZGOF02_clean_h'
_cell_length_a  8.75470
_cell_length_b 11.16970
_cell_length_c 17.73590
_cell_angle_alpha 95.24680
_cell_angle_beta  104.28900
_cell_angle_gamma 68.25250
_space_group_name_H-M_alt      'P 1'


loop_
_space_group_symop_operation_xyz
  'x, y, z' 

loop_
_atom_site_label
_atom_site_fract_x
_atom_site_fract_y
_atom_site_fract_z
_atom_site_type_symbol
O      0.00907   0.1563  0.68694     O
C       0.0244  0.47652   0.7526     C
C       0.0252   0.1764   0.2468     C
C        0.045   0.6898   0.7492     C
C      0.04948   0.0645  0.56636     C
O         0.05   0.5892   0.2264     O
C       0.0508  0.38369   0.2464     C
H      0.05679  0.88364  0.75614     H
C      0.08957   0.1402  0.63394     C
C      0.09139   0.9695  0.44238     C
O      0.10228   0.1645  0.86136     O
Sc     0.11331     0.75  0.22662    Sc
C      0.13817   0.0375  0.50794     C
O      0.16246   0.4223  0.73052     O
H      0.16847  0.94182  0.39603     H
O       0.1764   0.9108   0.2264     O
H      0.18046  0.64039  0.74234     H
H      0.18563  0.06413  0.98671     H
C       0.1956  0.11631   0.2464     C
H      0.19892  0.56413  0.01329     H
O      0.21494   0.1762  0.64348     O
C       0.2216   0.3236   0.2468     C
H       0.2278   0.5584  0.39586     H
O      0.24092   0.6645  0.13864     O
H      0.24869  0.07112  0.51397     H
C      0.25919   0.1401  0.87058     C
H      0.26527  0.42888  0.51397     H
C       0.2718  0.97652   0.2474     C
C       0.2958   0.1898   0.2508     C
H      0.30009   0.4131  0.90378     H
H      0.30026  0.38395  0.24386     H
O      0.30931   0.1763  0.81902     O
O      0.32213   0.6563  0.31306     O
C       0.3275   0.0305   0.9914     C
C       0.3361   0.5305   0.0086     C
C      0.35099   0.5305  0.44238     C
Sc     0.36556     0.25  0.73112    Sc
C      0.36977   0.4625  0.50794     C
C      0.38708   0.4569  0.94556     C
C      0.38785   0.0631   0.9337     C
C      0.38861   0.6401  0.12942     C
H      0.39631   0.9131  0.09622     H
O      0.42854   0.3238  0.64348     O
O      0.43194   0.9223  0.26948     O
H      0.43811  0.14039  0.25766     H
C      0.44152   0.9569  0.05444     C
C      0.45415   0.5631   0.0663     C
C      0.45563   0.6402  0.36606     C
C      0.48312   0.5645  0.43364     C
O      0.49029   0.6763  0.18098     O
O      0.50971   0.3237  0.81902     O
C      0.51688   0.4355  0.56636     C
C      0.54437   0.3598  0.63394     C
C      0.54585   0.4369   0.9337     C
C      0.55848   0.0431  0.94556     C
H      0.56189  0.85961  0.74234     H
O      0.56806   0.0777  0.73052     O
O      0.57146   0.6762  0.35652     O
H      0.60369   0.0869  0.90378     H
C      0.61139   0.3599  0.87058     C
C      0.61215   0.9369   0.0663     C
C      0.61292   0.5431  0.05444     C
C      0.63023   0.5375  0.49206     C
Sc     0.63444     0.75  0.26888    Sc
C      0.64901   0.4695  0.55762     C
C       0.6639   0.4695   0.9914     C
C       0.6725   0.9695   0.0086     C
O      0.67787   0.3437  0.68694     O
O      0.69069   0.8237  0.18098     O
H      0.69974  0.61605  0.75614     H
H      0.70103   0.5864  0.09582     H
C       0.7042   0.8102   0.7492     C
C       0.7282  0.02348   0.7526     C
H      0.73515  0.57088  0.48635     H
C      0.74081   0.8599  0.12942     C
H      0.75131  0.92888  0.48603     H
O      0.75908   0.3355  0.86136     O
H       0.7722   0.4416  0.60414     H
C       0.7784   0.6764   0.7532     C
O      0.78506   0.8238  0.35652     O
H      0.80108  0.43587  0.98671     H
C       0.8044  0.88369   0.7536     C
H      0.81411  0.93637  0.01272     H
H      0.81954  0.35961  0.25766     H
O       0.8236   0.0892   0.7736     O
H      0.83194   0.0584  0.60414     H
O      0.83754   0.5777  0.26948     O
C      0.86183   0.9625  0.49206     C
Sc     0.88669     0.25  0.77338    Sc
O      0.89772   0.8355  0.13864     O
C      0.90861   0.0305  0.55762     C
C      0.91043   0.8598  0.36606     C
H      0.94359  0.11605  0.24386     H
C       0.9492  0.61631   0.7536     C
O         0.95   0.4108   0.7736     O
C      0.95052   0.9355  0.43364     C
C        0.955   0.3102   0.2508     C
C       0.9748   0.8236   0.7532     C
C       0.9756  0.52348   0.2474     C
O      0.99093   0.8437  0.31306     O
