data_I
_chemical_name_common  '/home/zhangsd/repos/MofS-CGCNN/ML/data/TSD/clean_cifs/HAZNIH_clean'
_cell_length_a 15.39590
_cell_length_b 17.37750
_cell_length_c 15.05430
_cell_angle_alpha 90.00000
_cell_angle_beta  120.42000
_cell_angle_gamma 90.00000
_space_group_name_H-M_alt      'P 1'


loop_
_space_group_symop_operation_xyz
  'x, y, z' 

loop_
_atom_site_label
_atom_site_fract_x
_atom_site_fract_y
_atom_site_fract_z
_atom_site_type_symbol
O          0.0   0.4458     0.25     O
O          0.0   0.5542     0.75     O
H       0.0263   0.4707   0.3063     H
H       0.0263   0.5293   0.8063     H
H       0.0285   0.3597   0.5817     H
H       0.0285   0.6403   0.0817     H
C       0.0352   0.3022   0.4166     C
C       0.0352   0.6978   0.9166     C
Br     0.03698  0.09895  0.12981    Br
Br     0.03698  0.90105  0.62981    Br
O        0.051   0.3295   0.1174     O
O        0.051   0.6705   0.6174     O
O       0.0762   0.2862   0.3656     O
O       0.0762   0.7138   0.8656     O
C        0.082   0.3256   0.6027     C
C        0.082   0.6744   0.1027     C
O       0.0953   0.4928   0.9283     O
O       0.0953   0.5072   0.4283     O
C       0.0976   0.2866   0.5315     C
C       0.0976   0.7134   0.0315     C
H       0.1221    0.443   0.0884     H
H       0.1221    0.557   0.5884     H
Cd     0.13389  0.36729   0.2857    Cd
Cd     0.13389  0.63271   0.7857    Cd
Br     0.13792  0.36746  0.80796    Br
Br     0.13792  0.63254  0.30796    Br
C       0.1483   0.3121   0.7053     C
C       0.1483   0.6879   0.2053     C
C       0.1525   0.0447   0.2296     C
C       0.1525   0.9553   0.7296     C
H       0.1604   0.0952   0.3555     H
H       0.1604   0.9048   0.8555     H
H       0.1705   0.0156    0.627     H
H       0.1705   0.9844    0.127     H
C       0.1743   0.4694   0.4817     C
C       0.1743   0.5306   0.9817     C
C       0.1761   0.2344   0.5664     C
C       0.1761   0.7656   0.0664     C
C       0.1807   0.4686   0.1352     C
C       0.1807   0.5314   0.6352     C
H       0.1857   0.2078   0.5184     H
H       0.1857   0.7922   0.0184     H
C       0.1906   0.0596   0.3334     C
C       0.1906   0.9404   0.8334     C
C        0.198   0.0068   0.6972     C
C        0.198   0.9932   0.1972     C
O       0.2156   0.4237     0.45     O
O       0.2156   0.5763     0.95     O
N       0.2187   0.4554   0.2353     N
N       0.2187   0.5446   0.7353     N
C       0.2245   0.2595   0.7351     C
C       0.2245   0.7405   0.2351     C
C       0.2246   0.4808   0.5976     C
C       0.2246   0.5192   0.0976     C
H       0.2323   0.2495    0.195     H
H       0.2323   0.7505    0.695     H
N       0.2387   0.2206   0.6669     N
N       0.2387   0.7794   0.1669     N
N       0.2613   0.2794   0.3331     N
N       0.2613   0.7206   0.8331     N
H       0.2677   0.2505    0.805     H
H       0.2677   0.7495    0.305     H
C       0.2754   0.0192   0.4024     C
C       0.2754   0.9808   0.9024     C
C       0.2755   0.2405   0.2649     C
C       0.2755   0.7595   0.7649     C
N       0.2813   0.0446   0.7647     N
N       0.2813   0.9554   0.2647     N
O       0.2844   0.0763     0.55     O
O       0.2844   0.9237     0.05     O
C        0.302   0.4932   0.3028     C
C        0.302   0.5068   0.8028     C
C       0.3094   0.4404   0.6666     C
C       0.3094   0.5596   0.1666     C
H       0.3143   0.2922   0.4816     H
H       0.3143   0.7078   0.9816     H
C       0.3193   0.0314   0.8648     C
C       0.3193   0.9686   0.3648     C
C       0.3239   0.2656   0.4336     C
C       0.3239   0.7344   0.9336     C
C       0.3257   0.0306   0.5183     C
C       0.3257   0.9694   0.0183     C
H       0.3295   0.4844    0.373     H
H       0.3295   0.5156    0.873     H
H       0.3396   0.4048   0.6445     H
H       0.3396   0.5952   0.1445     H
C       0.3475   0.4553   0.7704     C
C       0.3475   0.5447   0.2704     C
C       0.3517   0.1879   0.2947     C
C       0.3517   0.8121   0.7947     C
Br     0.36208  0.13254  0.19204    Br
Br     0.36208  0.86746  0.69204    Br
Cd     0.36611  0.13271   0.7143    Cd
Cd     0.36611  0.86729   0.2143    Cd
H       0.3779    0.057   0.9116     H
H       0.3779    0.943   0.4116     H
C       0.4024   0.2134   0.4685     C
C       0.4024   0.7866   0.9685     C
O       0.4047   0.0072   0.0717     O
O       0.4047   0.9928   0.5717     O
C        0.418   0.1744   0.3973     C
C        0.418   0.8256   0.8973     C
O       0.4238   0.2138   0.6344     O
O       0.4238   0.7862   0.1344     O
O        0.449   0.1705   0.8826     O
O        0.449   0.8295   0.3826     O
Br     0.46302  0.40105  0.87019    Br
Br     0.46302  0.59895  0.37019    Br
C       0.4648   0.1978   0.5834     C
C       0.4648   0.8022   0.0834     C
H       0.4715   0.1403   0.4183     H
H       0.4715   0.8597   0.9183     H
H       0.4737   0.0293   0.6937     H
H       0.4737   0.9707   0.1937     H
O          0.5   0.0542     0.75     O
O          0.5   0.9458     0.25     O
H       0.5263   0.0293   0.8063     H
H       0.5263   0.9707   0.3063     H
H       0.5285   0.1403   0.0817     H
H       0.5285   0.8597   0.5817     H
C       0.5352   0.1978   0.9166     C
C       0.5352   0.8022   0.4166     C
Br     0.53698  0.40105  0.62981    Br
Br     0.53698  0.59895  0.12981    Br
O        0.551   0.1705   0.6174     O
O        0.551   0.8295   0.1174     O
O       0.5762   0.2138   0.8656     O
O       0.5762   0.7862   0.3656     O
C        0.582   0.1744   0.1027     C
C        0.582   0.8256   0.6027     C
O       0.5953   0.0072   0.4283     O
O       0.5953   0.9928   0.9283     O
C       0.5976   0.2134   0.0315     C
C       0.5976   0.7866   0.5315     C
H       0.6221    0.057   0.5884     H
H       0.6221    0.943   0.0884     H
Cd     0.63389  0.13271   0.7857    Cd
Cd     0.63389  0.86729   0.2857    Cd
Br     0.63792  0.13254  0.30796    Br
Br     0.63792  0.86746  0.80796    Br
C       0.6483   0.1879   0.2053     C
C       0.6483   0.8121   0.7053     C
C       0.6525   0.4553   0.7296     C
C       0.6525   0.5447   0.2296     C
H       0.6604   0.4048   0.8555     H
H       0.6604   0.5952   0.3555     H
H       0.6705   0.4844    0.127     H
H       0.6705   0.5156    0.627     H
C       0.6743   0.0306   0.9817     C
C       0.6743   0.9694   0.4817     C
C       0.6761   0.2656   0.0664     C
C       0.6761   0.7344   0.5664     C
C       0.6807   0.0314   0.6352     C
C       0.6807   0.9686   0.1352     C
H       0.6857   0.2922   0.0184     H
H       0.6857   0.7078   0.5184     H
C       0.6906   0.4404   0.8334     C
C       0.6906   0.5596   0.3334     C
C        0.698   0.4932   0.1972     C
C        0.698   0.5068   0.6972     C
O       0.7156   0.0763     0.95     O
O       0.7156   0.9237     0.45     O
N       0.7187   0.0446   0.7353     N
N       0.7187   0.9554   0.2353     N
C       0.7245   0.2405   0.2351     C
C       0.7245   0.7595   0.7351     C
C       0.7246   0.0192   0.0976     C
C       0.7246   0.9808   0.5976     C
H       0.7323   0.2505    0.695     H
H       0.7323   0.7495    0.195     H
N       0.7387   0.2794   0.1669     N
N       0.7387   0.7206   0.6669     N
N       0.7613   0.2206   0.8331     N
N       0.7613   0.7794   0.3331     N
H       0.7677   0.2495    0.305     H
H       0.7677   0.7505    0.805     H
C       0.7754   0.4808   0.9024     C
C       0.7754   0.5192   0.4024     C
C       0.7755   0.2595   0.7649     C
C       0.7755   0.7405   0.2649     C
N       0.7813   0.4554   0.2647     N
N       0.7813   0.5446   0.7647     N
O       0.7844   0.4237     0.05     O
O       0.7844   0.5763     0.55     O
C        0.802   0.0068   0.8028     C
C        0.802   0.9932   0.3028     C
C       0.8094   0.0596   0.1666     C
C       0.8094   0.9404   0.6666     C
H       0.8143   0.2078   0.9816     H
H       0.8143   0.7922   0.4816     H
C       0.8193   0.4686   0.3648     C
C       0.8193   0.5314   0.8648     C
C       0.8239   0.2344   0.9336     C
C       0.8239   0.7656   0.4336     C
C       0.8257   0.4694   0.0183     C
C       0.8257   0.5306   0.5183     C
H       0.8295   0.0156    0.873     H
H       0.8295   0.9844    0.373     H
H       0.8396   0.0952   0.1445     H
H       0.8396   0.9048   0.6445     H
C       0.8475   0.0447   0.2704     C
C       0.8475   0.9553   0.7704     C
C       0.8517   0.3121   0.7947     C
C       0.8517   0.6879   0.2947     C
Br     0.86208  0.36746  0.69204    Br
Br     0.86208  0.63254  0.19204    Br
Cd     0.86611  0.36729   0.2143    Cd
Cd     0.86611  0.63271   0.7143    Cd
H       0.8779    0.443   0.4116     H
H       0.8779    0.557   0.9116     H
C       0.9024   0.2866   0.9685     C
C       0.9024   0.7134   0.4685     C
O       0.9047   0.4928   0.5717     O
O       0.9047   0.5072   0.0717     O
C        0.918   0.3256   0.8973     C
C        0.918   0.6744   0.3973     C
O       0.9238   0.2862   0.1344     O
O       0.9238   0.7138   0.6344     O
O        0.949   0.3295   0.3826     O
O        0.949   0.6705   0.8826     O
Br     0.96302  0.09895  0.37019    Br
Br     0.96302  0.90105  0.87019    Br
C       0.9648   0.3022   0.0834     C
C       0.9648   0.6978   0.5834     C
H       0.9715   0.3597   0.9183     H
H       0.9715   0.6403   0.4183     H
H       0.9737   0.4707   0.1937     H
H       0.9737   0.5293   0.6937     H
