data_I
_chemical_name_common  '/home/zhangsd/repos/MofS-CGCNN/ML/data/TSD/clean_cifs/HEDBOJ_clean'
_cell_length_a  8.31880
_cell_length_b 15.85230
_cell_length_c 21.58840
_cell_angle_alpha 90.00000
_cell_angle_beta  90.00000
_cell_angle_gamma 90.00000
_space_group_name_H-M_alt      'P 1'


loop_
_space_group_symop_operation_xyz
  'x, y, z' 

loop_
_atom_site_label
_atom_site_fract_x
_atom_site_fract_y
_atom_site_fract_z
_atom_site_type_symbol
C       0.0102   0.8215   0.9817     C
C       0.0146   0.9164    0.979     C
U      0.01533  0.63409  0.47183     U
C       0.0179   0.1874   0.9782     C
C         0.02   0.0923   0.9817     C
U      0.02225  0.35603   0.4762     U
O        0.045   0.7727   0.5229     O
O       0.0592   0.2165   0.5241     O
C       0.0705   0.9504   0.5245     C
C       0.0766   0.0393   0.5244     C
O        0.077   0.2253   0.9335     O
O       0.0777   0.4951   0.4527     O
O       0.0806   0.7814   0.9386     O
C        0.101   0.9597   0.9352     C
O       0.1014   0.8918   0.6248     O
C       0.1068   0.0469   0.9358     C
O       0.1116   0.9009   0.8342     O
O       0.1178    0.092   0.6254     O
O       0.1322   0.0931   0.8333     O
Ce     0.14518  0.15677  0.72753    Ce
O       0.1577    0.617   0.8939     O
C       0.1652   0.9047   0.5753     C
O        0.166   0.3945   0.8905     O
C       0.1756   0.0843   0.5726     C
O       0.1831    0.608   0.5581     O
C        0.189    0.913   0.8839     C
O       0.1907    0.384   0.5625     O
C       0.1996    0.091   0.8848     C
C       0.3004    0.591   0.8848     C
O       0.3093    0.884   0.5625     O
C        0.311    0.413   0.8839     C
O       0.3169    0.108   0.5581     O
C       0.3244   0.5843   0.5726     C
O        0.334   0.8945   0.8905     O
C       0.3348   0.4047   0.5753     C
O       0.3423    0.117   0.8939     O
Ce     0.35482  0.65677  0.72753    Ce
O       0.3678   0.5931   0.8333     O
O       0.3822    0.592   0.6254     O
O       0.3884   0.4009   0.8342     O
C       0.3932   0.5469   0.9358     C
O       0.3986   0.3918   0.6248     O
C        0.399   0.4597   0.9352     C
O       0.4194   0.2814   0.9386     O
O       0.4223   0.9951   0.4527     O
O        0.423   0.7253   0.9335     O
C       0.4234   0.5393   0.5244     C
C       0.4295   0.4504   0.5245     C
O       0.4408   0.7165   0.5241     O
O        0.455   0.2727   0.5229     O
U      0.47775  0.85603   0.4762     U
C         0.48   0.5923   0.9817     C
C       0.4821   0.6874   0.9782     C
U      0.48467  0.13409  0.47183     U
C       0.4854   0.4164    0.979     C
C       0.4898   0.3215   0.9817     C
C       0.5102   0.6785   0.4817     C
C       0.5146   0.5836    0.479     C
U      0.51533  0.86591  0.97183     U
C       0.5179   0.3126   0.4782     C
C         0.52   0.4077   0.4817     C
U      0.52225  0.14397   0.9762     U
O        0.545   0.7273   0.0229     O
O       0.5592   0.2835   0.0241     O
C       0.5705   0.5496   0.0245     C
C       0.5766   0.4607   0.0244     C
O        0.577   0.2747   0.4335     O
O       0.5777   0.0049   0.9527     O
O       0.5806   0.7186   0.4386     O
C        0.601   0.5403   0.4352     C
O       0.6014   0.6082   0.1248     O
C       0.6068   0.4531   0.4358     C
O       0.6116   0.5991   0.3342     O
O       0.6178    0.408   0.1254     O
O       0.6322   0.4069   0.3333     O
Ce     0.64518  0.34323  0.22753    Ce
O       0.6577    0.883   0.3939     O
C       0.6652   0.5953   0.0753     C
O        0.666   0.1055   0.3905     O
C       0.6756   0.4157   0.0726     C
O       0.6831    0.892   0.0581     O
C        0.689    0.587   0.3839     C
O       0.6907    0.116   0.0625     O
C       0.6996    0.409   0.3848     C
C       0.8004    0.909   0.3848     C
O       0.8093    0.616   0.0625     O
C        0.811    0.087   0.3839     C
O       0.8169    0.392   0.0581     O
C       0.8244   0.9157   0.0726     C
O        0.834   0.6055   0.3905     O
C       0.8348   0.0953   0.0753     C
O       0.8423    0.383   0.3939     O
Ce     0.85482  0.84323  0.22753    Ce
O       0.8678   0.9069   0.3333     O
O       0.8822    0.908   0.1254     O
O       0.8884   0.0991   0.3342     O
C       0.8932   0.9531   0.4358     C
O       0.8986   0.1082   0.1248     O
C        0.899   0.0403   0.4352     C
O       0.9194   0.2186   0.4386     O
O       0.9223   0.5049   0.9527     O
O        0.923   0.7747   0.4335     O
C       0.9234   0.9607   0.0244     C
C       0.9295   0.0496   0.0245     C
O       0.9408   0.7835   0.0241     O
O        0.955   0.2273   0.0229     O
U      0.97775  0.64397   0.9762     U
C         0.98   0.9077   0.4817     C
C       0.9821   0.8126   0.4782     C
U      0.98467  0.36591  0.97183     U
C       0.9854   0.0836    0.479     C
C       0.9898   0.1785   0.4817     C
