data_I
_chemical_name_common  '/home/zhangsd/repos/MofS-CGCNN/ML/data/TSD/clean_cifs/HEDCAW_clean'
_cell_length_a 15.80850
_cell_length_b 15.80850
_cell_length_c 21.02070
_cell_angle_alpha 85.28610
_cell_angle_beta  85.28610
_cell_angle_gamma 60.57120
_space_group_name_H-M_alt      'P 1'


loop_
_space_group_symop_operation_xyz
  'x, y, z' 

loop_
_atom_site_label
_atom_site_fract_x
_atom_site_fract_y
_atom_site_fract_z
_atom_site_type_symbol
Zn     0.00218   0.0085  0.18084    Zn
Zn      0.0085  0.00218  0.68084    Zn
O       0.0212   0.8638   0.2864     O
O       0.0311   0.8643   0.6919     O
H       0.0366    0.705   0.3256     H
Zn     0.04227  0.56467  0.49259    Zn
C       0.0427   0.8233   0.2287     C
H       0.0449   0.7063   0.6593     H
O       0.0456   0.8572   0.7994     O
C       0.0457   0.8183   0.7422     C
O       0.0511   0.8675   0.1816     O
C       0.0558   0.6736   0.2873     C
O       0.0583   0.3575    0.438     O
C         0.06   0.6712   0.6983     C
C       0.0645   0.7197   0.7508     C
H       0.0648    0.545   0.3211     H
H       0.0663   0.5513   0.6643     H
C       0.0673   0.7211   0.2306     C
O       0.0693   0.3657   0.5685     O
C       0.0742   0.5774   0.2846     C
C       0.0761   0.5769   0.6995     C
C       0.0909   0.6597   0.8091     C
C       0.0927   0.6767   0.1756     C
H       0.0948   0.7124   0.1387     H
H       0.0962    0.685   0.8461     H
H       0.1059   0.2845   0.8137     H
C       0.1059   0.5321   0.2284     C
C       0.1077   0.5223   0.7568     C
C       0.1084   0.5654   0.8106     C
H        0.109   0.2982   0.1943     H
C        0.116    0.582   0.1697     C
O       0.1175   0.4425   0.2274     O
C       0.1184   0.3878    0.417     C
O       0.1186   0.4568   0.4305     O
O       0.1204   0.4302   0.7617     O
H       0.1212   0.5296   0.8494     H
C       0.1268   0.3856   0.5769     C
O       0.1297   0.4635   0.5601     O
O       0.1325   0.9489   0.3184     O
O       0.1357   0.9689   0.8081     O
O       0.1362   0.9788   0.2136     O
H       0.1368    0.552   0.1309     H
O       0.1428   0.9544   0.7006     O
H       0.1513   0.2279   0.3689     H
H       0.1641   0.2193   0.6448     H
C       0.1642   0.2816   0.8218     C
C       0.1679   0.2935   0.1788     C
C       0.1767   0.9573   0.2713     C
C       0.1817   0.9543   0.7578     C
C       0.1865   0.3675   0.1882     C
C       0.1889   0.3561   0.7996     C
C        0.198   0.3176   0.3743     C
C       0.2039   0.2377   0.3569     C
C       0.2077   0.3177   0.6208     C
C       0.2149   0.2323   0.6479     C
H       0.2193   0.1641   0.1448     H
H       0.2279   0.1513   0.8689     H
C       0.2323   0.2149   0.1479     C
C       0.2377   0.2039   0.8569     C
H       0.2674    0.395   0.3557     H
C       0.2717   0.3359    0.348     C
C       0.2718   0.3508   0.8111     C
H       0.2732   0.3962   0.6147     H
C       0.2763   0.3581   0.1645     C
C       0.2787   0.3375   0.6312     C
C       0.2789   0.9327   0.2694     C
C       0.2803   0.9355   0.7492     C
C       0.2816   0.1642   0.3218     C
H       0.2845   0.1059   0.3137     H
H       0.2868   0.3986   0.7951     H
H       0.2876   0.9052   0.3613     H
H       0.2933   0.4051   0.1715     H
C       0.2935   0.1679   0.6788     C
H       0.2937   0.9551   0.8407     H
H        0.295   0.9634   0.1744     H
H       0.2982    0.109   0.6943     H
H        0.315   0.9038   0.6539     H
C       0.3176    0.198   0.8743     C
C       0.3177   0.2077   0.1208     C
C       0.3233   0.9073   0.3244     C
C       0.3264   0.9442   0.2127     C
C       0.3288     0.94   0.8017     C
C       0.3359   0.2717    0.848     C
C       0.3375   0.2787   0.1312     C
C       0.3403   0.9091   0.6909     C
C       0.3508   0.2718   0.3111     C
C       0.3561   0.1889   0.2996     C
O       0.3575   0.0583    0.938     O
C       0.3581   0.2763   0.6645     C
O       0.3657   0.0693   0.0685     O
C       0.3675   0.1865   0.6882     C
C       0.3856   0.1268   0.0769     C
C       0.3878   0.1184    0.917     C
H        0.395   0.2674   0.8557     H
H       0.3962   0.2732   0.1147     H
H       0.3986   0.2868   0.2951     H
H       0.4051   0.2933   0.6715     H
C        0.418    0.884   0.3303     C
C       0.4226   0.9258   0.2154     C
C       0.4231   0.9239   0.8005     C
O       0.4302   0.1204   0.2617     O
C       0.4346   0.8916   0.6894     C
Zn     0.43533  0.95773  0.00741    Zn
O       0.4425   0.1175   0.7274     O
H        0.448   0.8632   0.3691     H
H       0.4487   0.9337   0.8357     H
H        0.455   0.9352   0.1789     H
O       0.4568   0.1186   0.9305     O
O       0.4635   0.1297   0.0601     O
C       0.4679   0.8941   0.2716     C
H       0.4704   0.8788   0.6506     H
C       0.4777   0.8923   0.7432     C
C       0.5223   0.1077   0.2568     C
H       0.5296   0.1212   0.3494     H
C       0.5321   0.1059   0.7284     C
O       0.5365   0.8703   0.9399     O
O       0.5432   0.8814   0.0695     O
H        0.545   0.0648   0.8211     H
H       0.5513   0.0663   0.1643     H
H        0.552   0.1368   0.6309     H
O       0.5575   0.8825   0.2726     O
Zn     0.56467  0.04227  0.99259    Zn
C       0.5654   0.1084   0.3106     C
O       0.5698   0.8796   0.7383     O
C       0.5769   0.0761   0.1995     C
C       0.5774   0.0742   0.7846     C
C        0.582    0.116   0.6697     C
H       0.5949   0.7067   0.3285     H
H       0.6014   0.7132   0.7049     H
H       0.6038   0.7268   0.8853     H
H        0.605   0.7326   0.1443     H
C       0.6122   0.8816    0.083     C
C       0.6144   0.8732   0.9231     C
C       0.6325   0.8135   0.3118     C
O       0.6343   0.9307   0.9315     O
C       0.6419   0.7237   0.3355     C
O       0.6425   0.9417    0.062     O
C       0.6439   0.8111   0.7004     C
C       0.6492   0.7282   0.6889     C
C       0.6597   0.0909   0.3091     C
C       0.6625   0.7213   0.8688     C
C       0.6641   0.7283    0.152     C
C       0.6712     0.06   0.1983     C
C       0.6736   0.0558   0.7873     C
C       0.6767   0.0927   0.6756     C
C       0.6823   0.7923   0.8792     C
C       0.6824    0.802   0.1257     C
H        0.685   0.0962   0.3461     H
H       0.7018    0.891   0.3057     H
H        0.705   0.0366   0.8256     H
H       0.7063   0.0449   0.1593     H
C       0.7065   0.8321   0.3212     C
H       0.7067   0.5949   0.8285     H
H       0.7124   0.0948   0.6387     H
H       0.7132   0.6014   0.2049     H
H       0.7155   0.8941   0.6863     H
C       0.7184   0.8358   0.6782     C
C       0.7197   0.0645   0.2508     C
C       0.7211   0.0673   0.7306     C
C       0.7213   0.6625   0.3688     C
C       0.7237   0.6419   0.8355     C
H       0.7268   0.6038   0.3853     H
C       0.7282   0.6492   0.1889     C
C       0.7283   0.6641    0.652     C
H       0.7326    0.605   0.6443     H
C       0.7623   0.7961   0.1431     C
C       0.7677   0.7851   0.8521     C
H       0.7721   0.8487   0.1311     H
H       0.7807   0.8359   0.8552     H
C       0.7851   0.7677   0.3521     C
C       0.7923   0.6823   0.3792     C
C       0.7961   0.7623   0.6431     C
C        0.802   0.6824   0.6257     C
C       0.8111   0.6439   0.2004     C
C       0.8135   0.6325   0.8118     C
C       0.8183   0.0457   0.2422     C
C       0.8233   0.0427   0.7287     C
C       0.8321   0.7065   0.8212     C
C       0.8358   0.7184   0.1782     C
H       0.8359   0.7807   0.3552     H
H       0.8487   0.7721   0.6311     H
O       0.8572   0.0456   0.2994     O
H       0.8632    0.448   0.8691     H
O       0.8638   0.0212   0.7864     O
O       0.8643   0.0311   0.1919     O
O       0.8675   0.0511   0.6816     O
O       0.8703   0.5365   0.4399     O
C       0.8732   0.6144   0.4231     C
H       0.8788   0.4704   0.1506     H
O       0.8796   0.5698   0.2383     O
O       0.8814   0.5432   0.5695     O
C       0.8816   0.6122    0.583     C
O       0.8825   0.5575   0.7726     O
C        0.884    0.418   0.8303     C
H        0.891   0.7018   0.8057     H
C       0.8916   0.4346   0.1894     C
C       0.8923   0.4777   0.2432     C
C       0.8941   0.4679   0.7716     C
H       0.8941   0.7155   0.1863     H
H       0.9038    0.315   0.1539     H
H       0.9052   0.2876   0.8613     H
C       0.9073   0.3233   0.8244     C
C       0.9091   0.3403   0.1909     C
C       0.9239   0.4231   0.3005     C
C       0.9258   0.4226   0.7154     C
O       0.9307   0.6343   0.4315     O
C       0.9327   0.2789   0.7694     C
H       0.9337   0.4487   0.3357     H
H       0.9352    0.455   0.6789     H
C       0.9355   0.2803   0.2492     C
C         0.94   0.3288   0.3017     C
O       0.9417   0.6425    0.562     O
C       0.9442   0.3264   0.7127     C
O       0.9489   0.1325   0.8184     O
C       0.9543   0.1817   0.2578     C
O       0.9544   0.1428   0.2006     O
H       0.9551   0.2937   0.3407     H
C       0.9573   0.1767   0.7713     C
Zn     0.95773  0.43533  0.50741    Zn
H       0.9634    0.295   0.6744     H
O       0.9689   0.1357   0.3081     O
O       0.9788   0.1362   0.7136     O
Zn      0.9915  0.99782  0.31916    Zn
Zn     0.99782   0.9915  0.81916    Zn
