data_I
_chemical_name_common  '/home/zhangsd/repos/MofS-CGCNN/ML/data/TSD/clean_cifs/HEGNEN_clean'
_cell_length_a 23.69650
_cell_length_b 23.69650
_cell_length_c 13.54370
_cell_angle_alpha 90.00000
_cell_angle_beta  90.00000
_cell_angle_gamma 120.00000
_space_group_name_H-M_alt      'P 1'


loop_
_space_group_symop_operation_xyz
  'x, y, z' 

loop_
_atom_site_label
_atom_site_fract_x
_atom_site_fract_y
_atom_site_fract_z
_atom_site_type_symbol
N      0.00017  0.49013  0.18603     N
O      0.00213  0.29047  0.87937     O
O      0.00217  0.60493  0.11773     O
P      0.00632  0.68006  0.39069     P
P      0.00707  0.66034  0.05735     P
O       0.0097   0.7094   0.6407     O
P      0.01339   0.3404  0.27598     P
Ga     0.01657  0.57696  0.25001    Ga
H       0.0187   0.2247   0.0906     H
H      0.02093  0.81187  0.49167     H
Fe      0.0279  0.42641  0.45226    Fe
O      0.03277  0.29043  0.65613     O
O      0.03303  0.65697  0.30737     O
O      0.03557  0.54513  0.37133     O
H      0.04203  0.85157  0.58707     H
O      0.04253  0.86057  0.75807     O
O      0.04273  0.36637  0.02597     O
O      0.04287  0.37833  0.54603     O
O       0.0429    0.409   0.3228     O
O        0.045   0.6688   0.7873     O
H      0.04657  0.54233  0.05763     H
C      0.05187  0.50773  0.11283     C
H      0.05557  0.46453  0.09673     H
N      0.05563  0.83337  0.53607     N
O      0.05827  0.59313  0.54043     O
O      0.06173  0.73057  0.45107     O
N       0.0626   0.2514   0.0574     N
O       0.0639   0.3355   0.2156     O
Fe     0.06518  0.30544   0.7856    Fe
H       0.0657   0.2487   0.9858     H
C      0.06723  0.54307  0.84807     C
H      0.06913  0.51807  0.91537     H
O      0.07353  0.79847  0.87377     O
H       0.0756   0.8332   0.2104     H
H      0.07563  0.27777  0.43007     H
O      0.07567  0.69943  0.01053     O
H       0.0768   0.1746   0.1212     H
H      0.07923  0.21547  0.56017     H
N      0.08193  0.47787  0.72407     N
H      0.08463  0.48367  0.65247     H
P      0.08603  0.57028  0.45397     P
O      0.08673  0.24327  0.82347     O
Ga      0.0897  0.77294  0.58335    Ga
O      0.09007  0.51013  0.49013     O
H      0.09093  0.59107  0.87707     H
Ga     0.09308  0.73185  0.88107    Ga
H       0.0942   0.8713   0.0268     H
P      0.09638  0.84908  0.78731     P
H       0.0978   0.9232   0.1212     H
C       0.1039   0.2247   0.0951     C
C      0.10553  0.21837  0.49467     C
Ga     0.10627   0.3499  0.08332    Ga
H      0.10863  0.46067  0.75727     H
C      0.10863  0.54587  0.76177     C
H      0.11043  0.57247  0.69347     H
N      0.11107  0.61103  0.20273     N
C      0.11283  0.89447  0.49467     C
C      0.11497  0.55383  0.16133     C
H       0.1156   0.2642   0.2487     H
H      0.11787  0.53043  0.22683     H
C       0.1208   0.8961   0.0951     C
O      0.12153  0.82377  0.70467     O
C      0.12253  0.28147  0.44617     C
C       0.1236   0.8575   0.1814     C
H      0.12427  0.64573  0.15833     H
H      0.12433  0.83757  0.39097     H
H      0.12733  0.68537  0.57607     H
H       0.1287   0.2229   0.0268     H
H       0.1312   0.7423   0.2366     H
O       0.1318   0.3916   0.7929     O
H      0.13623  0.92077  0.56017     H
O      0.13943  0.18197  0.75807     O
C       0.1425   0.2661   0.1814     C
H      0.14287  0.62463  0.25373     H
N      0.14453  0.72927  0.60927     N
H       0.1452   0.4576    0.175     H
H      0.14843  0.19047  0.58707     H
H       0.1486   0.8844   0.2487     H
H      0.15033  0.73237  0.68087     H
P      0.15092  0.24731  0.78731     P
O      0.15137  0.62413  0.42473     O
O      0.15653  0.91327  0.82347     O
N      0.15663  0.33317  0.51937     N
N       0.1568   0.8233   0.1473     N
O       0.1571   0.3689    0.962     O
H      0.15873  0.56887  0.78787     H
C      0.15893  0.87747  0.44617     C
H      0.16243  0.28677  0.39097     H
H      0.16653  0.42427  0.45627     H
N      0.16663  0.22227  0.53607     N
N       0.1667   0.4444   0.1306     N
H       0.1668   0.2424   0.2104     H
H       0.1709   0.3799   0.2757     H
C       0.1744   0.7892   0.2205     C
H       0.1746   0.0978   0.8788     H
O      0.17623  0.29777  0.70467     O
N      0.17653  0.84337  0.51937     N
N       0.1767   0.3335   0.1473     N
O       0.1768   0.7534   0.8432     O
O      0.18197  0.04253  0.24193     O
P      0.18241  0.41936  0.87936     P
H        0.183   0.9343   0.9858     H
H      0.18473  0.78227  0.41797     H
H       0.1849   0.4762   0.0796     H
H      0.18813  0.20907  0.49167     H
N       0.1888   0.9374   0.0574     N
H      0.19047  0.04203  0.41293     H
C      0.19083  0.40057  0.48527     C
O       0.1939   0.4847   0.9086     O
H       0.1971   0.7459   0.1065     H
O      0.20153  0.27507  0.87377     O
H      0.20213  0.92437  0.43007     H
H      0.20463  0.44377  0.63987     H
H        0.206   0.9813   0.0906     H
H        0.209   0.8291   0.2757     H
H      0.20907  0.02093  0.50833     H
C      0.20973  0.80917  0.48527     C
C       0.2108   0.3852   0.2205     C
O       0.2118   0.8429    0.962     O
C      0.21253  0.77057  0.57157     C
H      0.21547  0.13623  0.43983     H
H      0.21773  0.40247  0.41797     H
C      0.21837  0.11283  0.50533     C
C       0.2205   0.7722    0.172     C
N      0.22227  0.05563  0.46393     N
H       0.2229   0.0942   0.9732     H
C       0.2247   0.1208   0.9049     C
H       0.2247    0.206   0.9094     H
Ga     0.22706  0.31677  0.58335    Ga
C       0.2278   0.4483    0.172     C
C      0.22943  0.44197  0.57157     C
H      0.23553  0.74347  0.54547     H
P      0.23695  0.81759  0.87936     P
H      0.23913  0.79537  0.63987     H
Fe     0.24025  0.93482   0.7856    Fe
H       0.2424   0.0756   0.7896     H
O      0.24327  0.15653  0.17653     O
Ga     0.24363  0.89373  0.08332    Ga
O       0.2466   0.4234   0.8432     O
P      0.24731  0.09638  0.21269     P
H       0.2487    0.183   0.0142     H
N       0.2514   0.1888   0.9426     N
H       0.2541   0.4512   0.1065     H
H      0.25653  0.49207  0.54547     H
O      0.25767  0.96723  0.65613     O
H       0.2577   0.3889   0.2366     H
H      0.25773  0.83347  0.45627     H
O       0.2598   0.8682   0.7929     O
H       0.2642   0.1486   0.7513     H
C       0.2661   0.1236   0.8186     C
H      0.26763  0.41797  0.68087     H
Ga     0.26815  0.36123  0.88107    Ga
O      0.26943  0.33117  0.45107     O
N      0.27073  0.41527  0.60927     N
O       0.2716   0.9361   0.2156     O
O      0.27507  0.07353  0.12623     O
N       0.2777   0.8333   0.1306     N
H      0.27777  0.20213  0.56993     H
C      0.28147  0.15893  0.55383     C
H      0.28677  0.12433  0.60903     H
O      0.28833  0.99787  0.87937     O
O      0.29043  0.25767  0.34387     O
O      0.29047  0.28833  0.12063     O
O       0.2906   0.3003   0.6407     O
O       0.2908   0.8061   0.9086     O
H       0.2913   0.8151   0.0796     H
O      0.29777  0.12153  0.29533     O
O       0.3003   0.0097   0.3593     O
O      0.30057  0.37623  0.01053     O
Ga     0.30544  0.24025   0.2144    Ga
H       0.3124   0.8548    0.175     H
H      0.31463  0.44197  0.57607     H
Ga     0.31677   0.0897  0.41665    Ga
P      0.31994  0.32627  0.39069     P
O      0.32363  0.95727  0.02597     O
P      0.32627  0.00632  0.60931     P
P      0.32701  0.98661  0.27598     P
O      0.33117  0.06173  0.54893     O
O       0.3312   0.3762   0.7873     O
N      0.33317  0.17653  0.48063     N
N       0.3335   0.1568   0.8527     N
O      0.33547  0.95713  0.54603     O
O       0.3355   0.2716   0.7844     O
P      0.33966  0.34672  0.05735     P
P       0.3404  0.32701  0.72402     P
O      0.34303  0.37607  0.30737     O
P      0.34672  0.00707  0.94265     P
Ga      0.3499  0.24363  0.91668    Ga
H      0.35203  0.89137  0.75727     H
H      0.35427  0.47853  0.15833     H
Fe     0.36123  0.09308  0.11893    Fe
O       0.3661   0.9571   0.3228     O
O      0.36637  0.32363  0.97403     O
O       0.3689   0.2118    0.038     O
H      0.37537  0.51823  0.25373     H
O      0.37587  0.52723  0.42473     O
O      0.37607  0.03303  0.69263     O
O       0.3762    0.045   0.2127     O
O      0.37623  0.07567  0.98947     O
O      0.37833  0.33547  0.45397     O
H       0.3799    0.209   0.7243     H
C       0.3852   0.1744   0.7795     C
H       0.3889   0.1312   0.7634     H
N      0.38897  0.50003  0.20273     N
O       0.3916   0.2598   0.2071     O
O      0.39507  0.39723  0.11773     O
N      0.39593  0.91807  0.72407     N
O      0.39723  0.00217  0.88227     O
Fe     0.39852   0.9721  0.45226    Fe
H      0.39903  0.91537  0.65247     H
C      0.40057  0.20973  0.51473     C
H      0.40247  0.18473  0.58203     H
O      0.40687  0.46513  0.54043     O
H      0.40893  0.49987  0.87707     H
H      0.40897  0.94443  0.09673     H
O        0.409   0.3661   0.6772     O
H      0.41013  0.84127  0.78787     H
H      0.41257  0.88213  0.22683     H
N      0.41527  0.14453  0.39073     N
H      0.41797  0.15033  0.31913     H
P      0.41936  0.23695  0.12064     P
O      0.42007  0.90993  0.49013     O
Ga     0.42304   0.4396  0.25001    Ga
O       0.4234   0.1768   0.1568     O
H      0.42427  0.25773  0.54373     H
Ga     0.42641  0.39852  0.54774    Ga
H      0.42753  0.53797  0.69347     H
P      0.42972  0.51574  0.45397     P
H      0.43113  0.58987  0.78787     H
C      0.43723  0.89137  0.76177     C
C      0.43887  0.88503  0.16133     C
Ga      0.4396  0.01657  0.74999    Ga
H      0.44197  0.12733  0.42393     H
C      0.44197  0.21253  0.42843     C
H      0.44377  0.23913  0.36013     H
N       0.4444   0.2777   0.8694     N
C      0.44617  0.56113  0.16133     C
C       0.4483   0.2205    0.828     C
H      0.44893  0.93087  0.91537     H
H       0.4512   0.1971   0.8935     H
C      0.45413  0.56277  0.76177     C
O      0.45487  0.49043  0.37133     O
C      0.45587  0.94813  0.11283     C
C      0.45693  0.52417  0.84807     C
H       0.4576   0.3124    0.825     H
H      0.45767  0.50423  0.05763     H
H      0.46067  0.35203  0.24273     H
H      0.46203  0.88957  0.69347     H
H      0.46453  0.40897  0.90327     H
O      0.46513  0.05827  0.45957     O
H      0.46957  0.58743  0.22683     H
O      0.47277  0.84863  0.42473     O
C      0.47583  0.93277  0.84807     C
H       0.4762   0.2913   0.9204     H
N      0.47787  0.39593  0.27593     N
H      0.47853  0.12427  0.84167     H
H      0.48177  0.85713  0.25373     H
H      0.48193  0.55107  0.91537     H
H      0.48367  0.39903  0.34753     H
P      0.48426  0.91397  0.45397     P
O       0.4847   0.2908   0.0914     O
O      0.48987  0.57993  0.49013     O
N      0.48997  0.99983  0.18603     N
N      0.49013  0.48997  0.81397     N
O      0.49043  0.03557  0.62867     O
H      0.49207  0.23553  0.45453     H
C      0.49227  0.54413  0.11283     C
H      0.49577  0.95343  0.05763     H
H      0.49987  0.09093  0.12293     H
N      0.49997  0.88893  0.20273     N
N      0.50003  0.11107  0.79727     N
H      0.50013  0.90907  0.87707     H
H      0.50423  0.04657  0.94237     H
C      0.50773  0.45587  0.88717     C
H      0.50793  0.76447  0.54547     H
O      0.50957  0.96443  0.37133     O
N      0.50987  0.51003  0.18603     N
N      0.51003  0.00017  0.81397     N
O      0.51013  0.42007  0.50987     O
O       0.5153   0.7092   0.9086     O
P      0.51574  0.08603  0.54603     P
H      0.51633  0.60097  0.65247     H
H      0.51807  0.44893  0.08463     H
H      0.51823  0.14287  0.74627     H
H      0.52147  0.87573  0.15833     H
N      0.52213  0.60407  0.72407     N
H       0.5238   0.7087   0.0796     H
C      0.52417  0.06723  0.15193     C
O      0.52723  0.15137  0.57527     O
H      0.53043  0.41257  0.77317     H
O      0.53487  0.94173  0.54043     O
H      0.53547  0.59103  0.09673     H
H      0.53797  0.11043  0.30653     H
H      0.53933  0.64797  0.75727     H
H      0.54233  0.49577  0.94237     H
H       0.5424   0.6876    0.175     H
C      0.54307  0.47583  0.15193     C
C      0.54413  0.05187  0.88717     C
O      0.54513  0.50957  0.62867     O
C      0.54587  0.43723  0.23823     C
H       0.5488   0.8029   0.1065     H
H      0.55107  0.06913  0.08463     H
C       0.5517   0.7795    0.172     C
C      0.55383  0.43887  0.83867     C
N       0.5556   0.7223   0.1306     N
H      0.55623  0.76087  0.63987     H
C      0.55803  0.78747  0.57157     C
H      0.55803  0.87267  0.57607     H
Ga      0.5604  0.98343  0.25001    Ga
C      0.56113  0.11497  0.83867     C
C      0.56277  0.10863  0.23823     C
H      0.56887  0.41013  0.21213     H
P      0.57028  0.48426  0.54603     P
H      0.57247  0.46203  0.30653     H
Fe     0.57359  0.60148  0.45226    Fe
H      0.57573  0.74227  0.45627     H
O       0.5766   0.8232   0.8432     O
Ga     0.57696   0.5604  0.74999    Ga
O      0.57993  0.09007  0.50987     O
P      0.58064  0.76305  0.87936     P
H      0.58203  0.84967  0.68087     H
N      0.58473  0.85547  0.60927     N
H      0.58743  0.11787  0.77317     H
H      0.58987  0.15873  0.21213     H
O        0.591   0.6339   0.3228     O
H      0.59103  0.05557  0.90327     H
H      0.59107  0.50013  0.12293     H
O      0.59313  0.53487  0.45957     O
H      0.59753  0.81527  0.41797     H
C      0.59943  0.79027  0.48527     C
H      0.60097  0.08463  0.34753     H
Ga     0.60148   0.0279  0.54774    Ga
O      0.60277  0.99783  0.11773     O
N      0.60407  0.08193  0.27593     N
O      0.60493  0.60277  0.88227     O
O       0.6084   0.7402   0.7929     O
N      0.61103  0.49997  0.79727     N
H       0.6111   0.8688   0.2366     H
C       0.6148   0.8256   0.2205     C
H       0.6201    0.791   0.2757     H
O      0.62167  0.66453  0.54603     O
O      0.62377  0.92433  0.01053     O
O       0.6238    0.955   0.7873     O
O      0.62393  0.96697  0.30737     O
O      0.62413  0.47277  0.57527     O
H      0.62463  0.48177  0.74627     H
O       0.6311   0.7882    0.962     O
O      0.63363  0.67637  0.02597     O
O       0.6339   0.0429   0.6772     O
Ga     0.63877  0.90692  0.88107    Ga
H      0.64573  0.52147  0.84167     H
H      0.64797  0.10863  0.24273     H
Ga      0.6501  0.75637  0.08332    Ga
P      0.65328  0.99293  0.05735     P
O      0.65697  0.62393  0.69263     O
P       0.6596  0.67299  0.27598     P
P      0.66034  0.65328  0.94265     P
O       0.6645   0.7284   0.2156     O
O      0.66453  0.04287  0.45397     O
N       0.6665   0.8432   0.1473     N
N      0.66683  0.82347  0.51937     N
O       0.6688   0.6238   0.2127     O
O      0.66883  0.93827  0.45107     O
P      0.67299  0.01339  0.72402     P
P      0.67373  0.99368  0.39069     P
O      0.67637  0.04273  0.97403     O
P      0.68006  0.67373  0.60931     P
Ga     0.68323   0.9103  0.58335    Ga
H      0.68537  0.55803  0.42393     H
H       0.6876   0.1452    0.825     H
Fe     0.69456  0.75975   0.7856    Fe
O      0.69943  0.62377  0.98947     O
O       0.6997   0.9903   0.6407     O
O      0.70223  0.87847  0.70467     O
H       0.7087   0.1849   0.9204     H
O       0.7092   0.1939   0.0914     O
O       0.7094   0.6997   0.3593     O
O      0.70953  0.71167  0.87937     O
O      0.70957  0.74233  0.65613     O
O      0.71167  0.00213  0.12063     O
H      0.71323  0.87567  0.39097     H
C      0.71853  0.84107  0.44617     C
H      0.72223  0.79787  0.43007     H
N       0.7223   0.1667   0.8694     N
O      0.72493  0.92647  0.87377     O
O       0.7284   0.0639   0.7844     O
N      0.72927  0.58473  0.39073     N
O      0.73057  0.66883  0.54893     O
Fe     0.73185  0.63877  0.11893    Fe
H      0.73237  0.58203  0.31913     H
C       0.7339   0.8764   0.1814     C
H       0.7358   0.8514   0.2487     H
O       0.7402   0.1318   0.2071     O
H      0.74227  0.16653  0.54373     H
H       0.7423   0.6111   0.7634     H
O      0.74233  0.03277  0.34387     O
H      0.74347  0.50793  0.45453     H
H       0.7459   0.5488   0.8935     H
N       0.7486   0.8112   0.0574     N
H       0.7513    0.817   0.9858     H
P      0.75269  0.90362  0.78731     P
O       0.7534   0.5766   0.1568     O
Ga     0.75637  0.10627  0.91668    Ga
O      0.75673  0.84347  0.82347     O
H       0.7576   0.9244   0.2104     H
Ga     0.75975  0.06518   0.2144    Ga
H      0.76087  0.20463  0.36013     H
P      0.76305  0.18241  0.12064     P
H      0.76447  0.25653  0.45453     H
C      0.77057  0.55803  0.42843     C
C       0.7722   0.5517    0.828     C
Ga     0.77294  0.68323  0.41665    Ga
H       0.7753    0.794   0.0906     H
C       0.7753   0.8792   0.0951     C
H       0.7771   0.9058   0.0268     H
N      0.77773  0.94437  0.53607     N
C       0.7795   0.2278    0.828     C
C      0.78163  0.88717  0.49467     C
H      0.78227  0.59753  0.58203     H
H      0.78453  0.86377  0.56017     H
C      0.78747  0.22943  0.42843     C
O       0.7882   0.1571    0.038     O
C       0.7892   0.6148   0.7795     C
C      0.79027  0.19083  0.51473     C
H      0.79093  0.97907  0.49167     H
H        0.791   0.1709   0.7243     H
H        0.794   0.0187   0.9094     H
H      0.79537  0.55623  0.36013     H
H      0.79787  0.07563  0.56993     H
O      0.79847  0.72493  0.12623     O
H       0.8029   0.2541   0.8935     H
O       0.8061   0.5153   0.0914     O
C      0.80917  0.59943  0.51473     C
H      0.80953  0.95797  0.58707     H
N       0.8112   0.0626   0.9426     N
H      0.81187  0.79093  0.50833     H
H       0.8151   0.5238   0.9204     H
H      0.81527  0.21773  0.58203     H
H        0.817   0.0657   0.0142     H
P      0.81759  0.58064  0.12064     P
O      0.81803  0.95747  0.75807     O
O       0.8232   0.2466   0.1568     O
N       0.8233   0.6665   0.8527     N
N      0.82347  0.15663  0.48063     N
O      0.82377  0.70223  0.29533     O
H       0.8254   0.9022   0.1212     H
C       0.8256   0.2108   0.7795     C
H       0.8291   0.6201   0.7243     H
H       0.8332   0.7576   0.7896     H
N       0.8333   0.5556   0.8694     N
N      0.83337  0.77773  0.46393     N
H      0.83347  0.57573  0.54373     H
H      0.83757  0.71323  0.60903     H
C      0.84107  0.12253  0.55383     C
H      0.84127  0.43113  0.21213     H
O       0.8429   0.6311    0.038     O
N       0.8432   0.1767   0.8527     N
N      0.84337  0.66683  0.48063     N
O      0.84347  0.08673  0.17653     O
O      0.84863  0.37587  0.57527     O
P      0.84908  0.75269  0.21269     P
H      0.84967  0.26763  0.31913     H
H       0.8514   0.1156   0.7513     H
H      0.85157  0.80953  0.41293     H
H       0.8548   0.5424    0.825     H
N      0.85547  0.27073  0.39073     N
H      0.85713  0.37537  0.74627     H
C       0.8575   0.7339   0.8186     C
O      0.86057  0.81803  0.24193     O
H      0.86377  0.07923  0.43983     H
O       0.8682   0.6084   0.2071     O
H       0.8688   0.2577   0.7634     H
H       0.8713   0.7771   0.9732     H
H      0.87267  0.31463  0.42393     H
H      0.87567  0.16243  0.60903     H
H      0.87573  0.35427  0.84167     H
C       0.8764   0.1425   0.8186     C
C      0.87747  0.71853  0.55383     C
O      0.87847  0.17623  0.29533     O
C       0.8792   0.1039   0.9049     C
H      0.88213  0.46957  0.77317     H
H       0.8844   0.7358   0.7513     H
C      0.88503  0.44617  0.83867     C
C      0.88717  0.10553  0.50533     C
N      0.88893  0.38897  0.79727     N
H      0.88957  0.42753  0.30653     H
C      0.89137  0.45413  0.23823     C
H      0.89137  0.53933  0.24273     H
Ga     0.89373   0.6501  0.91668    Ga
C      0.89447  0.78163  0.50533     C
C       0.8961   0.7753   0.9049     C
H       0.9022   0.0768   0.8788     H
P      0.90362  0.15092  0.21269     P
H       0.9058   0.1287   0.9732     H
Fe     0.90692  0.26815  0.11893    Fe
H      0.90907  0.40893  0.12293     H
O      0.90993  0.48987  0.50987     O
Ga      0.9103  0.22706  0.41665    Ga
O      0.91327  0.75673  0.17653     O
P      0.91397  0.42972  0.54603     P
H      0.91537  0.51633  0.34753     H
N      0.91807  0.52213  0.27593     N
H      0.92077  0.78453  0.43983     H
H       0.9232   0.8254   0.8788     H
O      0.92433  0.30057  0.98947     O
H      0.92437  0.72223  0.56993     H
H       0.9244   0.1668   0.7896     H
O      0.92647  0.20153  0.12623     O
H      0.93087  0.48193  0.08463     H
C      0.93277  0.45693  0.15193     C
H       0.9343   0.7513   0.0142     H
Ga     0.93482  0.69456   0.2144    Ga
O       0.9361   0.6645   0.7844     O
N       0.9374   0.7486   0.9426     N
O      0.93827  0.26943  0.54893     O
O      0.94173  0.40687  0.45957     O
N      0.94437  0.16663  0.46393     N
H      0.94443  0.53547  0.90327     H
C      0.94813  0.49227  0.88717     C
H      0.95343  0.45767  0.94237     H
O        0.955   0.3312   0.2127     O
O       0.9571    0.591   0.6772     O
O      0.95713  0.62167  0.45397     O
O      0.95727  0.63363  0.97403     O
O      0.95747  0.13943  0.24193     O
H      0.95797  0.14843  0.41293     H
O      0.96443  0.45487  0.62867     O
O      0.96697  0.34303  0.69263     O
O      0.96723  0.70957  0.34387     O
Ga      0.9721  0.57359  0.54774    Ga
H      0.97907  0.18813  0.50833     H
H       0.9813   0.7753   0.9094     H
Ga     0.98343  0.42304  0.74999    Ga
P      0.98661   0.6596  0.72402     P
O       0.9903   0.2906   0.3593     O
P      0.99293  0.33966  0.94265     P
P      0.99368  0.31994  0.60931     P
O      0.99783  0.39507  0.88227     O
O      0.99787  0.70953  0.12063     O
N      0.99983  0.50987  0.81397     N
