data_I
_chemical_name_common  '/home/zhangsd/repos/MofS-CGCNN/ML/data/TSD/clean_cifs/HEKTUO_clean'
_cell_length_a 10.07140
_cell_length_b 11.19630
_cell_length_c 18.94200
_cell_angle_alpha 99.98660
_cell_angle_beta  90.00000
_cell_angle_gamma 116.72900
_space_group_name_H-M_alt      'P 1'


loop_
_space_group_symop_operation_xyz
  'x, y, z' 

loop_
_atom_site_label
_atom_site_fract_x
_atom_site_fract_y
_atom_site_fract_z
_atom_site_type_symbol
Cd         0.0      0.5      0.5    Cd
C       0.0005   0.0974   0.4318     C
C       0.0114   0.8646   0.0482     C
H       0.0119   0.3476   0.3437     H
H       0.0145   0.2176   0.9832     H
O       0.0159   0.3062   0.4921     O
C       0.0214   0.1078   0.6451     C
C       0.0376   0.2334   0.2552     C
H       0.0438   0.3598   0.6596     H
H       0.0488    0.846   0.7426     H
C       0.0606   0.9762   0.8833     C
C       0.0701    0.814   0.5363     C
C        0.075   0.3498   0.3075     C
C       0.0844   0.0238   0.6167     C
C       0.0864   0.1078   0.1451     C
C       0.0969   0.0974   0.9318     C
C       0.1001   0.3556   0.6972     C
C       0.1075   0.2344   0.7003     C
C       0.1269   0.2344   0.2003     C
C       0.1278   0.9304   0.3769     C
H       0.1349   0.9514   0.8699     H
C       0.1468   0.1354   0.4518     C
C       0.1596   0.9478   0.0743     C
H       0.1709   0.8746   0.3589     H
H       0.1716   0.5486   0.7489     H
C       0.1779   0.4688   0.7507     C
O       0.1816   0.5838   0.4205     O
H       0.1835   0.0486   0.6301     H
C       0.1958   0.2334   0.7552     C
C       0.1974   0.0696   0.1231     C
H       0.2028    0.154   0.7574     H
H       0.2031   0.2176   0.4832     H
C       0.2032   0.4678   0.3068     C
O       0.2102   0.8694   0.5416     O
C       0.2118   0.0522   0.4257     C
O       0.2385    0.796   0.0087     O
C       0.2461     0.59   0.3648     C
C       0.2555   0.3556   0.1972     C
C       0.2561    0.186   0.9637     C
C       0.2646   0.4678   0.8068     C
C       0.2748   0.3498   0.8075     C
C       0.2795   0.9104   0.0484     C
O       0.2903   0.3062   0.9921     O
C       0.2909   0.4688   0.2507     C
H       0.2963   0.1254   0.1411     H
H        0.316   0.3598   0.1596     H
H       0.3357   0.3476   0.8437     H
O       0.3408   0.1306   0.9584     O
C       0.3439     0.59   0.8648     C
O       0.3496   0.7006   0.8571     O
O        0.351   0.7006   0.3571     O
Cd     0.35403  0.81026  0.47412    Cd
C       0.3691   0.0896   0.4516     C
H        0.377   0.5486   0.2489     H
O       0.4022   0.5838   0.9205     O
O       0.4138   0.9924   0.0668     O
O       0.4214   0.0076   0.4332     O
O       0.4425    0.204   0.4913     O
Cd     0.45623  0.81026  0.97412    Cd
Cd         0.5      0.5      1.0    Cd
Cd     0.54377  0.18974  0.02588    Cd
O       0.5575    0.796   0.5087     O
O       0.5786   0.9924   0.5668     O
O       0.5862   0.0076   0.9332     O
O       0.5978   0.4162   0.0795     O
H        0.623   0.4514   0.7511     H
C       0.6309   0.9104   0.5484     C
Cd     0.64597  0.18974  0.52588    Cd
O        0.649   0.2994   0.6429     O
O       0.6504   0.2994   0.1429     O
C       0.6561     0.41   0.1352     C
O       0.6592   0.8694   0.0416     O
H       0.6643   0.6524   0.1563     H
H        0.684   0.6402   0.8404     H
H       0.7037   0.8746   0.8589     H
C       0.7091   0.5312   0.7493     C
O       0.7097   0.6938   0.0079     O
C       0.7205   0.0896   0.9516     C
C       0.7252   0.6502   0.1925     C
C       0.7354   0.5322   0.1932     C
C       0.7439    0.814   0.0363     C
C       0.7445   0.6444   0.8028     C
C       0.7539     0.41   0.6352     C
O       0.7615    0.204   0.9913     O
C       0.7882   0.9478   0.5743     C
O       0.7898   0.1306   0.4584     O
C       0.7968   0.5322   0.6932     C
H       0.7969   0.7824   0.5168     H
H       0.7972    0.846   0.2426     H
C       0.8026   0.9304   0.8769     C
C       0.8042   0.7666   0.2448     C
H       0.8165   0.9514   0.3699     H
O       0.8184   0.4162   0.5795     O
C       0.8221   0.5312   0.2493     C
H       0.8284   0.4514   0.2511     H
H       0.8291   0.1254   0.6411     H
C       0.8404   0.0522   0.9257     C
C       0.8532   0.8646   0.5482     C
H       0.8651   0.0486   0.1301     H
C       0.8722   0.0696   0.6231     C
C       0.8731   0.7656   0.7997     C
C       0.8925   0.7656   0.2997     C
C       0.8999   0.6444   0.3028     C
C       0.9031   0.9026   0.0682     C
C       0.9136   0.8922   0.8549     C
C       0.9156   0.9762   0.3833     C
C        0.925   0.6502   0.6925     C
C       0.9299    0.186   0.4637     C
C       0.9394   0.0238   0.1167     C
H       0.9512    0.154   0.2574     H
H       0.9562   0.6402   0.3404     H
C       0.9624   0.7666   0.7448     C
C       0.9786   0.8922   0.3549     C
O       0.9841   0.6938   0.5079     O
H       0.9855   0.7824   0.0168     H
H       0.9881   0.6524   0.6563     H
C       0.9886   0.1354   0.9518     C
C       0.9995   0.9026   0.5682     C
