data_I
_chemical_name_common  '/home/zhangsd/repos/MofS-CGCNN/ML/data/TSD/clean_cifs/HENYUV_clean'
_cell_length_a  7.02490
_cell_length_b  7.02490
_cell_length_c 19.93600
_cell_angle_alpha 90.00000
_cell_angle_beta  90.00000
_cell_angle_gamma 90.00000
_space_group_name_H-M_alt      'P 1'


loop_
_space_group_symop_operation_xyz
  'x, y, z' 

loop_
_atom_site_label
_atom_site_fract_x
_atom_site_fract_y
_atom_site_fract_z
_atom_site_type_symbol
C          0.0      0.0   0.0374     C
N          0.0      0.0   0.1752     N
Zn         0.0      0.0  0.27597    Zn
Zn         0.0      0.0  0.72403    Zn
N          0.0      0.0   0.8248     N
C          0.0      0.0   0.9626     C
C       0.1013   0.8622   0.9269     C
C       0.1022   0.8705   0.8574     C
C       0.1295   0.8978   0.1426     C
O       0.1346   0.1639  0.33965     O
C       0.1378   0.8987   0.0731     C
O       0.1639   0.1346  0.66035     O
H        0.167   0.7665   0.9493     H
O       0.1942   0.7641  0.75045     O
C        0.219   0.7447   0.8119     C
H       0.2335    0.833   0.0507     H
O       0.2359   0.8058  0.24955     O
C       0.2447    0.281   0.3119     C
C       0.2553    0.781   0.1881     C
O       0.2641   0.3058  0.25045     O
H       0.2665    0.333   0.4493     H
C        0.281   0.2447   0.6881     C
O       0.3058   0.2641  0.74955     O
H        0.333   0.2665   0.5507     H
O       0.3361   0.6346  0.83965     O
C       0.3622   0.3987   0.4269     C
O       0.3654   0.6639  0.16035     O
C       0.3705   0.3978   0.3574     C
C       0.3978   0.3705   0.6426     C
C       0.3987   0.3622   0.5731     C
Zn         0.5      0.5  0.22403    Zn
N          0.5      0.5   0.3248     N
C          0.5      0.5   0.4626     C
C          0.5      0.5   0.5374     C
N          0.5      0.5   0.6752     N
Zn         0.5      0.5  0.77597    Zn
C       0.6013   0.6378   0.5731     C
C       0.6022   0.6295   0.6426     C
C       0.6295   0.6022   0.3574     C
O       0.6346   0.3361  0.16035     O
C       0.6378   0.6013   0.4269     C
O       0.6639   0.3654  0.83965     O
H        0.667   0.7335   0.5507     H
O       0.6942   0.7359  0.74955     O
C        0.719   0.7553   0.6881     C
H       0.7335    0.667   0.4493     H
O       0.7359   0.6942  0.25045     O
C       0.7447    0.219   0.1881     C
C       0.7553    0.719   0.3119     C
O       0.7641   0.1942  0.24955     O
H       0.7665    0.167   0.0507     H
C        0.781   0.2553   0.8119     C
O       0.8058   0.2359  0.75045     O
H        0.833   0.2335   0.9493     H
O       0.8361   0.8654  0.66035     O
C       0.8622   0.1013   0.0731     C
O       0.8654   0.8361  0.33965     O
C       0.8705   0.1022   0.1426     C
C       0.8978   0.1295   0.8574     C
C       0.8987   0.1378   0.9269     C
