data_I
_chemical_name_common  '/home/zhangsd/repos/MofS-CGCNN/ML/data/TSD/clean_cifs/HEYBIX_clean'
_cell_length_a  9.19280
_cell_length_b 14.20900
_cell_length_c 32.29710
_cell_angle_alpha 90.00000
_cell_angle_beta  90.00000
_cell_angle_gamma 90.00000
_space_group_name_H-M_alt      'P 1'


loop_
_space_group_symop_operation_xyz
  'x, y, z' 

loop_
_atom_site_label
_atom_site_fract_x
_atom_site_fract_y
_atom_site_fract_z
_atom_site_type_symbol
O       0.0135   0.0389   0.0907     O
O       0.0135   0.2111   0.1593     O
O       0.0135   0.5389   0.5907     O
O       0.0135   0.7111   0.6593     O
O       0.0284   0.3705   0.8319     O
O       0.0284   0.3795   0.9181     O
O       0.0284   0.8705   0.3319     O
O       0.0284   0.8795   0.4181     O
O       0.0525   0.3744   0.4764     O
O       0.0525   0.3756   0.2736     O
O       0.0525   0.8744   0.9764     O
O       0.0525   0.8756   0.7736     O
O        0.069   0.0223   0.2948     O
O        0.069   0.2277   0.9552     O
O        0.069   0.5223   0.7948     O
O        0.069   0.7277   0.4552     O
P        0.106   0.3156  0.30978     P
P        0.106   0.4344  0.44022     P
P        0.106   0.8156  0.80978     P
P        0.106   0.9344  0.94022     P
Zn       0.125    0.125    0.125    Zn
Zn       0.125    0.125  0.25867    Zn
Nb       0.125    0.125    0.625    Nb
Zn       0.125    0.125  0.99133    Zn
F        0.125   0.2604    0.625     F
F        0.125   0.4896    0.125     F
Nb       0.125    0.625    0.125    Nb
Zn       0.125    0.625  0.49133    Zn
Zn       0.125    0.625    0.625    Zn
Zn       0.125    0.625  0.75867    Zn
F        0.125   0.7604    0.125     F
F        0.125   0.9896    0.625     F
P        0.144   0.3156  0.94022     P
P        0.144   0.4344  0.80978     P
P        0.144   0.8156  0.44022     P
P        0.144   0.9344  0.30978     P
O        0.181   0.0223   0.9552     O
O        0.181   0.2277   0.2948     O
O        0.181   0.5223   0.4552     O
O        0.181   0.7277   0.7948     O
O       0.1975   0.3744   0.7736     O
O       0.1975   0.3756   0.9764     O
O       0.1975   0.8744   0.2736     O
O       0.1975   0.8756   0.4764     O
O       0.2216   0.3705   0.4181     O
O       0.2216   0.3795   0.3319     O
O       0.2216   0.8705   0.9181     O
O       0.2216   0.8795   0.8319     O
O       0.2365   0.0389   0.1593     O
O       0.2365   0.2111   0.0907     O
O       0.2365   0.5389   0.6593     O
O       0.2365   0.7111   0.5907     O
O       0.2635   0.2889   0.9093     O
O       0.2635   0.4611   0.8407     O
O       0.2635   0.7889   0.4093     O
O       0.2635   0.9611   0.3407     O
O       0.2784   0.1205   0.6681     O
O       0.2784   0.1295   0.5819     O
O       0.2784   0.6205   0.1681     O
O       0.2784   0.6295   0.0819     O
O       0.3025   0.1244   0.0236     O
O       0.3025   0.1256   0.2264     O
O       0.3025   0.6244   0.5236     O
O       0.3025   0.6256   0.7264     O
O        0.319   0.2723   0.7052     O
O        0.319   0.4777   0.0448     O
O        0.319   0.7723   0.2052     O
O        0.319   0.9777   0.5448     O
P        0.356   0.0656  0.19022     P
P        0.356   0.1844  0.05978     P
P        0.356   0.5656  0.69022     P
P        0.356   0.6844  0.55978     P
F        0.375   0.0104    0.875     F
F        0.375   0.2396    0.375     F
Zn       0.375    0.375  0.00867    Zn
Nb       0.375    0.375    0.375    Nb
Zn       0.375    0.375  0.74133    Zn
Zn       0.375    0.375    0.875    Zn
F        0.375   0.5104    0.375     F
F        0.375   0.7396    0.875     F
Zn       0.375    0.875  0.24133    Zn
Zn       0.375    0.875    0.375    Zn
Zn       0.375    0.875  0.50867    Zn
Nb       0.375    0.875    0.875    Nb
P        0.394   0.0656  0.55978     P
P        0.394   0.1844  0.69022     P
P        0.394   0.5656  0.05978     P
P        0.394   0.6844  0.19022     P
O        0.431   0.2723   0.0448     O
O        0.431   0.4777   0.7052     O
O        0.431   0.7723   0.5448     O
O        0.431   0.9777   0.2052     O
O       0.4475   0.1244   0.7264     O
O       0.4475   0.1256   0.5236     O
O       0.4475   0.6244   0.2264     O
O       0.4475   0.6256   0.0236     O
O       0.4716   0.1205   0.0819     O
O       0.4716   0.1295   0.1681     O
O       0.4716   0.6205   0.5819     O
O       0.4716   0.6295   0.6681     O
O       0.4865   0.2889   0.8407     O
O       0.4865   0.4611   0.9093     O
O       0.4865   0.7889   0.3407     O
O       0.4865   0.9611   0.4093     O
O       0.5135   0.0389   0.5907     O
O       0.5135   0.2111   0.6593     O
O       0.5135   0.5389   0.0907     O
O       0.5135   0.7111   0.1593     O
O       0.5284   0.3705   0.3319     O
O       0.5284   0.3795   0.4181     O
O       0.5284   0.8705   0.8319     O
O       0.5284   0.8795   0.9181     O
O       0.5525   0.3744   0.9764     O
O       0.5525   0.3756   0.7736     O
O       0.5525   0.8744   0.4764     O
O       0.5525   0.8756   0.2736     O
O        0.569   0.0223   0.7948     O
O        0.569   0.2277   0.4552     O
O        0.569   0.5223   0.2948     O
O        0.569   0.7277   0.9552     O
P        0.606   0.3156  0.80978     P
P        0.606   0.4344  0.94022     P
P        0.606   0.8156  0.30978     P
P        0.606   0.9344  0.44022     P
Nb       0.625    0.125    0.125    Nb
Zn       0.625    0.125  0.49133    Zn
Zn       0.625    0.125    0.625    Zn
Zn       0.625    0.125  0.75867    Zn
F        0.625   0.2604    0.125     F
F        0.625   0.4896    0.625     F
Zn       0.625    0.625    0.125    Zn
Zn       0.625    0.625  0.25867    Zn
Nb       0.625    0.625    0.625    Nb
Zn       0.625    0.625  0.99133    Zn
F        0.625   0.7604    0.625     F
F        0.625   0.9896    0.125     F
P        0.644   0.3156  0.44022     P
P        0.644   0.4344  0.30978     P
P        0.644   0.8156  0.94022     P
P        0.644   0.9344  0.80978     P
O        0.681   0.0223   0.4552     O
O        0.681   0.2277   0.7948     O
O        0.681   0.5223   0.9552     O
O        0.681   0.7277   0.2948     O
O       0.6975   0.3744   0.2736     O
O       0.6975   0.3756   0.4764     O
O       0.6975   0.8744   0.7736     O
O       0.6975   0.8756   0.9764     O
O       0.7216   0.3705   0.9181     O
O       0.7216   0.3795   0.8319     O
O       0.7216   0.8705   0.4181     O
O       0.7216   0.8795   0.3319     O
O       0.7365   0.0389   0.6593     O
O       0.7365   0.2111   0.5907     O
O       0.7365   0.5389   0.1593     O
O       0.7365   0.7111   0.0907     O
O       0.7635   0.2889   0.4093     O
O       0.7635   0.4611   0.3407     O
O       0.7635   0.7889   0.9093     O
O       0.7635   0.9611   0.8407     O
O       0.7784   0.1205   0.1681     O
O       0.7784   0.1295   0.0819     O
O       0.7784   0.6205   0.6681     O
O       0.7784   0.6295   0.5819     O
O       0.8025   0.1244   0.5236     O
O       0.8025   0.1256   0.7264     O
O       0.8025   0.6244   0.0236     O
O       0.8025   0.6256   0.2264     O
O        0.819   0.2723   0.2052     O
O        0.819   0.4777   0.5448     O
O        0.819   0.7723   0.7052     O
O        0.819   0.9777   0.0448     O
P        0.856   0.0656  0.69022     P
P        0.856   0.1844  0.55978     P
P        0.856   0.5656  0.19022     P
P        0.856   0.6844  0.05978     P
F        0.875   0.0104    0.375     F
F        0.875   0.2396    0.875     F
Zn       0.875    0.375  0.24133    Zn
Zn       0.875    0.375    0.375    Zn
Zn       0.875    0.375  0.50867    Zn
Nb       0.875    0.375    0.875    Nb
F        0.875   0.5104    0.875     F
F        0.875   0.7396    0.375     F
Zn       0.875    0.875  0.00867    Zn
Nb       0.875    0.875    0.375    Nb
Zn       0.875    0.875  0.74133    Zn
Zn       0.875    0.875    0.875    Zn
P        0.894   0.0656  0.05978     P
P        0.894   0.1844  0.19022     P
P        0.894   0.5656  0.55978     P
P        0.894   0.6844  0.69022     P
O        0.931   0.2723   0.5448     O
O        0.931   0.4777   0.2052     O
O        0.931   0.7723   0.0448     O
O        0.931   0.9777   0.7052     O
O       0.9475   0.1244   0.2264     O
O       0.9475   0.1256   0.0236     O
O       0.9475   0.6244   0.7264     O
O       0.9475   0.6256   0.5236     O
O       0.9716   0.1205   0.5819     O
O       0.9716   0.1295   0.6681     O
O       0.9716   0.6205   0.0819     O
O       0.9716   0.6295   0.1681     O
O       0.9865   0.2889   0.3407     O
O       0.9865   0.4611   0.4093     O
O       0.9865   0.7889   0.8407     O
O       0.9865   0.9611   0.9093     O
