data_I
_chemical_name_common  '/home/zhangsd/repos/MofS-CGCNN/ML/data/TSD/clean_cifs/HICWIB_clean'
_cell_length_a 18.40800
_cell_length_b  9.39230
_cell_length_c 10.07000
_cell_angle_alpha 90.00000
_cell_angle_beta  90.00000
_cell_angle_gamma 90.00000
_space_group_name_H-M_alt      'P 1'


loop_
_space_group_symop_operation_xyz
  'x, y, z' 

loop_
_atom_site_label
_atom_site_fract_x
_atom_site_fract_y
_atom_site_fract_z
_atom_site_type_symbol
O       0.0049   0.1198   0.7962     O
O       0.0049   0.3802   0.2962     O
Ru     0.01473  0.05914  0.09396    Ru
Ru     0.01473  0.44086  0.59396    Ru
C       0.0279   0.2323   0.8559     C
C       0.0279   0.2677   0.3559     C
O       0.0349   0.2346   0.9845     O
O       0.0349   0.2654   0.4845     O
O       0.0451   0.1582   0.2915     O
O       0.0451   0.3418   0.7915     O
K       0.0694   0.5036   0.0521     K
K       0.0694   0.9964   0.5521     K
O       0.0903   0.6187   0.3843     O
O       0.0903   0.8813   0.8843     O
O         0.12   0.5017   0.5723     O
O         0.12   0.9983   0.0723     O
C       0.1384   0.5813   0.4711     C
C       0.1384   0.9187   0.9711     C
H         0.17   0.5749   0.1991     H
H         0.17   0.9251   0.6991     H
H       0.1987    0.662   0.1007     H
H       0.1987    0.838   0.6007     H
O       0.2037   0.6194   0.4603     O
O       0.2037   0.8806   0.9603     O
O       0.2085   0.6141   0.1701     O
O       0.2085   0.8859   0.6701     O
Co        0.25     0.75  0.31542    Co
Co        0.25     0.75  0.81542    Co
O       0.2915   0.6141   0.6701     O
O       0.2915   0.8859   0.1701     O
O       0.2963   0.6194   0.9603     O
O       0.2963   0.8806   0.4603     O
H       0.3013    0.662   0.6007     H
H       0.3013    0.838   0.1007     H
H         0.33   0.5749   0.6991     H
H         0.33   0.9251   0.1991     H
C       0.3616   0.5813   0.9711     C
C       0.3616   0.9187   0.4711     C
O         0.38   0.5017   0.0723     O
O         0.38   0.9983   0.5723     O
O       0.4097   0.6187   0.8843     O
O       0.4097   0.8813   0.3843     O
K       0.4306   0.5036   0.5521     K
K       0.4306   0.9964   0.0521     K
O       0.4549   0.1582   0.7915     O
O       0.4549   0.3418   0.2915     O
O       0.4651   0.2346   0.4845     O
O       0.4651   0.2654   0.9845     O
C       0.4721   0.2323   0.3559     C
C       0.4721   0.2677   0.8559     C
Ru     0.48527  0.05914  0.59396    Ru
Ru     0.48527  0.44086  0.09396    Ru
O       0.4951   0.1198   0.2962     O
O       0.4951   0.3802   0.7962     O
O       0.5049   0.6198   0.2038     O
O       0.5049   0.8802   0.7038     O
Ru     0.51473  0.55914  0.90604    Ru
Ru     0.51473  0.94086  0.40604    Ru
C       0.5279   0.7323   0.1441     C
C       0.5279   0.7677   0.6441     C
O       0.5349   0.7346   0.0155     O
O       0.5349   0.7654   0.5155     O
O       0.5451   0.6582   0.7085     O
O       0.5451   0.8418   0.2085     O
K       0.5694   0.0036   0.9479     K
K       0.5694   0.4964   0.4479     K
O       0.5903   0.1187   0.6157     O
O       0.5903   0.3813   0.1157     O
O         0.62   0.0017   0.4277     O
O         0.62   0.4983   0.9277     O
C       0.6384   0.0813   0.5289     C
C       0.6384   0.4187   0.0289     C
H         0.67   0.0749   0.8009     H
H         0.67   0.4251   0.3009     H
H       0.6987    0.162   0.8993     H
H       0.6987    0.338   0.3993     H
O       0.7037   0.1194   0.5397     O
O       0.7037   0.3806   0.0397     O
O       0.7085   0.1141   0.8299     O
O       0.7085   0.3859   0.3299     O
Co        0.75     0.25  0.18458    Co
Co        0.75     0.25  0.68458    Co
O       0.7915   0.1141   0.3299     O
O       0.7915   0.3859   0.8299     O
O       0.7963   0.1194   0.0397     O
O       0.7963   0.3806   0.5397     O
H       0.8013    0.162   0.3993     H
H       0.8013    0.338   0.8993     H
H         0.83   0.0749   0.3009     H
H         0.83   0.4251   0.8009     H
C       0.8616   0.0813   0.0289     C
C       0.8616   0.4187   0.5289     C
O         0.88   0.0017   0.9277     O
O         0.88   0.4983   0.4277     O
O       0.9097   0.1187   0.1157     O
O       0.9097   0.3813   0.6157     O
K       0.9306   0.0036   0.4479     K
K       0.9306   0.4964   0.9479     K
O       0.9549   0.6582   0.2085     O
O       0.9549   0.8418   0.7085     O
O       0.9651   0.7346   0.5155     O
O       0.9651   0.7654   0.0155     O
C       0.9721   0.7323   0.6441     C
C       0.9721   0.7677   0.1441     C
Ru     0.98527  0.55914  0.40604    Ru
Ru     0.98527  0.94086  0.90604    Ru
O       0.9951   0.6198   0.7038     O
O       0.9951   0.8802   0.2038     O
