data_I
_chemical_name_common  '/home/zhangsd/repos/MofS-CGCNN/ML/data/TSD/clean_cifs/HIHGUC_clean'
_cell_length_a 16.28450
_cell_length_b 16.28450
_cell_length_c 27.63900
_cell_angle_alpha 85.56360
_cell_angle_beta  85.56360
_cell_angle_gamma 71.75330
_space_group_name_H-M_alt      'P 1'


loop_
_space_group_symop_operation_xyz
  'x, y, z' 

loop_
_atom_site_label
_atom_site_fract_x
_atom_site_fract_y
_atom_site_fract_z
_atom_site_type_symbol
O      0.00109  0.56409   0.3196     O
O        0.002   0.3586    0.749     O
C       0.0046   0.7926    0.877     C
C       0.0078    0.075   0.1892     C
H       0.0082   0.7472   0.9001     H
H       0.0115   0.0289   0.2119     H
C       0.0179   0.1641   0.6805     C
C       0.0239   0.4125   0.7221     C
O      0.02779  0.23099   0.6539     O
H       0.0289   0.0115   0.7119     H
O      0.03828  0.82668  0.28954     O
H       0.0663   0.2517   0.6644     H
C       0.0749   0.8665   0.8199     C
C        0.075   0.0078   0.6892     C
C       0.0786   0.1472   0.1335     C
C       0.0789   0.8015    0.853     C
C       0.0817   0.0827   0.1666     C
C       0.0827   0.0817   0.6666     C
H       0.0859   0.5419   0.6839     H
C       0.0866   0.4566   0.7412     C
Cd     0.08873  0.66215  0.31096    Cd
H       0.1001   0.3835   0.8067     H
C       0.1068    0.524   0.7146     C
C       0.1157   0.4275   0.7887     C
O      0.12144  0.61464  0.39219     O
H       0.1246    0.873   0.8034     H
H        0.127   0.8754   0.6966     H
H        0.129   0.1532   0.1174     H
H       0.1329   0.5951    0.482     H
C       0.1335   0.9251   0.6801     C
C       0.1472   0.0786   0.6335     C
O        0.152   0.7374  0.86633     O
H       0.1532    0.129   0.6174     H
C        0.158   0.5642   0.7345     C
C       0.1641   0.0179   0.1805     C
C       0.1705   0.4705   0.8072     C
H        0.172   0.6102   0.7177     H
C       0.1731   0.6575   0.3962     C
O      0.17332  0.96172  0.21046     O
C       0.1769   0.6195   0.4848     C
H       0.1874   0.5926   0.5573     H
C       0.1893   0.5341   0.7812     C
H       0.1915   0.5011   0.2758     H
O      0.19226  0.70386  0.36131     O
H       0.1927   0.4533   0.8376     H
O      0.19488  0.66208  0.24643     O
C       0.1985   0.9211    0.647     C
H       0.2071   0.5721   0.8674     H
C       0.2074   0.9954    0.623     C
C       0.2088   0.6184     0.53     C
C       0.2093   0.6561   0.4435     C
O      0.21136  0.53888  0.28962     O
H       0.2239   0.7463   0.6518     H
H       0.2255   0.7327   0.8061     H
O      0.23099  0.02779   0.1539     O
C       0.2319   0.7297   0.8408     C
C        0.236   0.5848   0.2558     C
O       0.2415   0.5801  0.79566     O
H       0.2488     0.65   0.9286     H
H       0.2517   0.0663   0.1644     H
H       0.2528   0.9918   0.5999     H
H       0.2537   0.7761   0.8482     H
C       0.2596   0.5686  0.84735     C
O       0.2626    0.848  0.63367     O
H       0.2673   0.7745   0.6939     H
C       0.2703   0.7681   0.6592     C
C       0.2737   0.6569    0.534     C
C       0.2741   0.6893   0.4488     C
H        0.285    0.647   0.0052     H
H       0.2879   0.7027   0.0789     H
C       0.2944    0.642  0.85703     C
O      0.29614  0.80774  0.13869     O
O      0.29673  0.65633  0.58101     O
H       0.2973   0.7121   0.4211     H
H       0.3021   0.5129   0.8543     H
C      0.30476  0.63836  0.91095     C
C       0.3084   0.6914   0.4929     C
C       0.3086   0.6916   0.0071     C
C       0.3107   0.7259   0.0512     C
H       0.3174   0.6488   0.1819     H
H       0.3197   0.5991   0.6649     H
C       0.3204    0.545   0.2269     C
Cd     0.33785  0.91127  0.18904    Cd
O      0.33792  0.80512  0.25357     O
H       0.3413   0.5817   0.9219     H
C       0.3425   0.8269   0.1038     C
C       0.3431   0.7263    0.966     C
O      0.34367  0.70327  0.91899     O
C       0.3439   0.7907   0.0565     C
H         0.35   0.7512   0.5714     H
C       0.3508   0.5926   0.1906     C
H       0.3512   0.6826   0.3181     H
H        0.353    0.715   0.4948     H
H       0.3542   0.4292   0.2652     H
C        0.358   0.7056  0.64297     C
O       0.3586    0.002    0.249     O
C      0.36164  0.69524  0.58905     C
H       0.3657   0.6277   0.7057     H
C        0.367   0.6204  0.67111     C
H       0.3688   0.4828   0.7241     H
H       0.3723   0.6343   0.7943     H
C        0.373    0.461   0.2399     C
C       0.3796    0.633  0.82889     C
C       0.3805   0.8231   0.0152     C
C       0.3816   0.7912     0.97     C
H       0.3835   0.1001   0.3067     H
O      0.38536  0.87856  0.10781     O
H       0.3898    0.828   0.7823     H
H       0.4009   0.6803   0.8351     H
H       0.4049   0.8671    0.018     H
C       0.4074   0.6492   0.3094     C
H       0.4074   0.8126   0.9427     H
H       0.4102     0.55   0.3574     H
C       0.4125   0.0239   0.2221     C
C       0.4152    0.764   0.2442     C
H       0.4183   0.6587   0.5781     H
O       0.4199   0.7585  0.70434     O
C       0.4257   0.4501   0.7164     C
C       0.4275   0.1157   0.2887     C
H       0.4279   0.7929   0.6326     H
H       0.4292   0.3542   0.7652     H
C       0.4303   0.5575   0.1674     C
C       0.4314   0.7404  0.65265     C
C       0.4358    0.842   0.7655     C
O      0.43591  0.99891   0.1804     O
O      0.43901  0.55261  0.84434     O
C       0.4425   0.5697   0.3326     C
O      0.44739  0.56099  0.65566     O
H         0.45   0.5898   0.1426     H
C       0.4501   0.4257   0.2164     C
H       0.4533   0.1927   0.3376     H
C        0.455   0.6796   0.2731     C
C       0.4566   0.0866   0.2412     C
H       0.4581   0.9141   0.8161     H
C        0.461    0.373   0.7399     C
O      0.46112  0.78864  0.21038     O
C       0.4659   0.8107   0.7188     C
C       0.4705   0.1705   0.3072     C
C       0.4757   0.4809     0.68     C
C        0.476   0.8932   0.7854     C
C       0.4809   0.4757     0.18     C
H       0.4828   0.3688   0.2241     H
H       0.4871   0.6979   0.6457     H
H       0.4989   0.8085   0.2242     H
H       0.5011   0.1915   0.7758     H
H       0.5129   0.3021   0.3543     H
H       0.5172   0.6312   0.7759     H
C       0.5191   0.5243     0.82     C
C        0.524   0.1068   0.2146     C
C       0.5243   0.5191     0.32     C
C       0.5295   0.8295   0.6928     C
C       0.5341   0.1893   0.2812     C
O      0.53888  0.21136  0.78962     O
C        0.539    0.627   0.2601     C
H       0.5419   0.0859   0.1839     H
C       0.5434   0.9134   0.7588     C
C        0.545   0.3204   0.7269     C
H       0.5467   0.8073   0.6624     H
C       0.5499   0.5743   0.7836     C
H         0.55   0.4102   0.8574     H
O      0.55261  0.43901  0.34434     O
C       0.5575   0.4303   0.6674     C
O      0.56099  0.44739  0.15566     O
O      0.56409  0.00109   0.8196     O
C       0.5642    0.158   0.2345     C
C       0.5686   0.2596  0.34735     C
C       0.5697   0.4425   0.8326     C
H       0.5708   0.6458   0.2348     H
H       0.5721   0.2071   0.3674     H
C       0.5725   0.8843   0.7113     C
C       0.5743   0.5499   0.2836     C
O       0.5801   0.2415  0.29566     O
H       0.5817   0.3413   0.4219     H
C       0.5848    0.236   0.7558     C
C       0.5875   0.9761   0.7779     C
H       0.5898     0.45   0.6426     H
H       0.5926   0.1874   0.0573     H
C       0.5926   0.3508   0.6906     C
H       0.5951   0.1329    0.982     H
H       0.5991   0.3197   0.1649     H
H       0.6102    0.172   0.2177     H
O      0.61464  0.12144  0.89219     O
H       0.6165   0.8999   0.6933     H
C       0.6184   0.2088     0.03     C
C       0.6195   0.1769   0.9848     C
C       0.6204    0.367  0.17111     C
C        0.627    0.539   0.7601     C
H       0.6277   0.3657   0.2057     H
H       0.6312   0.5172   0.2759     H
C        0.633   0.3796  0.32889     C
H       0.6343   0.3723   0.2943     H
C      0.63836  0.30476  0.41095     C
O       0.6414    0.998    0.751     O
C        0.642   0.2944  0.35703     C
H       0.6458   0.5708   0.7348     H
H        0.647    0.285   0.5052     H
H       0.6488   0.3174   0.6819     H
C       0.6492   0.4074   0.8094     C
H         0.65   0.2488   0.4286     H
C       0.6561   0.2093   0.9435     C
O      0.65633  0.29673  0.08101     O
C       0.6569   0.2737    0.034     C
C       0.6575   0.1731   0.8962     C
H       0.6587   0.4183   0.0781     H
O      0.66208  0.19488  0.74643     O
Cd     0.66215  0.08873  0.81096    Cd
C       0.6796    0.455   0.7731     C
H       0.6803   0.4009   0.3351     H
H       0.6826   0.3512   0.8181     H
C       0.6893   0.2741   0.9488     C
C       0.6914   0.3084   0.9929     C
C       0.6916   0.3086   0.5071     C
C      0.69524  0.36164  0.08905     C
H       0.6979   0.4871   0.1457     H
H       0.7027   0.2879   0.5789     H
O      0.70327  0.34367  0.41899     O
O      0.70386  0.19226  0.86131     O
C       0.7056    0.358  0.14297     C
H       0.7121   0.2973   0.9211     H
H        0.715    0.353   0.9948     H
C       0.7259   0.3107   0.5512     C
C       0.7263   0.3431    0.466     C
C       0.7297   0.2319   0.3408     C
H       0.7327   0.2255   0.3061     H
O       0.7374    0.152  0.36633     O
C       0.7404   0.4314  0.15265     C
H       0.7463   0.2239   0.1518     H
H       0.7472   0.0082   0.4001     H
H       0.7483   0.9337   0.8356     H
H       0.7512     0.35   0.0714     H
O       0.7585   0.4199  0.20434     O
C        0.764   0.4152   0.7442     C
C       0.7681   0.2703   0.1592     C
O      0.76901  0.97221   0.8461     O
H       0.7745   0.2673   0.1939     H
H       0.7761   0.2537   0.3482     H
O      0.78864  0.46112  0.71038     O
C       0.7907   0.3439   0.5565     C
C       0.7912   0.3816     0.47     C
C       0.7926   0.0046    0.377     C
H       0.7929   0.4279   0.1326     H
C       0.8015   0.0789    0.353     C
O      0.80512  0.33792  0.75357     O
H       0.8073   0.5467   0.1624     H
O      0.80774  0.29614  0.63869     O
H       0.8085   0.4989   0.7242     H
C       0.8107   0.4659   0.2188     C
H       0.8126   0.4074   0.4427     H
C       0.8231   0.3805   0.5152     C
O      0.82668  0.03828  0.78954     O
C       0.8269   0.3425   0.6038     C
H        0.828   0.3898   0.2823     H
C       0.8295   0.5295   0.1928     C
C       0.8359   0.9821   0.8195     C
C        0.842   0.4358   0.2655     C
H       0.8468    0.871   0.3826     H
O        0.848   0.2626  0.13367     O
C       0.8528   0.9214   0.3665     C
C       0.8665   0.0749   0.3199     C
H       0.8671   0.4049    0.518     H
H        0.871   0.8468   0.8826     H
H        0.873   0.1246   0.3034     H
H       0.8754    0.127   0.1966     H
O      0.87856  0.38536  0.60781     O
C       0.8843   0.5725   0.2113     C
C       0.8932    0.476   0.2854     C
H       0.8999   0.6165   0.1933     H
Cd     0.91127  0.33785  0.68904    Cd
C       0.9134   0.5434   0.2588     C
H       0.9141   0.4581   0.3161     H
C       0.9173   0.9183   0.3334     C
C       0.9183   0.9173   0.8334     C
C       0.9211   0.1985    0.147     C
C       0.9214   0.8528   0.8665     C
C        0.925   0.9922   0.3108     C
C       0.9251   0.1335   0.1801     C
H       0.9337   0.7483   0.3356     H
O      0.96172  0.17332  0.71046     O
H       0.9711   0.9885   0.2881     H
O      0.97221  0.76901   0.3461     O
C       0.9761   0.5875   0.2779     C
C       0.9821   0.8359   0.3195     C
H       0.9885   0.9711   0.7881     H
H       0.9918   0.2528   0.0999     H
C       0.9922    0.925   0.8108     C
C       0.9954   0.2074    0.123     C
O        0.998   0.6414    0.251     O
O      0.99891  0.43591   0.6804     O
