data_I
_chemical_name_common  '/home/zhangsd/repos/MofS-CGCNN/ML/data/TSD/clean_cifs/HIQNUS_clean'
_cell_length_a 16.31700
_cell_length_b 13.02000
_cell_length_c 13.59100
_cell_angle_alpha 90.00000
_cell_angle_beta  100.30300
_cell_angle_gamma 90.00000
_space_group_name_H-M_alt      'P 1'


loop_
_space_group_symop_operation_xyz
  'x, y, z' 

loop_
_atom_site_label
_atom_site_fract_x
_atom_site_fract_y
_atom_site_fract_z
_atom_site_type_symbol
Zn         0.0  0.33665     0.75    Zn
Zn         0.0  0.66335     0.25    Zn
C        0.041   0.2635   0.2741     C
C        0.041   0.7365   0.7741     C
C       0.0421   0.0825   0.2739     C
C       0.0421   0.9175   0.7739     C
O      0.05536   0.2428   0.6666     O
O      0.05536   0.7572   0.1666     O
H       0.0682   0.3258   0.2898     H
H       0.0682   0.6742   0.7898     H
H         0.07   0.0205   0.2884     H
H         0.07   0.9795   0.7884     H
C        0.083   0.1736   0.2991     C
C        0.083   0.8264   0.7991     C
O      0.08497   0.4257   0.8297     O
O      0.08497   0.5743   0.3297     O
C       0.1194   0.1967   0.7155     C
C       0.1194   0.8033   0.2155     C
H       0.1226    0.185   0.5182     H
H       0.1226    0.815   0.0182     H
O       0.1314   0.4564   0.6866     O
O       0.1314   0.5436   0.1866     O
C       0.1369   0.4636   0.7788     C
C       0.1369   0.5364   0.2788     C
O       0.1396   0.2013   0.8089     O
O       0.1396   0.7987   0.3089     O
C       0.1645   0.1443   0.5539     C
C       0.1645   0.8557   0.0539     C
C       0.1728   0.1367   0.6589     C
C       0.1728   0.8633   0.1589     C
C       0.1756    0.182   0.3431     C
C       0.1756    0.818   0.8431     C
H       0.1805   0.4971   0.9745     H
H       0.1805   0.5029   0.4745     H
H       0.1838   0.2421   0.3859     H
H       0.1838   0.7579   0.8859     H
H       0.2057   0.1936   0.2886     H
H       0.2057   0.8064   0.7886     H
C       0.2092   0.4764    0.337     C
C       0.2092   0.5236    0.837     C
N       0.2128   0.0941   0.4007     N
N       0.2128   0.9059   0.9007     N
C       0.2176   0.4684   0.4415     C
C       0.2176   0.5316   0.9415     C
C       0.2185   0.0913   0.5035     C
C       0.2185   0.9087   0.0035     C
H        0.232   0.0438   0.3705     H
H        0.232   0.9562   0.8705     H
C       0.2365   0.0756   0.7118     C
C       0.2365   0.9244   0.2118     C
H       0.2421     0.07    0.781     H
H       0.2421     0.93    0.281     H
H       0.2579     0.43    0.219     H
H       0.2579     0.57    0.719     H
C       0.2635   0.4244   0.2882     C
C       0.2635   0.5756   0.7882     C
H        0.268   0.4562   0.6295     H
H        0.268   0.5438   0.1295     H
C       0.2815   0.4087   0.4965     C
C       0.2815   0.5913   0.9965     C
C       0.2824   0.0316   0.5585     C
C       0.2824   0.9684   0.0585     C
N       0.2872   0.4059   0.5993     N
N       0.2872   0.5941   0.0993     N
C       0.2908   0.0236    0.663     C
C       0.2908   0.9764    0.163     C
H       0.2943   0.3064   0.7114     H
H       0.2943   0.6936   0.2114     H
H       0.3162   0.2579   0.6141     H
H       0.3162   0.7421   0.1141     H
H       0.3195   0.0029   0.0255     H
H       0.3195   0.9971   0.5255     H
C       0.3244    0.318   0.6569     C
C       0.3244    0.682   0.1569     C
C       0.3272   0.3633   0.3411     C
C       0.3272   0.6367   0.8411     C
C       0.3355   0.3557   0.4461     C
C       0.3355   0.6443   0.9461     C
O       0.3604   0.2987   0.1911     O
O       0.3604   0.7013   0.6911     O
C       0.3631   0.0364   0.2212     C
C       0.3631   0.9636   0.7212     C
O       0.3686   0.0436   0.3134     O
O       0.3686   0.9564   0.8134     O
H       0.3774    0.315   0.4818     H
H       0.3774    0.685   0.9818     H
C       0.3806   0.3033   0.2845     C
C       0.3806   0.6967   0.7845     C
O      0.41503   0.0743   0.1703     O
O      0.41503   0.9257   0.6703     O
C        0.417   0.3264   0.7009     C
C        0.417   0.6736   0.2009     C
H         0.43   0.4795   0.7116     H
H         0.43   0.5205   0.2116     H
H       0.4318   0.1742   0.7102     H
H       0.4318   0.8258   0.2102     H
O      0.44464   0.2572   0.3334     O
O      0.44464   0.7428   0.8334     O
C       0.4579   0.4175   0.7261     C
C       0.4579   0.5825   0.2261     C
C        0.459   0.2365   0.7259     C
C        0.459   0.7635   0.2259     C
Zn         0.5  0.16335     0.25    Zn
Zn         0.5  0.83665     0.75    Zn
C        0.541   0.2365   0.7741     C
C        0.541   0.7635   0.2741     C
C       0.5421   0.4175   0.7739     C
C       0.5421   0.5825   0.2739     C
O      0.55536   0.2572   0.1666     O
O      0.55536   0.7428   0.6666     O
H       0.5682   0.1742   0.7898     H
H       0.5682   0.8258   0.2898     H
H         0.57   0.4795   0.7884     H
H         0.57   0.5205   0.2884     H
C        0.583   0.3264   0.7991     C
C        0.583   0.6736   0.2991     C
O      0.58497   0.0743   0.3297     O
O      0.58497   0.9257   0.8297     O
C       0.6194   0.3033   0.2155     C
C       0.6194   0.6967   0.7155     C
H       0.6226    0.315   0.0182     H
H       0.6226    0.685   0.5182     H
O       0.6314   0.0436   0.1866     O
O       0.6314   0.9564   0.6866     O
C       0.6369   0.0364   0.2788     C
C       0.6369   0.9636   0.7788     C
O       0.6396   0.2987   0.3089     O
O       0.6396   0.7013   0.8089     O
C       0.6645   0.3557   0.0539     C
C       0.6645   0.6443   0.5539     C
C       0.6728   0.3633   0.1589     C
C       0.6728   0.6367   0.6589     C
C       0.6756    0.318   0.8431     C
C       0.6756    0.682   0.3431     C
H       0.6805   0.0029   0.4745     H
H       0.6805   0.9971   0.9745     H
H       0.6838   0.2579   0.8859     H
H       0.6838   0.7421   0.3859     H
H       0.7057   0.3064   0.7886     H
H       0.7057   0.6936   0.2886     H
C       0.7092   0.0236    0.837     C
C       0.7092   0.9764    0.337     C
N       0.7128   0.4059   0.9007     N
N       0.7128   0.5941   0.4007     N
C       0.7176   0.0316   0.9415     C
C       0.7176   0.9684   0.4415     C
C       0.7185   0.4087   0.0035     C
C       0.7185   0.5913   0.5035     C
H        0.732   0.4562   0.8705     H
H        0.732   0.5438   0.3705     H
C       0.7365   0.4244   0.2118     C
C       0.7365   0.5756   0.7118     C
H       0.7421     0.43    0.281     H
H       0.7421     0.57    0.781     H
H       0.7579     0.07    0.719     H
H       0.7579     0.93    0.219     H
C       0.7635   0.0756   0.7882     C
C       0.7635   0.9244   0.2882     C
H        0.768   0.0438   0.1295     H
H        0.768   0.9562   0.6295     H
C       0.7815   0.0913   0.9965     C
C       0.7815   0.9087   0.4965     C
C       0.7824   0.4684   0.0585     C
C       0.7824   0.5316   0.5585     C
N       0.7872   0.0941   0.0993     N
N       0.7872   0.9059   0.5993     N
C       0.7908   0.4764    0.163     C
C       0.7908   0.5236    0.663     C
H       0.7943   0.1936   0.2114     H
H       0.7943   0.8064   0.7114     H
H       0.8162   0.2421   0.1141     H
H       0.8162   0.7579   0.6141     H
H       0.8195   0.4971   0.5255     H
H       0.8195   0.5029   0.0255     H
C       0.8244    0.182   0.1569     C
C       0.8244    0.818   0.6569     C
C       0.8272   0.1367   0.8411     C
C       0.8272   0.8633   0.3411     C
C       0.8355   0.1443   0.9461     C
C       0.8355   0.8557   0.4461     C
O       0.8604   0.2013   0.6911     O
O       0.8604   0.7987   0.1911     O
C       0.8631   0.4636   0.7212     C
C       0.8631   0.5364   0.2212     C
O       0.8686   0.4564   0.8134     O
O       0.8686   0.5436   0.3134     O
H       0.8774    0.185   0.9818     H
H       0.8774    0.815   0.4818     H
C       0.8806   0.1967   0.7845     C
C       0.8806   0.8033   0.2845     C
O      0.91503   0.4257   0.6703     O
O      0.91503   0.5743   0.1703     O
C        0.917   0.1736   0.2009     C
C        0.917   0.8264   0.7009     C
H         0.93   0.0205   0.2116     H
H         0.93   0.9795   0.7116     H
H       0.9318   0.3258   0.2102     H
H       0.9318   0.6742   0.7102     H
O      0.94464   0.2428   0.8334     O
O      0.94464   0.7572   0.3334     O
C       0.9579   0.0825   0.2261     C
C       0.9579   0.9175   0.7261     C
C        0.959   0.2635   0.2259     C
C        0.959   0.7365   0.7259     C
