data_I
_chemical_name_common  '/home/zhangsd/repos/MofS-CGCNN/ML/data/TSD/clean_cifs/HISJAW_clean'
_cell_length_a 17.24540
_cell_length_b 17.24540
_cell_length_c 29.80990
_cell_angle_alpha 73.18660
_cell_angle_beta  73.18660
_cell_angle_gamma 60.00000
_space_group_name_H-M_alt      'P 1'


loop_
_space_group_symop_operation_xyz
  'x, y, z' 

loop_
_atom_site_label
_atom_site_fract_x
_atom_site_fract_y
_atom_site_fract_z
_atom_site_type_symbol
C      0.00042  0.29692  0.36974     C
C      0.00145  0.81525  0.12125     C
O      0.00279  0.91675   0.2888     O
O      0.00376  0.38036  0.35702     O
C      0.00449  0.01879  0.74543     C
H       0.0105   0.8382   0.0293     H
C      0.01077  0.07867  0.44909     C
H       0.0112   0.1222   0.6194     H
C      0.01129  0.46889  0.12483     C
O      0.01171  0.85047    0.473     O
C      0.01327  0.01767  0.16679     C
O      0.01375  0.16949  0.61586     O
H       0.0161   0.5253   0.3461     H
C      0.01631  0.55691  0.90517     C
H       0.0176   0.7117   0.6554     H
C      0.01767  0.80227  0.16679     C
C      0.01879  0.23129  0.74543     C
C      0.01913  0.88183  0.03851     C
H       0.0203   0.4032   0.0309     H
O       0.0206   0.0545   0.0821     O
C      0.02161  0.05691  0.40517     C
H       0.0253   0.5161   0.8461     H
H       0.0262   0.0614    0.014     H
C       0.0276   0.4052   0.3887     C
O      0.03066  0.65938  0.35549     O
C      0.03111  0.48871  0.37517     C
C      0.03278  0.23128  0.79286     C
H        0.038   0.0651   0.9569     H
C      0.03853  0.42133  0.05091     C
Co     0.04062  0.77818  0.32321    Co
H       0.0429    0.703   0.6014     H
H       0.0451   0.2958   0.4415     H
O      0.04553  0.96934  0.64451     O
H       0.0456   0.9032   0.5309     H
H       0.0475   0.9389   0.8291     H
C      0.04811  0.35071  0.43247     C
O       0.0545   0.8428   0.0821     O
C      0.05691  0.51631  0.40517     C
C      0.05692  0.96722  0.20714     C
Co     0.05895  0.74109  0.43763    Co
C      0.05911  0.93741  0.60827     C
H       0.0595   0.2484   0.3746     H
H         0.06    0.962   0.0431     H
C      0.06053  0.01913  0.03851     C
H       0.0611   0.8155   0.1709     H
O      0.06137  0.74789  0.25814     O
H       0.0614   0.8984    0.014     H
C      0.06205  0.00145  0.12125     C
C      0.06259  0.60479  0.39173     C
H       0.0651     0.94   0.9569     H
C      0.06523  0.19933  0.88481     C
O       0.0674  0.93863  0.74186     O
C      0.06869  0.09959  0.50993     C
O      0.07214    0.261  0.52883     O
H       0.0729    0.194   0.9155     H
C      0.07335  0.37965  0.46295     C
C      0.07867  0.46147  0.44909     C
O      0.08325  0.20834   0.7112     O
C      0.08405  0.07335  0.46295     C
C       0.0948   0.4724   0.1113     C
H       0.0968   0.4797   0.4691     H
O      0.09798  0.61866  0.41849     O
C      0.09959  0.32179  0.50993     C
H       0.1016   0.9738    0.986     H
C      0.10479  0.56259  0.89173     C
C      0.10501  0.03111  0.37517     C
C      0.10634  0.23904  0.79838     C
H       0.1125   0.0161   0.3461     H
H       0.1153   0.2117   0.1554     H
C      0.11817  0.93947  0.96149     C
O      0.11866  0.59798  0.91849     O
O      0.11964  0.49624  0.14298     O
C      0.12035  0.42665  0.03705     C
H        0.122   0.0105   0.0293     H
H       0.1222   0.2472   0.6194     H
C      0.12227  0.22227  0.84539     C
O      0.13513  0.90202  0.58151     O
O      0.13803  0.07214  0.52883     O
Co     0.14108  0.14108  0.57676    Co
Co     0.14201  0.95938  0.67679    Co
C      0.14376  0.89366  0.20162     C
H       0.1486   0.2466   0.7712     H
C      0.14929  0.45189  0.06753     C
C      0.14937  0.93477  0.11519     C
O      0.14953  0.33518    0.527     O
H       0.1527    0.203   0.1014     H
O       0.1572   0.9794   0.9179     O
O      0.15938  0.53066  0.85549     O
H       0.1618    0.878   0.9707     H
O      0.16482  0.35047    0.973     O
H       0.1664   0.8514   0.2288     H
C      0.16708  0.20308  0.13026     C
O       0.1687  0.75841  0.39666     O
C      0.16871  0.04811  0.43247     C
O      0.16949   0.2009  0.61586     O
O      0.17623  0.25841  0.89666     O
O      0.17645  0.74621  0.32187     O
C      0.17821  0.40041  0.99007     C
C       0.1785   0.0276   0.3887     C
H       0.1824   0.9271   0.0845     H
H       0.1825   0.2516   0.1254     H
H       0.1845   0.0475   0.8291     H
C      0.18475  0.93795  0.87875     C
C      0.18821  0.24891  0.85427     C
C      0.18993  0.87773  0.15461     C
H        0.194   0.8176   0.9155     H
C      0.19773  0.98673  0.83321     C
C      0.19933  0.85063  0.88481     C
O       0.2009  0.01375  0.61586     O
H        0.203   0.5429   0.1014     H
C      0.20308  0.49958  0.13026     C
H       0.2042   0.4549   0.0585     H
O      0.20834  0.99721   0.7112     O
C      0.20861  0.74891  0.35427     C
H       0.2117   0.5176   0.1554     H
H       0.2176   0.0451   0.4415     H
Co     0.22182  0.14201  0.67679    Co
C      0.22227  0.81007  0.84539     C
C      0.23128  0.94308  0.79286     C
C      0.23129  0.00449  0.74543     C
Co     0.23767  0.94105  0.56237    Co
O        0.239  0.42786  0.97117     O
C      0.23904  0.85624  0.79838     C
Co     0.24109  0.55895  0.93763    Co
O      0.24114  0.11964  0.14298     O
O      0.24159  0.32377  0.60334     O
O      0.24453  0.82355  0.67813     O
O      0.24621  0.67645  0.82187     O
H       0.2466   0.8336   0.7712     H
H       0.2472   0.0112   0.6194     H
O      0.24789  0.56137  0.75814     O
H       0.2484   0.3175   0.3746     H
C      0.24891  0.70861  0.85427     C
C      0.25109  0.31179  0.64573     C
H       0.2516   0.4405   0.1254     H
O      0.25211   0.0674  0.74186     O
H       0.2528   0.3778   0.8806     H
H       0.2534   0.3514   0.7288     H
O      0.25379  0.24453  0.67813     O
O      0.25547  0.24621  0.82187     O
O      0.25841   0.6687  0.89666     O
O      0.25886  0.00376  0.35702     O
Co     0.25891  0.23767  0.56237    Co
C      0.26096  0.39366  0.70162     C
O        0.261  0.13803  0.52883     O
Co     0.26233  0.24109  0.93763    Co
C      0.26871  0.48121  0.75457     C
C      0.26872  0.46722  0.70714     C
C      0.27773  0.37773  0.65461     C
Co     0.27818  0.54062  0.82321    Co
H       0.2824   0.2042   0.0585     H
H       0.2883   0.3847   0.3446     H
C      0.29139  0.81179  0.14573     C
O      0.29166  0.41675   0.7888     O
H       0.2958   0.2176   0.4415     H
C      0.29692  0.33292  0.36974     C
H        0.297   0.3473   0.3986     H
O       0.2991  0.33051  0.88414     O
C      0.30067  0.43477  0.61519     C
C      0.30227  0.51767  0.66679     C
H        0.306   0.4271   0.5845     H
C      0.31007  0.72227  0.34539     C
C      0.31179  0.79139  0.64573     C
C      0.31525  0.50145  0.62125     C
H       0.3155   0.5611   0.6709     H
H       0.3175   0.0595   0.3746     H
H       0.3176    0.694   0.4155     H
C       0.3215   0.0948   0.1113     C
C      0.32179  0.06869  0.50993     C
O      0.32355  0.74453  0.17813     O
O      0.32377   0.8313  0.60334     O
O      0.33051  0.48625  0.88414     O
C      0.33129  0.14929  0.06753     C
O       0.3313  0.82377  0.10334     O
C      0.33292  0.00042  0.36974     C
H       0.3336   0.7466   0.2712     H
O      0.33518  0.98829    0.527     O
H       0.3382   0.5105   0.5293     H
O      0.34062  0.04553  0.64451     O
O       0.3428   0.5545   0.5821     O
H       0.3473   0.9571   0.3986     H
O      0.35047  0.51171    0.973     O
C      0.35063  0.69933  0.38481     C
C      0.35071  0.16871  0.43247     C
H       0.3514   0.6664   0.7288     H
C      0.35624  0.73904  0.29838     C
Co     0.35799  0.27818  0.82321    Co
Co     0.35892  0.35892  0.92324    Co
O      0.36197    0.239  0.97117     O
O      0.36487  0.11866  0.91849     O
C      0.37773  0.68993  0.65461     C
H       0.3778   0.4888   0.8806     H
H        0.378   0.6618   0.4707     H
C      0.37965  0.08405  0.46295     C
O      0.38036  0.25886  0.35702     O
O      0.38134  0.13513  0.58151     O
C      0.38183  0.51913  0.53851     C
H       0.3847   0.9824   0.3446     H
H       0.3875   0.9747   0.1539     H
C      0.39366  0.64376  0.70162     C
C      0.39499  0.01129  0.12483     C
C      0.39521  0.05911  0.60827     C
H       0.3984   0.5614    0.514     H
C      0.40041  0.43131  0.99007     C
O      0.40202  0.63513  0.08151     O
H       0.4032   0.5456   0.0309     H
C       0.4052   0.1785   0.3887     C
C      0.41595  0.12035  0.03705     C
O      0.41675  0.50279   0.7888     O
C      0.42133  0.48923  0.05091     C
C      0.42665  0.41595  0.03705     C
H       0.4271   0.6824   0.5845     H
O      0.42786  0.36197  0.97117     O
C      0.43131  0.17821  0.99007     C
O       0.4326  0.24789  0.75814     O
C      0.43477  0.64937  0.61519     C
H       0.4349    0.462   0.5431     H
C      0.43741  0.55911  0.10827     C
C      0.43795  0.68475  0.37875     C
H       0.4386   0.4738    0.486     H
O      0.43863   0.5674  0.24186     O
H       0.4389   0.5475   0.3291     H
C      0.43947  0.61817  0.46149     C
H         0.44   0.5651   0.4569     H
H       0.4405   0.1825   0.1254     H
C      0.44089  0.10479  0.89173     C
Co     0.44105  0.73767  0.06237    Co
C      0.44308  0.73128  0.29286     C
C      0.44309  0.47839  0.09483     C
O       0.4455   0.4794   0.4179     O
C      0.45189  0.33129  0.06753     C
H       0.4525   0.3155   0.6709     H
H       0.4544   0.9797   0.9691     H
O      0.45447  0.15938  0.85549     O
H       0.4549   0.2824   0.0585     H
H       0.4571   0.8473   0.8986     H
Co     0.45938  0.64201  0.17679    Co
C      0.46147  0.01077  0.44909     C
H        0.462     0.56   0.5431     H
C      0.46722  0.55692  0.70714     C
C      0.46889  0.39499  0.12483     C
O      0.46934  0.54553  0.14451     O
C       0.4724   0.3215   0.1113     C
H       0.4738   0.6016    0.486     H
H       0.4747   0.8875   0.6539     H
C      0.47839  0.98369  0.09483     C
O       0.4794   0.6572   0.4179     O
H       0.4797   0.9544   0.4691     H
C      0.48087  0.43947  0.46149     C
C      0.48121  0.49551  0.75457     C
C      0.48233  0.48673  0.33321     C
H       0.4824   0.8847   0.8446     H
C      0.48369  0.97839  0.59483     C
H       0.4839   0.3875   0.1539     H
O      0.48625   0.2991  0.88414     O
C      0.48673  0.69773  0.33321     C
O      0.48829  0.83518    0.027     O
C      0.48871  0.10501  0.37517     C
H       0.4888   0.2528   0.8806     H
C      0.48923  0.03853  0.05091     C
H       0.4895    0.378   0.4707     H
C      0.49551  0.26871  0.75457     C
O      0.49624  0.24114  0.14298     O
O      0.49721  0.70834   0.2112     O
C      0.49855  0.43795  0.37875     C
C      0.49958  0.16708  0.13026     C
C      0.50042  0.83292  0.86974     C
C      0.50145  0.56205  0.62125     C
O      0.50279  0.29166   0.7888     O
O      0.50376  0.75886  0.85702     O
C      0.50449  0.73129  0.24543     C
H       0.5105    0.622   0.5293     H
C      0.51077  0.96147  0.94909     C
H       0.5112   0.7472   0.1194     H
C      0.51129  0.89499  0.62483     C
O      0.51171  0.16482    0.973     O
C      0.51327  0.30227  0.66679     C
O      0.51375   0.7009  0.11586     O
H       0.5161   0.6125   0.8461     H
C      0.51631  0.02161  0.40517     C
H       0.5176   0.1153   0.1554     H
C      0.51767  0.51327  0.66679     C
C      0.51879  0.50449  0.24543     C
C      0.51913  0.56053  0.53851     C
H       0.5203   0.0456   0.5309     H
O       0.5206   0.3428   0.5821     O
C      0.52161  0.01631  0.90517     C
H       0.5253   0.1125   0.3461     H
H       0.5262   0.3984    0.514     H
C       0.5276   0.6785   0.8887     C
O      0.53066  0.45447  0.85549     O
C      0.53111  0.60501  0.87517     C
C      0.53278  0.44308  0.29286     C
H        0.538     0.44   0.4569     H
C      0.53853  0.98923  0.55091     C
Co     0.54062  0.35799  0.82321    Co
H       0.5429   0.1527   0.1014     H
H       0.5451   0.7176   0.9415     H
O      0.54553  0.84062  0.14451     O
H       0.5456   0.0203   0.0309     H
H       0.5475   0.6845   0.3291     H
C      0.54811  0.66871  0.93247     C
O       0.5545   0.5206   0.5821     O
C      0.55691  0.52161  0.90517     C
C      0.55692  0.26872  0.70714     C
Co     0.55895  0.26233  0.93763    Co
C      0.55911  0.89521  0.10827     C
H       0.5595   0.8175   0.8746     H
H         0.56   0.4349   0.5431     H
C      0.56053  0.38183  0.53851     C
H       0.5611   0.4525   0.6709     H
O      0.56137   0.4326  0.75814     O
H       0.5614   0.5262    0.514     H
C      0.56205  0.31525  0.62125     C
C      0.56259  0.44089  0.89173     C
H       0.5651    0.538   0.4569     H
C      0.56523  0.35063  0.38481     C
O       0.5674  0.75211  0.24186     O
C      0.56869  0.82179  0.00993     C
O      0.57214  0.63803  0.02883     O
H       0.5729   0.3176   0.4155     H
C      0.57335  0.58405  0.96295     C
C      0.57867  0.51077  0.94909     C
O      0.58325  0.49721   0.2112     O
C      0.58405  0.87965  0.96295     C
C       0.5948   0.8215   0.6113     C
H       0.5968   0.4544   0.9691     H
O      0.59798  0.36487  0.91849     O
C      0.59959  0.56869  0.00993     C
H       0.6016   0.4386    0.486     H
C      0.60479  0.94089  0.39173     C
C      0.60501  0.98871  0.87517     C
C      0.60634  0.35624  0.29838     C
H       0.6125   0.0253   0.8461     H
H       0.6153   0.0176   0.6554     H
C      0.61817  0.48087  0.46149     C
O      0.61866  0.86487  0.41849     O
O      0.61964  0.74114  0.64298     O
C      0.62035  0.91595  0.53705     C
H        0.622   0.3382   0.5293     H
H       0.6222   0.5112   0.1194     H
C      0.62227  0.31007  0.34539     C
O      0.63513  0.88134  0.08151     O
O      0.63803    0.761  0.02883     O
Co     0.64108  0.64108  0.07676    Co
Co     0.64201  0.72182  0.17679    Co
C      0.64376  0.26096  0.70162     C
H       0.6486   0.3336   0.2712     H
C      0.64929  0.83129  0.56753     C
C      0.64937  0.30067  0.61519     C
O      0.64953  0.48829    0.027     O
H       0.6527   0.0429   0.6014     H
O       0.6572   0.4455   0.4179     O
O      0.65938  0.95447  0.35549     O
H       0.6618   0.4895   0.4707     H
O      0.66482  0.01171    0.473     O
H       0.6664   0.2534   0.7288     H
C      0.66708  0.99958  0.63026     C
O       0.6687  0.17623  0.89666     O
C      0.66871  0.85071  0.93247     C
O      0.66949  0.51375  0.11586     O
O      0.67623   0.1687  0.39666     O
O      0.67645  0.25547  0.82187     O
C      0.67821  0.93131  0.49007     C
C       0.6785   0.9052   0.8887     C
H       0.6824    0.306   0.5845     H
H       0.6825   0.9405   0.6254     H
H       0.6845   0.4389   0.3291     H
C      0.68475  0.49855  0.37875     C
C      0.68821  0.20861  0.35427     C
C      0.68993  0.27773  0.65461     C
H        0.694   0.5729   0.4155     H
C      0.69773  0.48233  0.33321     C
C      0.69933  0.56523  0.38481     C
O       0.7009  0.66949  0.11586     O
H        0.703   0.6527   0.6014     H
C      0.70308  0.66708  0.63026     C
H       0.7042   0.7824   0.5585     H
O      0.70834  0.58325   0.2112     O
C      0.70861  0.18821  0.85427     C
H       0.7117   0.6153   0.6554     H
H       0.7176   0.7958   0.9415     H
Co     0.72182  0.45938  0.17679    Co
C      0.72227  0.62227  0.34539     C
C      0.73128  0.53278  0.29286     C
C      0.73129  0.51879  0.24543     C
Co     0.73767  0.75891  0.06237    Co
O        0.739  0.86197  0.47117     O
C      0.73904  0.60634  0.29838     C
Co     0.74109  0.76233  0.43763    Co
O      0.74114  0.99624  0.64298     O
O      0.74159   0.3313  0.10334     O
O      0.74453  0.75379  0.17813     O
O      0.74621  0.75547  0.32187     O
H       0.7466   0.6486   0.2712     H
H       0.7472   0.6222   0.1194     H
O      0.74789   0.9326  0.25814     O
H       0.7484   0.5595   0.8746     H
C      0.74891  0.68821  0.35427     C
C      0.75109  0.29139  0.14573     C
H       0.7516   0.6825   0.6254     H
O      0.75211  0.43863  0.24186     O
H       0.7528   0.9888   0.3806     H
H       0.7534   0.1664   0.2288     H
O      0.75379  0.32355  0.17813     O
O      0.75547  0.17645  0.32187     O
O      0.75841  0.67623  0.39666     O
O      0.75886  0.88036  0.85702     O
Co     0.75891  0.44105  0.06237    Co
C      0.76096  0.14376  0.20162     C
O        0.761  0.57214  0.02883     O
Co     0.76233  0.05895  0.43763    Co
C      0.76871  0.99551  0.25457     C
C      0.76872  0.05692  0.20714     C
C      0.77773  0.18993  0.15461     C
Co     0.77818  0.85799  0.32321    Co
H       0.7824   0.9549   0.5585     H
H       0.7883   0.4824   0.8446     H
C      0.79139  0.25109  0.64573     C
O      0.79166  0.00279   0.2888     O
H       0.7958   0.5451   0.9415     H
C      0.79692  0.50042  0.86974     C
H        0.797   0.4571   0.8986     H
O       0.7991  0.98625  0.38414     O
C      0.80067  0.14937  0.11519     C
C      0.80227  0.01327  0.16679     C
H        0.806   0.1824   0.0845     H
C      0.81007  0.12227  0.84539     C
C      0.81179  0.75109  0.14573     C
C      0.81525  0.06205  0.12125     C
H       0.8155   0.9525   0.1709     H
H       0.8175   0.7484   0.8746     H
H       0.8176   0.0729   0.9155     H
C       0.8215   0.9724   0.6113     C
C      0.82179  0.59959  0.00993     C
O      0.82355  0.25379  0.67813     O
O      0.82377  0.74159  0.10334     O
O      0.83051   0.7991  0.38414     O
C      0.83129  0.95189  0.56753     C
O       0.8313  0.24159  0.60334     O
C      0.83292  0.79692  0.86974     C
H       0.8336   0.1486   0.7712     H
O      0.83518  0.64953    0.027     O
H       0.8382    0.122   0.0293     H
O      0.84062  0.46934  0.14451     O
O       0.8428   0.0206   0.0821     O
H       0.8473    0.797   0.8986     H
O      0.85047  0.66482    0.473     O
C      0.85063  0.06523  0.88481     C
C      0.85071  0.54811  0.93247     C
H       0.8514   0.7534   0.2288     H
C      0.85624  0.10634  0.79838     C
Co     0.85799  0.04062  0.32321    Co
Co     0.85892  0.85892  0.42324    Co
O      0.86197  0.92786  0.47117     O
O      0.86487  0.09798  0.41849     O
C      0.87773  0.77773  0.15461     C
H       0.8778   0.7528   0.3806     H
H        0.878   0.9895   0.9707     H
C      0.87965  0.57335  0.96295     C
O      0.88036  0.50376  0.85702     O
O      0.88134  0.40202  0.08151     O
C      0.88183  0.06053  0.03851     C
H       0.8847   0.7883   0.8446     H
H       0.8875   0.9839   0.6539     H
C      0.89366  0.76096  0.20162     C
C      0.89499  0.96889  0.62483     C
C      0.89521  0.43741  0.10827     C
H       0.8984   0.0262    0.014     H
C      0.90041  0.67821  0.49007     C
O      0.90202  0.38134  0.58151     O
H       0.9032   0.5203   0.5309     H
C       0.9052   0.5276   0.8887     C
C      0.91595  0.92665  0.53705     C
O      0.91675  0.79166   0.2888     O
C      0.92133  0.53853  0.55091     C
C      0.92665  0.62035  0.53705     C
H       0.9271    0.806   0.0845     H
O      0.92786    0.739  0.47117     O
C      0.93131  0.90041  0.49007     C
O       0.9326  0.06137  0.25814     O
C      0.93477  0.80067  0.11519     C
H       0.9349     0.06   0.0431     H
C      0.93741  0.39521  0.60827     C
C      0.93795  0.99855  0.87875     C
H       0.9386   0.1016    0.986     H
O      0.93863  0.25211  0.74186     O
H       0.9389   0.1845   0.8291     H
C      0.93947  0.98087  0.96149     C
H         0.94    0.038   0.9569     H
H       0.9405   0.7516   0.6254     H
C      0.94089  0.06259  0.39173     C
Co     0.94105  0.25891  0.56237    Co
C      0.94308  0.03278  0.79286     C
C      0.94309  0.48369  0.59483     C
O       0.9455   0.1572   0.9179     O
C      0.95189  0.64929  0.56753     C
H       0.9525   0.0611   0.1709     H
H       0.9544   0.0968   0.4691     H
O      0.95447  0.03066  0.35549     O
H       0.9549   0.7042   0.5585     H
H       0.9571    0.297   0.3986     H
Co     0.95938  0.22182  0.67679    Co
C      0.96147  0.57867  0.94909     C
H        0.962   0.9349   0.0431     H
C      0.96722  0.76872  0.20714     C
C      0.96889  0.51129  0.62483     C
O      0.96934  0.34062  0.64451     O
C       0.9724   0.5948   0.6113     C
H       0.9738   0.9386    0.986     H
H       0.9747   0.4839   0.1539     H
C      0.97839  0.94309  0.59483     C
O       0.9794   0.9455   0.9179     O
H       0.9797   0.5968   0.9691     H
C      0.98087  0.11817  0.96149     C
C      0.98121  0.76871  0.25457     C
C      0.98233  0.19773  0.83321     C
H       0.9824   0.2883   0.3446     H
C      0.98369  0.44309  0.09483     C
H       0.9839   0.4747   0.6539     H
O      0.98625  0.83051  0.38414     O
C      0.98673  0.98233  0.83321     C
O      0.98829  0.14953    0.527     O
C      0.98871  0.53111  0.87517     C
H       0.9888   0.8778   0.3806     H
C      0.98923  0.92133  0.55091     C
H       0.9895   0.1618   0.9707     H
C      0.99551  0.98121  0.25457     C
O      0.99624  0.61964  0.64298     O
O      0.99721  0.08325   0.7112     O
C      0.99855  0.18475  0.87875     C
C      0.99958  0.70308  0.63026     C
