data_I
_chemical_name_common  '/home/zhangsd/repos/MofS-CGCNN/ML/data/TSD/clean_cifs/HOBGIP_clean'
_cell_length_a  6.48700
_cell_length_b 24.77900
_cell_length_c  7.80500
_cell_angle_alpha 90.00000
_cell_angle_beta  91.02900
_cell_angle_gamma 90.00000
_space_group_name_H-M_alt      'P 1'


loop_
_space_group_symop_operation_xyz
  'x, y, z' 

loop_
_atom_site_label
_atom_site_fract_x
_atom_site_fract_y
_atom_site_fract_z
_atom_site_type_symbol
H        0.004    0.432   0.0858     H
O        0.008   0.5584   0.0012     O
C        0.027   0.3794    0.671     C
H       0.0306   0.0974   0.3034     H
N        0.041   0.4429    0.195     N
O        0.043   0.0519   0.6278     O
C        0.062   0.2877    0.759     C
H       0.0732   0.9412   0.7372     H
H       0.0856   0.4109    0.622     H
C        0.091   0.0385    0.125     C
O        0.124   0.9894   0.1487     O
C        0.139   0.7893    0.183     C
H       0.1431   0.6317   0.3618     H
C        0.149    0.025   0.5284     C
C        0.151   0.3341    0.693     C
H       0.1561    0.374   0.3188     H
C        0.157   0.0802   0.2592     C
N        0.158   0.2355    0.788     N
Ni      0.1614  0.52113   0.1914    Ni
O        0.165    0.975   0.5185     O
N        0.173   0.8805    0.284     N
H       0.1984   0.7593   0.1263     H
H       0.2108   0.1386   0.8765     H
C        0.212   0.4077    0.267     C
H       0.2371   0.1086   0.2013     H
C        0.251   0.8366    0.212     C
C        0.276   0.6331    0.313     C
H       0.2769   0.3655   0.0514     H
C        0.284   0.0596   0.4119     C
H       0.2923   0.3348   0.6631     H
N        0.317   0.2349    0.712     N
O        0.333   0.4884   0.3861     O
H       0.3356     0.71   0.3941     H
H        0.339   0.0911   0.4786     H
Ni      0.3396  0.95169   0.3148    Ni
C        0.342   0.3956    0.116     C
N        0.342   0.5895    0.229     N
C        0.343   0.1382    0.827     C
C        0.352   0.4388    0.396     C
O        0.362   0.4919   0.0198     O
C        0.379   0.4419    0.991     C
C        0.389   0.6802    0.333     C
H       0.3912   0.8375   0.1775     H
C        0.418   0.1827     0.74     C
H       0.4191    0.063   0.8994     H
H       0.4354   0.5259   0.5686     H
N        0.459   0.0266    0.351     N
O        0.467   0.4128   0.4931     O
C        0.469   0.0934    0.839     C
O        0.471   0.4243   0.8596     O
H       0.4779   0.3827   0.1588     H
H        0.491   0.5402   0.7499     H
H        0.509   0.0402   0.2501     H
H       0.5221   0.8827   0.8412     H
O        0.529   0.9243   0.1404     O
C        0.531   0.5934    0.161     C
O        0.533   0.9128   0.5069     O
N        0.541   0.5266    0.649     N
H       0.5646   0.0259   0.4314     H
H       0.5809    0.563   0.1006     H
C        0.582   0.6827     0.26     C
H       0.6088   0.3375   0.8225     H
C        0.611   0.1802    0.667     C
C        0.621   0.9419    0.009     C
O        0.638   0.9919   0.9802     O
C        0.648   0.9388    0.604     C
C        0.657   0.6382    0.173     C
N        0.658   0.0895    0.771     N
C        0.658   0.8956    0.884     C
Ni      0.6604  0.45169   0.6852    Ni
H        0.661   0.5911   0.5214     H
H       0.6644     0.21   0.6059     H
O        0.667   0.9884   0.6139     O
N        0.683   0.7349    0.288     N
H       0.7077   0.8348   0.3369     H
C        0.716   0.5596   0.5881     C
H       0.7231   0.8655   0.9486     H
C        0.724   0.1331    0.687     C
C        0.749   0.3366    0.788     C
H       0.7629   0.6086   0.7987     H
C        0.788   0.9077    0.733     C
H       0.7892   0.6386   0.1235     H
H       0.8016   0.2593   0.8737     H
N        0.827   0.3805    0.716     N
O        0.835    0.475   0.4815     O
Ni      0.8386  0.02113   0.8086    Ni
N        0.842   0.7355    0.212     N
C        0.843   0.5802   0.7408     C
H       0.8439    0.874   0.6812     H
C        0.849   0.8341    0.307     C
C        0.851    0.525   0.4716     C
H       0.8569   0.1317   0.6382     H
C        0.861   0.2893    0.817     C
O        0.876   0.4894   0.8513     O
C        0.909   0.5385    0.875     C
H       0.9144   0.9109    0.378     H
H       0.9268   0.4412   0.2628     H
C        0.938   0.7877    0.241     C
O        0.957   0.5519   0.3722     O
N        0.959   0.9429    0.805     N
H       0.9694   0.5974   0.6966     H
C        0.973   0.8794    0.329     C
O        0.992   0.0584   0.9988     O
H        0.996    0.932   0.9142     H
