data_I
_chemical_name_common  '/home/zhangsd/repos/MofS-CGCNN/ML/data/TSD/clean_cifs/HOBGEL_clean'
_cell_length_a 30.84000
_cell_length_b  6.57400
_cell_length_c  7.70400
_cell_angle_alpha 90.00000
_cell_angle_beta  101.55700
_cell_angle_gamma 90.00000
_space_group_name_H-M_alt      'P 1'


loop_
_space_group_symop_operation_xyz
  'x, y, z' 

loop_
_atom_site_label
_atom_site_fract_x
_atom_site_fract_y
_atom_site_fract_z
_atom_site_type_symbol
C          0.0    0.375      0.5     C
H          0.0   0.5196      0.5     H
N          0.0    0.954      0.5     N
C       0.0382   0.0614    0.527     C
C       0.0401    0.269   0.5321     C
H       0.0631   0.6337   0.4152     H
H       0.0653   0.9883   0.5434     H
C       0.0837   0.3762   0.5636     C
C       0.0874   0.5732   0.4939     C
H       0.1209   0.1596   0.7089     H
C       0.1213   0.2939   0.6637     C
C       0.1264   0.6736   0.5422     C
H        0.128   0.8078   0.4983     H
H       0.1489   0.1543   0.0535     H
H       0.1596   0.9631   0.1825     H
C       0.1603   0.4076   0.6991     C
H       0.1605   0.2879   0.3285     H
N       0.1636   0.5967   0.6491     N
C       0.1727    0.086   0.1393     C
H       0.1862   0.3437   0.7638     H
C       0.1869    0.225   0.2924     C
O       0.1922   0.9095   0.9084     O
O       0.1936   0.9895   0.5411     O
H       0.2057   0.4198    0.113     H
C       0.2098   0.0156    0.037     C
C       0.2139   0.1004   0.4474     C
H       0.2149   0.5085   0.2957     H
N       0.2155    0.391   0.2312     N
Ni     0.22136   0.7686  0.72422    Ni
O       0.2455   0.6236   0.5291     O
O       0.2499   0.5469   0.9102     O
O       0.2501   0.0469   0.0898     O
O       0.2545   0.1236   0.4709     O
Ni     0.27864   0.2686  0.27578    Ni
N       0.2845    0.891   0.7688     N
H       0.2851   0.0085   0.7043     H
C       0.2861   0.6004   0.5526     C
C       0.2902   0.5156    0.963     C
H       0.2943   0.9198    0.887     H
O       0.3064   0.4895   0.4589     O
O       0.3078   0.4095   0.0916     O
C       0.3131    0.725   0.7076     C
H       0.3138   0.8437   0.2362     H
C       0.3273    0.586   0.8607     C
N       0.3364   0.0967   0.3509     N
H       0.3395   0.7879   0.6715     H
C       0.3397   0.9076   0.3009     C
H       0.3404   0.4631   0.8175     H
H       0.3511   0.6543   0.9465     H
H        0.372   0.3078   0.5017     H
C       0.3736   0.1736   0.4578     C
C       0.3787   0.7939   0.3363     C
H       0.3791   0.6596   0.2911     H
C       0.4126   0.0732   0.5061     C
C       0.4163   0.8762   0.4364     C
H       0.4347   0.4883   0.4566     H
H       0.4369   0.1337   0.5848     H
C       0.4599    0.769   0.4679     C
C       0.4618   0.5614    0.473     C
H          0.5   0.0196      0.5     H
N          0.5    0.454      0.5     N
C          0.5    0.875      0.5     C
C       0.5382   0.5614    0.527     C
C       0.5401    0.769   0.5321     C
H       0.5631   0.1337   0.4152     H
H       0.5653   0.4883   0.5434     H
C       0.5837   0.8762   0.5636     C
C       0.5874   0.0732   0.4939     C
H       0.6209   0.6596   0.7089     H
C       0.6213   0.7939   0.6637     C
C       0.6264   0.1736   0.5422     C
H        0.628   0.3078   0.4983     H
H       0.6489   0.6543   0.0535     H
H       0.6596   0.4631   0.1825     H
C       0.6603   0.9076   0.6991     C
H       0.6605   0.7879   0.3285     H
N       0.6636   0.0967   0.6491     N
C       0.6727    0.586   0.1393     C
H       0.6862   0.8437   0.7638     H
C       0.6869    0.725   0.2924     C
O       0.6922   0.4095   0.9084     O
O       0.6936   0.4895   0.5411     O
H       0.7057   0.9198    0.113     H
C       0.7098   0.5156    0.037     C
C       0.7139   0.6004   0.4474     C
H       0.7149   0.0085   0.2957     H
N       0.7155    0.891   0.2312     N
Ni     0.72136   0.2686  0.72422    Ni
O       0.7455   0.1236   0.5291     O
O       0.7499   0.0469   0.9102     O
O       0.7501   0.5469   0.0898     O
O       0.7545   0.6236   0.4709     O
Ni     0.77864   0.7686  0.27578    Ni
N       0.7845    0.391   0.7688     N
H       0.7851   0.5085   0.7043     H
C       0.7861   0.1004   0.5526     C
C       0.7902   0.0156    0.963     C
H       0.7943   0.4198    0.887     H
O       0.8064   0.9895   0.4589     O
O       0.8078   0.9095   0.0916     O
C       0.8131    0.225   0.7076     C
H       0.8138   0.3437   0.2362     H
C       0.8273    0.086   0.8607     C
N       0.8364   0.5967   0.3509     N
H       0.8395   0.2879   0.6715     H
C       0.8397   0.4076   0.3009     C
H       0.8404   0.9631   0.8175     H
H       0.8511   0.1543   0.9465     H
H        0.872   0.8078   0.5017     H
C       0.8736   0.6736   0.4578     C
C       0.8787   0.2939   0.3363     C
H       0.8791   0.1596   0.2911     H
C       0.9126   0.5732   0.5061     C
C       0.9163   0.3762   0.4364     C
H       0.9347   0.9883   0.4566     H
H       0.9369   0.6337   0.5848     H
C       0.9599    0.269   0.4679     C
C       0.9618   0.0614    0.473     C
