data_I
_chemical_name_common  '/home/zhangsd/repos/MofS-CGCNN/ML/data/TSD/clean_cifs/HOCDOU_clean'
_cell_length_a  9.72050
_cell_length_b  9.74680
_cell_length_c 10.89260
_cell_angle_alpha 83.98900
_cell_angle_beta  75.46700
_cell_angle_gamma 78.54500
_space_group_name_H-M_alt      'P 1'


loop_
_space_group_symop_operation_xyz
  'x, y, z' 

loop_
_atom_site_label
_atom_site_fract_x
_atom_site_fract_y
_atom_site_fract_z
_atom_site_type_symbol
O       0.0299    0.554   0.2417     O
C       0.0472   0.3489   0.5548     C
C       0.0765   0.3893   0.6781     C
O       0.0802   0.6259   0.4553     O
O       0.1545   0.2911   0.4753     O
O       0.1996   0.7779   0.2303     O
O       0.2046   0.3614   0.6889     O
Mn     0.24086  0.55013  0.28165    Mn
O       0.2979   0.9539   0.1218     O
C       0.3002   0.8269   0.1568     C
Mn     0.36465  0.25534  0.52307    Mn
O       0.3679   0.0608   0.6254     O
O       0.3755   0.4724   0.4186     O
H        0.407   0.9579   0.3314     H
O       0.4174   0.9763   0.8398     O
O       0.4346   0.5961    0.142     O
C       0.4392   0.7208   0.1063     C
C       0.4536   0.5411   0.4547     C
O       0.4571   0.2323   0.9679     O
O       0.4643   0.6651   0.4237     O
O       0.4724   0.1717   0.3461     O
P      0.47556  0.97749  0.69689     P
Mn         0.5      0.0      0.0    Mn
P      0.52444  0.02251  0.30311     P
O       0.5276   0.8283   0.6539     O
O       0.5357   0.3349   0.5763     O
O       0.5429   0.7677   0.0321     O
C       0.5464   0.4589   0.5453     C
C       0.5608   0.2792   0.8937     C
O       0.5654   0.4039    0.858     O
O       0.5826   0.0237   0.1602     O
H        0.593   0.0421   0.6686     H
O       0.6245   0.5276   0.5814     O
O       0.6321   0.9392   0.3746     O
Mn     0.63535  0.74466  0.47693    Mn
C       0.6998   0.1731   0.8432     C
O       0.7021   0.0461   0.8782     O
Mn     0.75914  0.44987  0.71835    Mn
O       0.7954   0.6386   0.3111     O
O       0.8004   0.2221   0.7697     O
O       0.8455   0.7089   0.5247     O
O       0.9198   0.3741   0.5447     O
C       0.9235   0.6107   0.3219     C
C       0.9528   0.6511   0.4452     C
O       0.9701    0.446   0.7583     O
