data_I
_chemical_name_common  '/home/zhangsd/repos/MofS-CGCNN/ML/data/TSD/clean_cifs/HOCDIO_clean'
_cell_length_a  8.87490
_cell_length_b  7.41040
_cell_length_c 15.23330
_cell_angle_alpha 90.00000
_cell_angle_beta  102.17200
_cell_angle_gamma 90.00000
_space_group_name_H-M_alt      'P 1'


loop_
_space_group_symop_operation_xyz
  'x, y, z' 

loop_
_atom_site_label
_atom_site_fract_x
_atom_site_fract_y
_atom_site_fract_z
_atom_site_type_symbol
H        0.004   0.0546   0.7155     H
O      0.00588   0.6122  0.89944     O
C        0.023   0.0897  0.48032     C
C       0.0417   0.4245   0.0306     C
O      0.07463   0.8388  0.58106     O
O      0.08863   0.2835  0.80941     O
P      0.12936  0.11444  0.76644     P
O       0.1516   0.3483    0.006     O
O      0.15498   0.1485  0.51205     O
O       0.1819   0.9715  0.84156     O
H       0.2001   0.8758   0.8188     H
Co     0.21031  0.47055  0.89411    Co
O       0.2466   0.1356  0.70829     O
O       0.2534   0.6356  0.79171     O
Co     0.28969  0.97055  0.60589    Co
H       0.2999   0.3758   0.6812     H
O       0.3181   0.4715  0.65844     O
O      0.34502   0.6485  0.98795     O
O       0.3484   0.8483    0.494     O
P      0.37064  0.61444  0.73356     P
O      0.41137   0.7835  0.69059     O
O      0.42537   0.3388  0.91894     O
C       0.4583   0.9245   0.4694     C
C        0.477   0.5897  0.01968     C
O      0.49412   0.1122  0.60056     O
H        0.496   0.5546   0.7845     H
H        0.504   0.4454   0.2155     H
O      0.50588   0.8878  0.39944     O
C        0.523   0.4103  0.98032     C
C       0.5417   0.0755   0.5306     C
O      0.57463   0.6612  0.08106     O
O      0.58863   0.2165  0.30941     O
P      0.62936  0.38556  0.26644     P
O       0.6516   0.1517    0.506     O
O      0.65498   0.3515  0.01205     O
O       0.6819   0.5285  0.34156     O
H       0.7001   0.6242   0.3188     H
Co     0.71031  0.02945  0.39411    Co
O       0.7466   0.3644  0.20829     O
O       0.7534   0.8644  0.29171     O
Co     0.78969  0.52945  0.10589    Co
H       0.7999   0.1242   0.1812     H
O       0.8181   0.0285  0.15844     O
O      0.84502   0.8515  0.48795     O
O       0.8484   0.6517    0.994     O
P      0.87064  0.88556  0.23356     P
O      0.91137   0.7165  0.19059     O
O      0.92537   0.1612  0.41894     O
C       0.9583   0.5755   0.9694     C
C        0.977   0.9103  0.51968     C
O      0.99412   0.3878  0.10056     O
H        0.996   0.9454   0.2845     H
