data_I
_chemical_name_common  '/home/zhangsd/repos/MofS-CGCNN/ML/data/TSD/clean_cifs/HOGQIF_clean'
_cell_length_a  6.43550
_cell_length_b 13.46200
_cell_length_c 13.75300
_cell_angle_alpha 61.53200
_cell_angle_beta  82.43300
_cell_angle_gamma 81.24400
_space_group_name_H-M_alt      'P 1'


loop_
_space_group_symop_operation_xyz
  'x, y, z' 

loop_
_atom_site_label
_atom_site_fract_x
_atom_site_fract_y
_atom_site_fract_z
_atom_site_type_symbol
C       0.0021   0.8128   0.9443     C
C       0.0097   0.8354   0.5206     C
C       0.0111   0.0847    0.154     C
C       0.0134    0.069   0.5825     C
C       0.0197   0.1221   0.7827     C
H       0.0716   0.2834   0.7358     H
O       0.0727   0.6487   0.7245     O
O       0.0728   0.6017  0.12754     O
C       0.0801   0.3843   0.9265     C
H       0.0925   0.8039    0.996     H
C       0.1074   0.0099   0.8331     C
H       0.1081   0.1924   0.4319     H
H       0.1088   0.6142   0.7868     H
C       0.1138   0.2765   0.0315     C
H       0.1138   0.8604   0.2438     H
C         0.13   0.2082   0.7715     C
C       0.1406   0.0751   0.2344     C
H       0.1473   0.0335    0.604     H
C       0.1595   0.9728   0.3479     C
O       0.2073  0.45953  0.89464     O
C       0.2105   0.7816   0.5519     C
C       0.2402   0.6764   0.6586     C
C        0.252   0.2631   0.1086     C
C       0.2588   0.1641    0.209     C
C        0.304    0.984   0.8758     C
C       0.3266   0.1833   0.8132     C
H       0.3458   0.1568   0.2614     H
C       0.3611   0.9208   0.3805     C
H       0.3628   0.9089   0.9107     H
O       0.3636   0.3944   0.1531     O
C       0.3859   0.8256   0.4815     C
O       0.3907   0.3784   0.7343     O
C       0.3988   0.3492   0.0905     C
O       0.4124   0.6195   0.6788     O
C        0.413   0.0699   0.8667     C
O       0.4176   0.7469   0.1305     O
Gd      0.4215  0.54903  0.17071    Gd
C       0.4424   0.2759   0.8044     C
O       0.4471    0.636  0.97889     O
H       0.4563    0.948   0.1039     H
H       0.4789   0.9506   0.3339     H
H       0.4798   0.2093   0.4974     H
H       0.5202   0.7907   0.5026     H
H       0.5211   0.0494   0.6661     H
H       0.5437    0.052   0.8961     H
O       0.5529    0.364  0.02111     O
C       0.5576   0.7241   0.1956     C
Gd      0.5785  0.45097  0.82929    Gd
O       0.5824   0.2531   0.8695     O
C        0.587   0.9301   0.1333     C
O       0.5876   0.3805   0.3212     O
C       0.6012   0.6508   0.9095     C
O       0.6093   0.6216   0.2657     O
C       0.6141   0.1744   0.5185     C
O       0.6364   0.6056   0.8469     O
H       0.6372   0.0911   0.0893     H
C       0.6389   0.0792   0.6195     C
H       0.6542   0.8432   0.7386     H
C       0.6734   0.8167   0.1868     C
C        0.696    0.016   0.1242     C
C       0.7412   0.8359    0.791     C
C        0.748   0.7369   0.8914     C
C       0.7598   0.3236   0.3414     C
C       0.7895   0.2184   0.4481     C
O       0.7927  0.54047  0.10536     O
C       0.8405   0.0272   0.6521     C
H       0.8527   0.9665    0.396     H
C       0.8594   0.9249   0.7656     C
C         0.87   0.7918   0.2285     C
H       0.8862   0.1396   0.7562     H
C       0.8862   0.7235   0.9685     C
H       0.8912   0.3858   0.2132     H
H       0.8919   0.8076   0.5681     H
C       0.8926   0.9901   0.1669     C
H       0.9075   0.1961    0.004     H
C       0.9199   0.6157   0.0735     C
O       0.9272   0.3983  0.87246     O
O       0.9273   0.3513   0.2755     O
H       0.9284   0.7166   0.2642     H
C       0.9803   0.8779   0.2173     C
C       0.9866    0.931   0.4175     C
C       0.9889   0.9153    0.846     C
C       0.9903   0.1646   0.4794     C
C       0.9979   0.1872   0.0557     C
