data_I
_chemical_name_common  '/home/zhangsd/repos/MofS-CGCNN/ML/data/TSD/clean_cifs/HOQNEI_clean'
_cell_length_a 17.32880
_cell_length_b 17.74910
_cell_length_c 12.85700
_cell_angle_alpha 90.00000
_cell_angle_beta  126.53000
_cell_angle_gamma 90.00000
_space_group_name_H-M_alt      'P 1'


loop_
_space_group_symop_operation_xyz
  'x, y, z' 

loop_
_atom_site_label
_atom_site_fract_x
_atom_site_fract_y
_atom_site_fract_z
_atom_site_type_symbol
Mg         0.0  0.30517     0.25    Mg
Mg         0.0  0.69483     0.75    Mg
C       0.0063    0.106   0.9993     C
C       0.0063    0.894   0.4993     C
H       0.0067   0.2158    0.481     H
H       0.0067   0.7842    0.981     H
C       0.0138    0.034   0.4812     C
C       0.0138    0.966   0.9812     C
C       0.0215    0.168    0.468     C
C       0.0215    0.832    0.968     C
H       0.0392   0.1121   0.9633     H
H       0.0392   0.8879   0.4633     H
H       0.0433   0.4872   0.9022     H
H       0.0433   0.5128   0.4022     H
H       0.0436    0.379   0.0009     H
H       0.0436    0.621   0.5009     H
C       0.0632   0.0287   0.4274     C
C       0.0632   0.9713   0.9274     C
N       0.0699  0.16056   0.4174     N
N       0.0699  0.83944   0.9174     N
H       0.0777   0.0186   0.9118     H
H       0.0777   0.9814   0.4118     H
O      0.08207   0.2993   0.1859     O
O      0.08207   0.7007   0.6859     O
O      0.08615  0.38492   0.3807     O
O      0.08615  0.61508   0.8807     O
C       0.0911   0.0926   0.3967     C
C       0.0911   0.9074   0.8967     C
C       0.0929   0.4787    0.989     C
C       0.0929   0.5213    0.489     C
C       0.0934   0.4135    0.048     C
C       0.0934   0.5865    0.548     C
O      0.09738  0.22125   0.3868     O
O      0.09738  0.77875   0.8868     O
H       0.1248   0.0883   0.3615     H
H       0.1248   0.9117   0.8615     H
C       0.1583   0.3943   0.4951     C
C       0.1583   0.6057   0.9951     C
C       0.1625  0.33194   0.2438     C
C       0.1625  0.66806   0.7438     C
C        0.165   0.4686   0.5573     C
C        0.165   0.5314   0.0573     C
C        0.167  0.39898   0.1756     C
C        0.167  0.60102   0.6756     C
H       0.2071   0.0603    0.672     H
H       0.2071   0.9397    0.172     H
H       0.2107   0.0512    0.268     H
H       0.2107   0.9488    0.768     H
O      0.22546  0.34709   0.5629     O
O      0.22546  0.65291   0.0629     O
O      0.23605  0.31384   0.3533     O
O      0.23605  0.68616   0.8533     O
C       0.2397   0.4835   0.6848     C
C       0.2397   0.5165   0.1848     C
C       0.2413     0.45   0.2429     C
C       0.2413     0.55   0.7429     C
Mg        0.25     0.25      0.5    Mg
Mg        0.25     0.75      0.0    Mg
C       0.2587     0.05   0.7571     C
C       0.2587     0.95   0.2571     C
C       0.2603   0.0165   0.3152     C
C       0.2603   0.9835   0.8152     C
O      0.26395  0.18616   0.6467     O
O      0.26395  0.81384   0.1467     O
O      0.27454  0.15291   0.4371     O
O      0.27454  0.84709   0.9371     O
H       0.2893   0.4488    0.732     H
H       0.2893   0.5512    0.232     H
H       0.2929   0.4397    0.328     H
H       0.2929   0.5603    0.828     H
C        0.333  0.10102   0.8244     C
C        0.333  0.89898   0.3244     C
C        0.335   0.0314   0.4427     C
C        0.335   0.9686   0.9427     C
C       0.3375  0.16806   0.7562     C
C       0.3375  0.83194   0.2562     C
C       0.3417   0.1057   0.5049     C
C       0.3417   0.8943   0.0049     C
H       0.3752   0.4117   0.6385     H
H       0.3752   0.5883   0.1385     H
O      0.40262  0.27875   0.6132     O
O      0.40262  0.72125   0.1132     O
C       0.4066   0.0865    0.952     C
C       0.4066   0.9135    0.452     C
C       0.4071   0.0213    0.011     C
C       0.4071   0.9787    0.511     C
C       0.4089   0.4074   0.6033     C
C       0.4089   0.5926   0.1033     C
O      0.41385  0.11508   0.6193     O
O      0.41385  0.88492   0.1193     O
O      0.41793   0.2007   0.8141     O
O      0.41793   0.7993   0.3141     O
H       0.4223   0.4814   0.0882     H
H       0.4223   0.5186   0.5882     H
N       0.4301  0.33944   0.5826     N
N       0.4301  0.66056   0.0826     N
C       0.4368   0.4713   0.5726     C
C       0.4368   0.5287   0.0726     C
H       0.4564    0.121   0.9991     H
H       0.4564    0.879   0.4991     H
H       0.4567   0.0128   0.0978     H
H       0.4567   0.9872   0.5978     H
H       0.4608   0.3879   0.0367     H
H       0.4608   0.6121   0.5367     H
C       0.4785    0.332    0.532     C
C       0.4785    0.668    0.032     C
C       0.4862    0.466   0.5188     C
C       0.4862    0.534   0.0188     C
H       0.4933   0.2842    0.519     H
H       0.4933   0.7158    0.019     H
C       0.4937    0.394   0.0007     C
C       0.4937    0.606   0.5007     C
Mg         0.5  0.19483     0.75    Mg
Mg         0.5  0.80517     0.25    Mg
C       0.5063    0.394   0.4993     C
C       0.5063    0.606   0.9993     C
H       0.5067   0.2842    0.981     H
H       0.5067   0.7158    0.481     H
C       0.5138    0.466   0.9812     C
C       0.5138    0.534   0.4812     C
C       0.5215    0.332    0.968     C
C       0.5215    0.668    0.468     C
H       0.5392   0.3879   0.4633     H
H       0.5392   0.6121   0.9633     H
H       0.5433   0.0128   0.4022     H
H       0.5433   0.9872   0.9022     H
H       0.5436    0.121   0.5009     H
H       0.5436    0.879   0.0009     H
C       0.5632   0.4713   0.9274     C
C       0.5632   0.5287   0.4274     C
N       0.5699  0.33944   0.9174     N
N       0.5699  0.66056   0.4174     N
H       0.5777   0.4814   0.4118     H
H       0.5777   0.5186   0.9118     H
O      0.58207   0.2007   0.6859     O
O      0.58207   0.7993   0.1859     O
O      0.58615  0.11508   0.8807     O
O      0.58615  0.88492   0.3807     O
C       0.5911   0.4074   0.8967     C
C       0.5911   0.5926   0.3967     C
C       0.5929   0.0213    0.489     C
C       0.5929   0.9787    0.989     C
C       0.5934   0.0865    0.548     C
C       0.5934   0.9135    0.048     C
O      0.59738  0.27875   0.8868     O
O      0.59738  0.72125   0.3868     O
H       0.6248   0.4117   0.8615     H
H       0.6248   0.5883   0.3615     H
C       0.6583   0.1057   0.9951     C
C       0.6583   0.8943   0.4951     C
C       0.6625  0.16806   0.7438     C
C       0.6625  0.83194   0.2438     C
C        0.665   0.0314   0.0573     C
C        0.665   0.9686   0.5573     C
C        0.667  0.10102   0.6756     C
C        0.667  0.89898   0.1756     C
H       0.7071   0.4397    0.172     H
H       0.7071   0.5603    0.672     H
H       0.7107   0.4488    0.768     H
H       0.7107   0.5512    0.268     H
O      0.72546  0.15291   0.0629     O
O      0.72546  0.84709   0.5629     O
O      0.73605  0.18616   0.8533     O
O      0.73605  0.81384   0.3533     O
C       0.7397   0.0165   0.1848     C
C       0.7397   0.9835   0.6848     C
C       0.7413     0.05   0.7429     C
C       0.7413     0.95   0.2429     C
Mg        0.75     0.25      0.0    Mg
Mg        0.75     0.75      0.5    Mg
C       0.7587     0.45   0.2571     C
C       0.7587     0.55   0.7571     C
C       0.7603   0.4835   0.8152     C
C       0.7603   0.5165   0.3152     C
O      0.76395  0.31384   0.1467     O
O      0.76395  0.68616   0.6467     O
O      0.77454  0.34709   0.9371     O
O      0.77454  0.65291   0.4371     O
H       0.7893   0.0512    0.232     H
H       0.7893   0.9488    0.732     H
H       0.7929   0.0603    0.828     H
H       0.7929   0.9397    0.328     H
C        0.833  0.39898   0.3244     C
C        0.833  0.60102   0.8244     C
C        0.835   0.4686   0.9427     C
C        0.835   0.5314   0.4427     C
C       0.8375  0.33194   0.2562     C
C       0.8375  0.66806   0.7562     C
C       0.8417   0.3943   0.0049     C
C       0.8417   0.6057   0.5049     C
H       0.8752   0.0883   0.1385     H
H       0.8752   0.9117   0.6385     H
O      0.90262  0.22125   0.1132     O
O      0.90262  0.77875   0.6132     O
C       0.9066   0.4135    0.452     C
C       0.9066   0.5865    0.952     C
C       0.9071   0.4787    0.511     C
C       0.9071   0.5213    0.011     C
C       0.9089   0.0926   0.1033     C
C       0.9089   0.9074   0.6033     C
O      0.91385  0.38492   0.1193     O
O      0.91385  0.61508   0.6193     O
O      0.91793   0.2993   0.3141     O
O      0.91793   0.7007   0.8141     O
H       0.9223   0.0186   0.5882     H
H       0.9223   0.9814   0.0882     H
N       0.9301  0.16056   0.0826     N
N       0.9301  0.83944   0.5826     N
C       0.9368   0.0287   0.0726     C
C       0.9368   0.9713   0.5726     C
H       0.9564    0.379   0.4991     H
H       0.9564    0.621   0.9991     H
H       0.9567   0.4872   0.5978     H
H       0.9567   0.5128   0.0978     H
H       0.9608   0.1121   0.5367     H
H       0.9608   0.8879   0.0367     H
C       0.9785    0.168    0.032     C
C       0.9785    0.832    0.532     C
C       0.9862    0.034   0.0188     C
C       0.9862    0.966   0.5188     C
H       0.9933   0.2158    0.019     H
H       0.9933   0.7842    0.519     H
C       0.9937    0.106   0.5007     C
C       0.9937    0.894   0.0007     C
