data_I
_chemical_name_common  '/home/zhangsd/repos/MofS-CGCNN/ML/data/TSD/clean_cifs/HORCUN_clean'
_cell_length_a  6.54950
_cell_length_b  9.53840
_cell_length_c 17.16930
_cell_angle_alpha 90.00000
_cell_angle_beta  90.00000
_cell_angle_gamma 90.00000
_space_group_name_H-M_alt      'P 1'


loop_
_space_group_symop_operation_xyz
  'x, y, z' 

loop_
_atom_site_label
_atom_site_fract_x
_atom_site_fract_y
_atom_site_fract_z
_atom_site_type_symbol
O       0.0816   0.2131  0.86922     O
O       0.0816   0.7131  0.63078     O
C         0.25   0.0082   0.2167     C
C         0.25   0.0622   0.1345     C
O         0.25    0.095  0.27014     O
C         0.25   0.1403    0.984     C
C         0.25   0.1916   0.9006     C
C         0.25   0.2027   0.1134     C
Er        0.25  0.21662  0.37965    Er
N         0.25   0.2414   0.0384     N
O         0.25   0.2537  0.51299     O
H         0.25   0.2711   0.1519     H
C         0.25   0.3709   0.5489     C
O         0.25   0.3782  0.27557     O
O         0.25     0.39  0.61918     O
N         0.25   0.4635  0.41943     N
C         0.25   0.4979   0.4946     C
C         0.25   0.5082   0.2833     C
C         0.25   0.5622   0.3655     C
O         0.25    0.595  0.22986     O
C         0.25   0.6403    0.516     C
C         0.25   0.6916   0.5994     C
C         0.25   0.7027   0.3866     C
Er        0.25  0.71662  0.12035    Er
N         0.25   0.7414   0.4616     N
O         0.25   0.7537  0.98701     O
H         0.25   0.7711   0.3481     H
C         0.25   0.8709   0.9511     C
O         0.25   0.8782  0.22443     O
O         0.25     0.89  0.88082     O
N         0.25   0.9635  0.08057     N
C         0.25   0.9979   0.0054     C
O       0.4184   0.2131  0.86922     O
O       0.4184   0.7131  0.63078     O
O       0.5816   0.2869  0.36922     O
O       0.5816   0.7869  0.13078     O
C         0.75   0.0021   0.9946     C
N         0.75   0.0365  0.91943     N
O         0.75     0.11  0.11918     O
O         0.75   0.1218  0.77557     O
C         0.75   0.1291   0.0489     C
H         0.75   0.2289   0.6519     H
O         0.75   0.2463  0.01299     O
N         0.75   0.2586   0.5384     N
Er        0.75  0.28338  0.87965    Er
C         0.75   0.2973   0.6134     C
C         0.75   0.3084   0.4006     C
C         0.75   0.3597    0.484     C
O         0.75    0.405  0.77014     O
C         0.75   0.4378   0.6345     C
C         0.75   0.4918   0.7167     C
C         0.75   0.5021   0.5054     C
N         0.75   0.5365  0.58057     N
O         0.75     0.61  0.38082     O
O         0.75   0.6218  0.72443     O
C         0.75   0.6291   0.4511     C
H         0.75   0.7289   0.8481     H
O         0.75   0.7463  0.48701     O
N         0.75   0.7586   0.9616     N
Er        0.75  0.78338  0.62035    Er
C         0.75   0.7973   0.8866     C
C         0.75   0.8084   0.0994     C
C         0.75   0.8597    0.016     C
O         0.75    0.905  0.72986     O
C         0.75   0.9378   0.8655     C
C         0.75   0.9918   0.7833     C
O       0.9184   0.2869  0.36922     O
O       0.9184   0.7869  0.13078     O
