data_I
_chemical_name_common  '/home/zhangsd/repos/MofS-CGCNN/ML/data/TSD/clean_cifs/HOWJEK_clean'
_cell_length_a 14.95800
_cell_length_b 14.95800
_cell_length_c  9.05000
_cell_angle_alpha 90.00000
_cell_angle_beta  90.00000
_cell_angle_gamma 90.00000
_space_group_name_H-M_alt      'P 1'


loop_
_space_group_symop_operation_xyz
  'x, y, z' 

loop_
_atom_site_label
_atom_site_fract_x
_atom_site_fract_y
_atom_site_fract_z
_atom_site_type_symbol
P      0.00207  0.84789  0.91957     P
Mn     0.00618  0.37164  0.87762    Mn
O       0.0096   0.7507   0.9714     O
P      0.01171  0.34486  0.51161     P
Mn     0.01454  0.87611  0.55507    Mn
O       0.0188   0.2463   0.4644     O
O       0.0473   0.8588     0.77     O
O        0.048   0.3576   0.6673     O
O       0.0483   0.9043   0.0374     O
O       0.0698   0.3942   0.4016     O
O       0.0852   0.6246   0.4974     O
O       0.0957   0.0483   0.5374     O
O       0.0968   0.1256   0.9191     O
O       0.1037   0.4142   0.0188     O
O       0.1106   0.5662   0.9007     O
Mn     0.12389  0.01454  0.05507    Mn
O       0.1256   0.9032   0.4191     O
Mn     0.12751   0.5137  0.38196    Mn
O       0.1412   0.0473     0.27     O
O       0.1474    0.549   0.1698     O
P      0.15023  0.50496  0.01818     P
P      0.15211  0.00207  0.41957     P
O       0.2463   0.9812   0.9644     O
O       0.2469   0.4904   0.9667     O
O       0.2493   0.0096   0.4714     O
O       0.2494   0.5062   0.4775     O
P      0.34486  0.98829  0.01161     P
P      0.34618  0.48575  0.43652     P
O       0.3526   0.4471   0.2821     O
O       0.3576    0.952   0.1673     O
Mn     0.36823  0.49411  0.07369    Mn
Mn     0.37164  0.99382  0.37762    Mn
O       0.3754   0.0852   0.9974     O
O       0.3805   0.4141   0.5448     O
O       0.3942   0.9302   0.9016     O
O       0.4007   0.5706   0.4512     O
O       0.4141   0.6195   0.0448     O
O       0.4142   0.8963   0.5188     O
O       0.4294   0.4007   0.9512     O
O       0.4338   0.1106   0.4007     O
O       0.4471   0.6474   0.7821     O
O        0.451   0.1474   0.6698     O
P      0.48575  0.65382  0.93652     P
Mn      0.4863  0.12751  0.88196    Mn
O       0.4904   0.7531   0.4667     O
O       0.4938   0.2494   0.9775     O
Mn     0.49411  0.63177  0.57369    Mn
P      0.49504  0.15023  0.51818     P
P      0.50496  0.84977  0.51818     P
Mn     0.50589  0.36823  0.57369    Mn
O       0.5062   0.7506   0.9775     O
O       0.5096   0.2469   0.4667     O
Mn      0.5137  0.87249  0.88196    Mn
P      0.51425  0.34618  0.93652     P
O        0.549   0.8526   0.6698     O
O       0.5529   0.3526   0.7821     O
O       0.5662   0.8894   0.4007     O
O       0.5706   0.5993   0.9512     O
O       0.5858   0.1037   0.5188     O
O       0.5859   0.3805   0.0448     O
O       0.5993   0.4294   0.4512     O
O       0.6058   0.0698   0.9016     O
O       0.6195   0.5859   0.5448     O
O       0.6246   0.9148   0.9974     O
Mn     0.62836  0.00618  0.37762    Mn
Mn     0.63177  0.50589  0.07369    Mn
O       0.6424    0.048   0.1673     O
O       0.6474   0.5529   0.2821     O
P      0.65382  0.51425  0.43652     P
P      0.65514  0.01171  0.01161     P
O       0.7506   0.4938   0.4775     O
O       0.7507   0.9904   0.4714     O
O       0.7531   0.5096   0.9667     O
O       0.7537   0.0188   0.9644     O
P      0.84789  0.99793  0.41957     P
P      0.84977  0.49504  0.01818     P
O       0.8526    0.451   0.1698     O
O       0.8588   0.9527     0.27     O
Mn     0.87249   0.4863  0.38196    Mn
O       0.8744   0.0968   0.4191     O
Mn     0.87611  0.98546  0.05507    Mn
O       0.8894   0.4338   0.9007     O
O       0.8963   0.5858   0.0188     O
O       0.9032   0.8744   0.9191     O
O       0.9043   0.9517   0.5374     O
O       0.9148   0.3754   0.4974     O
O       0.9302   0.6058   0.4016     O
O       0.9517   0.0957   0.0374     O
O        0.952   0.6424   0.6673     O
O       0.9527   0.1412     0.77     O
O       0.9812   0.7537   0.4644     O
Mn     0.98546  0.12389  0.55507    Mn
P      0.98829  0.65514  0.51161     P
O       0.9904   0.2493   0.9714     O
Mn     0.99382  0.62836  0.87762    Mn
P      0.99793  0.15211  0.91957     P
