data_I
_chemical_name_common  '/home/zhangsd/repos/MofS-CGCNN/ML/data/TSD/clean_cifs/HOWPIU_clean'
_cell_length_a  9.15300
_cell_length_b 17.89500
_cell_length_c 10.66800
_cell_angle_alpha 90.00000
_cell_angle_beta  96.39500
_cell_angle_gamma 90.00000
_space_group_name_H-M_alt      'P 1'


loop_
_space_group_symop_operation_xyz
  'x, y, z' 

loop_
_atom_site_label
_atom_site_fract_x
_atom_site_fract_y
_atom_site_fract_z
_atom_site_type_symbol
H       0.0429   0.2993   0.9799     H
H       0.0447   0.2559   0.2963     H
Ag     0.04765  0.54901  0.17351    Ag
N       0.0553   0.9628   0.6723     N
H       0.0575   0.8942   0.8197     H
N       0.0687   0.4191   0.3876     N
H       0.0839   0.7257    0.353     H
C        0.099   0.9351   0.7832     C
C       0.0993   0.3373   0.0204     C
N       0.0993   0.4065   0.9858     N
N       0.1112   0.4914   0.3569     N
H       0.1176   0.3623   0.5466     H
C       0.1288    0.406   0.5015     C
Ag     0.13075  0.09021  0.47481    Ag
C       0.1324   0.2353   0.2763     C
N       0.1445   0.0244   0.6552     N
C       0.1625   0.7185   0.3061     C
H       0.1775   0.9087   0.2775     H
N       0.1783   0.6622   0.2313     N
H       0.1886   0.5679   0.7323     H
N       0.1908   0.1733   0.3209     N
N       0.1954   0.3294   0.1259     N
N       0.1982   0.4458   0.0704     N
C       0.1982   0.5175   0.4511     C
N       0.2109   0.4662   0.5446     N
N       0.2149   0.9757   0.8367     N
N       0.2212   0.2646   0.1957     N
C       0.2393   0.0312   0.7548     C
H       0.2442   0.5639   0.4538     H
C       0.2463   0.8978   0.3459     C
C       0.2537   0.3978   0.1541     C
H       0.2558   0.0639   0.0462     H
C       0.2607   0.5312   0.7452     C
N       0.2788   0.7646   0.3043     N
N       0.2851   0.4757   0.6633     N
N       0.2891   0.9662   0.9554     N
C       0.3018   0.0175   0.0489     C
N       0.3018   0.9458   0.4296     N
N       0.3046   0.8294   0.3741     N
N       0.3092   0.6733   0.1791     N
H       0.3114   0.0679   0.7677     H
N       0.3217   0.1622   0.2687     N
H       0.3225   0.4087   0.2225     H
C       0.3375   0.2185   0.1939     C
N       0.3555   0.5244   0.8448     N
C       0.3676   0.7353   0.2237     C
Ag     0.36925  0.59021  0.02519    Ag
C       0.3712    0.906   0.9985     C
H       0.3824   0.8623   0.9534     H
N       0.3888   0.9914   0.1431     N
C       0.4007   0.8373   0.4796     C
N       0.4007   0.9065   0.5142     N
C        0.401   0.4351   0.7168     C
H       0.4161   0.2257    0.147     H
N       0.4313   0.9191   0.1124     N
H       0.4425   0.3942   0.6803     H
N       0.4447   0.4628   0.8277     N
Ag     0.45235  0.04901  0.32649    Ag
H       0.4553   0.7559   0.2037     H
H       0.4571   0.7993   0.5201     H
H       0.5429   0.2007   0.4799     H
H       0.5447   0.2441   0.7963     H
Ag     0.54765  0.95099  0.67351    Ag
N       0.5553   0.5372   0.1723     N
H       0.5575   0.6058   0.3197     H
N       0.5687   0.0809   0.8876     N
H       0.5839   0.7743    0.853     H
C        0.599   0.5649   0.2832     C
N       0.5993   0.0935   0.4858     N
C       0.5993   0.1627   0.5204     C
N       0.6112   0.0086   0.8569     N
H       0.6176   0.1377   0.0466     H
C       0.6288    0.094   0.0015     C
Ag     0.63075  0.40979  0.97481    Ag
C       0.6324   0.2647   0.7763     C
N       0.6445   0.4756   0.1552     N
C       0.6625   0.7815   0.8061     C
H       0.6775   0.5913   0.7775     H
N       0.6783   0.8378   0.7313     N
H       0.6886   0.9321   0.2323     H
N       0.6908   0.3267   0.8209     N
N       0.6954   0.1706   0.6259     N
N       0.6982   0.0542   0.5704     N
C       0.6982   0.9825   0.9511     C
N       0.7109   0.0338   0.0446     N
N       0.7149   0.5243   0.3367     N
N       0.7212   0.2354   0.6957     N
C       0.7393   0.4688   0.2548     C
H       0.7442   0.9361   0.9538     H
C       0.7463   0.6022   0.8459     C
C       0.7537   0.1022   0.6541     C
H       0.7558   0.4361   0.5462     H
C       0.7607   0.9688   0.2452     C
N       0.7788   0.7354   0.8043     N
N       0.7851   0.0243   0.1633     N
N       0.7891   0.5338   0.4554     N
C       0.8018   0.4825   0.5489     C
N       0.8018   0.5542   0.9296     N
N       0.8046   0.6706   0.8741     N
N       0.8092   0.8267   0.6791     N
H       0.8114   0.4321   0.2677     H
N       0.8217   0.3378   0.7687     N
H       0.8225   0.0913   0.7225     H
C       0.8375   0.2815   0.6939     C
N       0.8555   0.9756   0.3448     N
C       0.8676   0.7647   0.7237     C
Ag     0.86925  0.90979  0.52519    Ag
C       0.8712    0.594   0.4985     C
H       0.8824   0.6377   0.4534     H
N       0.8888   0.5086   0.6431     N
N       0.9007   0.5935   0.0142     N
C       0.9007   0.6627   0.9796     C
C        0.901   0.0649   0.2168     C
H       0.9161   0.2743    0.647     H
N       0.9313   0.5809   0.6124     N
H       0.9425   0.1058   0.1803     H
N       0.9447   0.0372   0.3277     N
Ag     0.95235  0.45099  0.82649    Ag
H       0.9553   0.7441   0.7037     H
H       0.9571   0.7007   0.0201     H
