data_I
_chemical_name_common  '/home/zhangsd/repos/MofS-CGCNN/ML/data/TSD/clean_cifs/HOWPOZ_clean'
_cell_length_a 13.19900
_cell_length_b 13.64500
_cell_length_c 20.03300
_cell_angle_alpha 90.00000
_cell_angle_beta  90.00000
_cell_angle_gamma 90.00000
_space_group_name_H-M_alt      'P 1'


loop_
_space_group_symop_operation_xyz
  'x, y, z' 

loop_
_atom_site_label
_atom_site_fract_x
_atom_site_fract_y
_atom_site_fract_z
_atom_site_type_symbol
C       0.0053   0.2034   0.2161     C
C       0.0053   0.7034   0.2839     C
O       0.0144   0.0614   0.1479     O
O       0.0144   0.5614   0.3521     O
N        0.027   0.1467   0.7747     N
N        0.027   0.6467   0.7253     N
C       0.0371   0.3879    0.687     C
C       0.0371   0.8879    0.813     C
C       0.0573   0.2332    0.749     C
C       0.0573   0.7332    0.751     C
C       0.0694   0.3776   0.2677     C
C       0.0694   0.8776   0.2323     C
H       0.0751   0.4538   0.5064     H
H       0.0751   0.9538   0.9936     H
H       0.0909   0.4378   0.2843     H
H       0.0909   0.9378   0.2157     H
H        0.101   0.3723    0.559     H
H        0.101   0.8723    0.941     H
C       0.1102   0.2283   0.2117     C
C       0.1102   0.7283   0.2883     C
H       0.1249   0.2507   0.7539     H
H       0.1249   0.7507   0.7461     H
O       0.1259   0.4131    0.704     O
O       0.1259   0.9131    0.796     O
C       0.1294   0.4138   0.5243     C
C       0.1294   0.9138   0.9757     C
Cd     0.13371  0.06158   0.8511    Cd
Cd     0.13371  0.56158   0.6489    Cd
C       0.1394   0.3181   0.2369     C
C       0.1394   0.8181   0.2631     C
H       0.1593   0.4539   0.4004     H
H       0.1593   0.9539   0.0996     H
N       0.1706   0.3524   0.4713     N
N       0.1706   0.8524   0.0287     N
C       0.1912    0.161   0.1859     C
C       0.1912    0.661   0.3141     C
H       0.1979   0.0784   0.0188     H
H       0.1979   0.5784   0.4812     H
N       0.2059   0.4766   0.5531     N
N       0.2059   0.9766   0.9469     N
H       0.2065   0.3383   0.2331     H
H       0.2065   0.8383   0.2669     H
C       0.2124   0.4133   0.4194     C
C       0.2124   0.9133   0.0806     C
O       0.2199   0.0913   0.2197     O
O       0.2199   0.5913   0.2803     O
H       0.2215   0.2548   0.5342     H
H       0.2215   0.7548   0.9658     H
O       0.2318   0.1861   0.1307     O
O       0.2318   0.6861   0.3693     O
H       0.2396   0.3723   0.3841     H
H       0.2396   0.8723   0.1159     H
C         0.25   0.0366      0.0     C
C         0.25   0.2968      0.5     C
C         0.25   0.5366      0.5     C
C         0.25   0.7968      0.0     C
H       0.2604   0.3723   0.6159     H
H       0.2604   0.8723   0.8841     H
O       0.2682   0.1861   0.8693     O
O       0.2682   0.6861   0.6307     O
H       0.2785   0.2548   0.4658     H
H       0.2785   0.7548   0.0342     H
O       0.2801   0.0913   0.7803     O
O       0.2801   0.5913   0.7197     O
C       0.2876   0.4133   0.5806     C
C       0.2876   0.9133   0.9194     C
H       0.2935   0.3383   0.7669     H
H       0.2935   0.8383   0.7331     H
N       0.2941   0.4766   0.4469     N
N       0.2941   0.9766   0.0531     N
H       0.3021   0.0784   0.9812     H
H       0.3021   0.5784   0.5188     H
C       0.3088    0.161   0.8141     C
C       0.3088    0.661   0.6859     C
N       0.3294   0.3524   0.5287     N
N       0.3294   0.8524   0.9713     N
H       0.3407   0.4539   0.5996     H
H       0.3407   0.9539   0.9004     H
C       0.3606   0.3181   0.7631     C
C       0.3606   0.8181   0.7369     C
Cd     0.36629  0.06158   0.1489    Cd
Cd     0.36629  0.56158   0.3511    Cd
C       0.3706   0.4138   0.4757     C
C       0.3706   0.9138   0.0243     C
O       0.3741   0.4131    0.296     O
O       0.3741   0.9131    0.204     O
H       0.3751   0.2507   0.2461     H
H       0.3751   0.7507   0.2539     H
C       0.3898   0.2283   0.7883     C
C       0.3898   0.7283   0.7117     C
H        0.399   0.3723    0.441     H
H        0.399   0.8723    0.059     H
H       0.4091   0.4378   0.7157     H
H       0.4091   0.9378   0.7843     H
H       0.4249   0.4538   0.4936     H
H       0.4249   0.9538   0.0064     H
C       0.4306   0.3776   0.7323     C
C       0.4306   0.8776   0.7677     C
C       0.4427   0.2332    0.251     C
C       0.4427   0.7332    0.249     C
C       0.4629   0.3879    0.313     C
C       0.4629   0.8879    0.187     C
N        0.473   0.1467   0.2253     N
N        0.473   0.6467   0.2747     N
O       0.4856   0.0614   0.8521     O
O       0.4856   0.5614   0.6479     O
C       0.4947   0.2034   0.7839     C
C       0.4947   0.7034   0.7161     C
C       0.5053   0.2966   0.2839     C
C       0.5053   0.7966   0.2161     C
O       0.5144   0.4386   0.3521     O
O       0.5144   0.9386   0.1479     O
N        0.527   0.3533   0.7253     N
N        0.527   0.8533   0.7747     N
C       0.5371   0.1121    0.813     C
C       0.5371   0.6121    0.687     C
C       0.5573   0.2668    0.751     C
C       0.5573   0.7668    0.749     C
C       0.5694   0.1224   0.2323     C
C       0.5694   0.6224   0.2677     C
H       0.5751   0.0462   0.9936     H
H       0.5751   0.5462   0.5064     H
H       0.5909   0.0622   0.2157     H
H       0.5909   0.5622   0.2843     H
H        0.601   0.1277    0.941     H
H        0.601   0.6277    0.559     H
C       0.6102   0.2717   0.2883     C
C       0.6102   0.7717   0.2117     C
H       0.6249   0.2493   0.7461     H
H       0.6249   0.7493   0.7539     H
O       0.6259   0.0869    0.796     O
O       0.6259   0.5869    0.704     O
C       0.6294   0.0862   0.9757     C
C       0.6294   0.5862   0.5243     C
Cd     0.63371  0.43842   0.6489    Cd
Cd     0.63371  0.93842   0.8511    Cd
C       0.6394   0.1819   0.2631     C
C       0.6394   0.6819   0.2369     C
H       0.6593   0.0461   0.0996     H
H       0.6593   0.5461   0.4004     H
N       0.6706   0.1476   0.0287     N
N       0.6706   0.6476   0.4713     N
C       0.6912    0.339   0.3141     C
C       0.6912    0.839   0.1859     C
H       0.6979   0.4216   0.4812     H
H       0.6979   0.9216   0.0188     H
N       0.7059   0.0234   0.9469     N
N       0.7059   0.5234   0.5531     N
H       0.7065   0.1617   0.2669     H
H       0.7065   0.6617   0.2331     H
C       0.7124   0.0867   0.0806     C
C       0.7124   0.5867   0.4194     C
O       0.7199   0.4087   0.2803     O
O       0.7199   0.9087   0.2197     O
H       0.7215   0.2452   0.9658     H
H       0.7215   0.7452   0.5342     H
O       0.7318   0.3139   0.3693     O
O       0.7318   0.8139   0.1307     O
H       0.7396   0.1277   0.1159     H
H       0.7396   0.6277   0.3841     H
C         0.75   0.2032      0.0     C
C         0.75   0.4634      0.5     C
C         0.75   0.7032      0.5     C
C         0.75   0.9634      0.0     C
H       0.7604   0.1277   0.8841     H
H       0.7604   0.6277   0.6159     H
O       0.7682   0.3139   0.6307     O
O       0.7682   0.8139   0.8693     O
H       0.7785   0.2452   0.0342     H
H       0.7785   0.7452   0.4658     H
O       0.7801   0.4087   0.7197     O
O       0.7801   0.9087   0.7803     O
C       0.7876   0.0867   0.9194     C
C       0.7876   0.5867   0.5806     C
H       0.7935   0.1617   0.7331     H
H       0.7935   0.6617   0.7669     H
N       0.7941   0.0234   0.0531     N
N       0.7941   0.5234   0.4469     N
H       0.8021   0.4216   0.5188     H
H       0.8021   0.9216   0.9812     H
C       0.8088    0.339   0.6859     C
C       0.8088    0.839   0.8141     C
N       0.8294   0.1476   0.9713     N
N       0.8294   0.6476   0.5287     N
H       0.8407   0.0461   0.9004     H
H       0.8407   0.5461   0.5996     H
C       0.8606   0.1819   0.7369     C
C       0.8606   0.6819   0.7631     C
Cd     0.86629  0.43842   0.3511    Cd
Cd     0.86629  0.93842   0.1489    Cd
C       0.8706   0.0862   0.0243     C
C       0.8706   0.5862   0.4757     C
O       0.8741   0.0869    0.204     O
O       0.8741   0.5869    0.296     O
H       0.8751   0.2493   0.2539     H
H       0.8751   0.7493   0.2461     H
C       0.8898   0.2717   0.7117     C
C       0.8898   0.7717   0.7883     C
H        0.899   0.1277    0.059     H
H        0.899   0.6277    0.441     H
H       0.9091   0.0622   0.7843     H
H       0.9091   0.5622   0.7157     H
H       0.9249   0.0462   0.0064     H
H       0.9249   0.5462   0.4936     H
C       0.9306   0.1224   0.7677     C
C       0.9306   0.6224   0.7323     C
C       0.9427   0.2668    0.249     C
C       0.9427   0.7668    0.251     C
C       0.9629   0.1121    0.187     C
C       0.9629   0.6121    0.313     C
N        0.973   0.3533   0.2747     N
N        0.973   0.8533   0.2253     N
O       0.9856   0.4386   0.6479     O
O       0.9856   0.9386   0.8521     O
C       0.9947   0.2966   0.7161     C
C       0.9947   0.7966   0.7839     C
