data_I
_chemical_name_common  '/home/zhangsd/repos/MofS-CGCNN/ML/data/TSD/clean_cifs/HOWQOA_clean'
_cell_length_a 14.08400
_cell_length_b 21.63200
_cell_length_c 25.79400
_cell_angle_alpha 106.27000
_cell_angle_beta  90.00000
_cell_angle_gamma 90.00000
_space_group_name_H-M_alt      'P 1'


loop_
_space_group_symop_operation_xyz
  'x, y, z' 

loop_
_atom_site_label
_atom_site_fract_x
_atom_site_fract_y
_atom_site_fract_z
_atom_site_type_symbol
C       0.0002   0.9524   0.2245     C
C       0.0004   0.2672     0.26     C
C       0.0005   0.2352   0.7833     C
N       0.0029   0.3295  0.28688     N
N       0.0033   0.8207  0.25508     N
C       0.0046   0.4358   0.2191     C
C       0.0046   0.5379   0.1596     C
O       0.0063   0.4344  0.87683     O
H       0.0073   0.8457   0.0243     H
H       0.0075   0.3669   0.0614     H
C       0.0148   0.7177   0.9957     C
C       0.0167    0.651   0.9731     C
C       0.0202   0.1708   0.0096     C
C       0.0224   0.4856    0.473     C
O       0.0241   0.9161   0.1807     O
O       0.0245   0.3909  0.17973     O
C       0.0248   0.9572   0.8483     C
C       0.0251    0.237   0.0326     C
H       0.0288   0.3937   0.4761     H
H        0.032   0.5669   0.4492     H
O       0.0373  0.95617  0.26912     O
C       0.0421   0.4207   0.4546     C
C        0.044   0.5228   0.4386     C
O       0.0459  0.45141  0.26406     O
O        0.048   0.9537   0.8935     O
H       0.0515   0.0855   0.0205     H
H       0.0534   0.5675   0.9859     H
C       0.0542   0.6118   0.0017     C
H       0.0548   0.2482    0.242     H
H       0.0548   0.7492   0.1978     H
C       0.0551   0.7399   0.0463     C
C        0.056   0.1296   0.0367     C
H        0.057   0.7839   0.0633     H
O       0.0579  0.05061  0.17013     O
C       0.0667    0.257   0.0827     C
H       0.0713   0.3009   0.0999     H
H       0.0754   0.6016   0.6689     H
H       0.0755   0.1199    0.691     H
C       0.0765    0.645   0.6881     C
C       0.0775   0.1585   0.7184     C
C         0.08   0.7705   0.7423     C
C       0.0811    0.524   0.7845     C
H       0.0813   0.3096   0.8233     H
C       0.0816   0.3962   0.4042     C
C       0.0822   0.2707   0.7963     C
O       0.0828   0.5259   0.1744     O
H        0.083    0.814    0.762     H
C       0.0832   0.4943   0.3888     C
C       0.0841   0.4792   0.8142     C
C       0.0872   0.0063   0.7752     C
N       0.0919   0.6339   0.0511     N
C       0.0925   0.6977   0.0719     C
H       0.0946   0.3523   0.3927     H
N        0.097   0.1499   0.0854     N
H        0.097   0.5201   0.3664     H
C       0.1003   0.9695    0.811     C
C       0.1015   0.2137   0.1079     C
N       0.1022   0.4318  0.37107     N
H       0.1198   0.7146   0.1058     H
Zn     0.12281  0.88139   0.2737    Zn
Zn     0.12833   0.5755   0.1007    Zn
Zn     0.12846   0.3899  0.28844    Zn
H       0.1293   0.2292   0.1418     H
Zn      0.1423  0.08379  0.12371    Zn
H        0.155    0.031    0.713     H
C       0.1606   0.0078   0.7395     C
C       0.1609   0.6782   0.6887     C
C       0.1627   0.7435   0.7167     C
C       0.1633   0.1901   0.7288     C
C       0.1643   0.5322   0.7585     C
H       0.1656   0.5615   0.7381     H
C       0.1665   0.2487    0.769     C
C       0.1683   0.4471   0.8166     C
H       0.1695   0.4181   0.8373     H
O       0.1717  0.17843  0.21224     O
O       0.1733   0.6652  0.17258     O
C       0.1858   0.9377   0.8093     C
H       0.1945   0.9133   0.8334     H
H       0.2005   0.5043    0.244     H
H       0.2087   0.9762   0.2168     H
O       0.2133  0.80483  0.26502     O
O       0.2161   0.2993   0.3306     O
O       0.2168  0.31856   0.2507     O
O       0.2285   0.8027   0.1791     O
O       0.2327  0.11119  0.65598     O
O       0.2329   0.5919  0.62324     O
N        0.243   0.9397  0.27546     N
C        0.243   0.9744    0.741     C
C       0.2451   0.4977   0.7622     C
C       0.2459   0.6432   0.6602     C
C        0.247   0.2909   0.2845     C
N       0.2479   0.4551  0.79124     N
C       0.2482   0.7864   0.7194     C
C       0.2485   0.1589   0.6975     C
C       0.2515   0.1589   0.1975     C
C       0.2518   0.7864   0.2194     C
N       0.2521   0.4551  0.29124     N
C        0.253   0.2909   0.7845     C
C       0.2541   0.6432   0.1602     C
C       0.2549   0.4977   0.2622     C
N        0.257   0.9397  0.77546     N
C        0.257   0.9744    0.241     C
O       0.2671   0.5919  0.12324     O
O       0.2673  0.11119  0.15598     O
O       0.2715   0.8027   0.6791     O
O       0.2832  0.31856   0.7507     O
O       0.2839   0.2993   0.8306     O
O       0.2867  0.80483  0.76502     O
H       0.2913   0.9762   0.7168     H
H       0.2995   0.5043    0.744     H
H       0.3055   0.9133   0.3334     H
C       0.3142   0.9377   0.3093     C
O       0.3267   0.6652  0.67258     O
O       0.3283  0.17843  0.71224     O
H       0.3305   0.4181   0.3373     H
C       0.3317   0.4471   0.3166     C
C       0.3335   0.2487    0.269     C
H       0.3344   0.5615   0.2381     H
C       0.3357   0.5322   0.2585     C
C       0.3367   0.1901   0.2288     C
C       0.3373   0.7435   0.2167     C
C       0.3391   0.6782   0.1887     C
C       0.3394   0.0078   0.2395     C
H        0.345    0.031    0.213     H
Zn      0.3577  0.08379  0.62371    Zn
H       0.3707   0.2292   0.6418     H
Zn     0.37154   0.3899  0.78844    Zn
Zn     0.37167   0.5755   0.6007    Zn
Zn     0.37719  0.88139   0.7737    Zn
H       0.3802   0.7146   0.6058     H
N       0.3978   0.4318  0.87107     N
C       0.3985   0.2137   0.6079     C
C       0.3997   0.9695    0.311     C
N        0.403   0.1499   0.5854     N
H        0.403   0.5201   0.8664     H
H       0.4054   0.3523   0.8927     H
C       0.4075   0.6977   0.5719     C
N       0.4081   0.6339   0.5511     N
C       0.4128   0.0063   0.2752     C
C       0.4159   0.4792   0.3142     C
C       0.4168   0.4943   0.8888     C
H        0.417    0.814    0.262     H
O       0.4172   0.5259   0.6744     O
C       0.4178   0.2707   0.2963     C
C       0.4184   0.3962   0.9042     C
H       0.4187   0.3096   0.3233     H
C       0.4189    0.524   0.2845     C
C         0.42   0.7705   0.2423     C
C       0.4225   0.1585   0.2184     C
C       0.4235    0.645   0.1881     C
H       0.4245   0.1199    0.191     H
H       0.4246   0.6016   0.1689     H
H       0.4287   0.3009   0.5999     H
C       0.4333    0.257   0.5827     C
O       0.4421  0.05061  0.67013     O
H        0.443   0.7839   0.5633     H
C        0.444   0.1296   0.5367     C
C       0.4449   0.7399   0.5463     C
H       0.4452   0.2482    0.742     H
H       0.4452   0.7492   0.6978     H
C       0.4458   0.6118   0.5017     C
H       0.4466   0.5675   0.4859     H
H       0.4485   0.0855   0.5205     H
O        0.452   0.9537   0.3935     O
O       0.4541  0.45141  0.76406     O
C        0.456   0.5228   0.9386     C
C       0.4579   0.4207   0.9546     C
O       0.4627  0.95617  0.76912     O
H        0.468   0.5669   0.9492     H
H       0.4712   0.3937   0.9761     H
C       0.4749    0.237   0.5326     C
C       0.4752   0.9572   0.3483     C
O       0.4755   0.3909  0.67973     O
O       0.4759   0.9161   0.6807     O
C       0.4776   0.4856    0.973     C
C       0.4798   0.1708   0.5096     C
C       0.4833    0.651   0.4731     C
C       0.4852   0.7177   0.4957     C
H       0.4925   0.3669   0.5614     H
H       0.4927   0.8457   0.5243     H
O       0.4937   0.4344  0.37683     O
C       0.4954   0.4358   0.7191     C
C       0.4954   0.5379   0.6596     C
N       0.4967   0.8207  0.75508     N
N       0.4971   0.3295  0.78688     N
C       0.4995   0.2352   0.2833     C
C       0.4996   0.2672     0.76     C
C       0.4998   0.9524   0.7245     C
C       0.5002   0.0476   0.2755     C
C       0.5004   0.7328     0.24     C
C       0.5005   0.7648   0.7167     C
N       0.5029   0.6705  0.21312     N
N       0.5033   0.1793  0.24492     N
C       0.5046   0.4621   0.3404     C
C       0.5046   0.5642   0.2809     C
O       0.5063   0.5656  0.62317     O
H       0.5073   0.1543   0.4757     H
H       0.5075   0.6331   0.4386     H
C       0.5148   0.2823   0.5043     C
C       0.5167    0.349   0.5269     C
C       0.5202   0.8292   0.4904     C
C       0.5224   0.5144    0.027     C
O       0.5241   0.0839   0.3193     O
O       0.5245   0.6091  0.32027     O
C       0.5248   0.0428   0.6517     C
C       0.5251    0.763   0.4674     C
H       0.5288   0.6063   0.0239     H
H        0.532   0.4331   0.0508     H
O       0.5373  0.04383  0.23088     O
C       0.5421   0.5793   0.0454     C
C        0.544   0.4772   0.0614     C
O       0.5459  0.54859  0.23594     O
O        0.548   0.0463   0.6065     O
H       0.5515   0.9145   0.4795     H
H       0.5534   0.4325   0.5141     H
C       0.5542   0.3882   0.4983     C
H       0.5548   0.2508   0.3022     H
H       0.5548   0.7518    0.258     H
C       0.5551   0.2601   0.4537     C
C        0.556   0.8704   0.4633     C
H        0.557   0.2161   0.4367     H
O       0.5579  0.94939  0.32987     O
C       0.5667    0.743   0.4173     C
H       0.5713   0.6991   0.4001     H
H       0.5754   0.3984   0.8311     H
H       0.5755   0.8801    0.809     H
C       0.5765    0.355   0.8119     C
C       0.5775   0.8415   0.7816     C
C         0.58   0.2295   0.7577     C
C       0.5811    0.476   0.7155     C
H       0.5813   0.6904   0.6767     H
C       0.5816   0.6038   0.0958     C
C       0.5822   0.7293   0.7037     C
O       0.5828   0.4741   0.3256     O
H        0.583    0.186    0.738     H
C       0.5832   0.5057   0.1112     C
C       0.5841   0.5208   0.6858     C
C       0.5872   0.9937   0.7248     C
N       0.5919   0.3661   0.4489     N
C       0.5925   0.3023   0.4281     C
H       0.5946   0.6477   0.1073     H
H        0.597   0.4799   0.1336     H
N        0.597   0.8501   0.4146     N
C       0.6003   0.0305    0.689     C
C       0.6015   0.7863   0.3921     C
N       0.6022   0.5682  0.12893     N
H       0.6198   0.2854   0.3942     H
Zn     0.62281  0.11861   0.2263    Zn
Zn     0.62833   0.4245   0.3993    Zn
Zn     0.62846   0.6101  0.21156    Zn
H       0.6293   0.7708   0.3582     H
Zn      0.6423  0.91621  0.37629    Zn
H        0.655    0.969    0.787     H
C       0.6606   0.9922   0.7605     C
C       0.6609   0.3218   0.8113     C
C       0.6627   0.2565   0.7833     C
C       0.6633   0.8099   0.7712     C
C       0.6643   0.4678   0.7415     C
H       0.6656   0.4385   0.7619     H
C       0.6665   0.7513    0.731     C
C       0.6683   0.5529   0.6834     C
H       0.6695   0.5819   0.6627     H
O       0.6717  0.82157  0.28776     O
O       0.6733   0.3348  0.32742     O
C       0.6858   0.0623   0.6907     C
H       0.6945   0.0867   0.6666     H
H       0.7005   0.4957    0.256     H
H       0.7087   0.0238   0.2832     H
O       0.7133  0.19517  0.23498     O
O       0.7161   0.7007   0.1694     O
O       0.7168  0.68144   0.2493     O
O       0.7285   0.1973   0.3209     O
O       0.7327  0.88881  0.84402     O
O       0.7329   0.4081  0.87676     O
C        0.743   0.0256    0.759     C
N        0.743   0.0603  0.22454     N
C       0.7451   0.5023   0.7378     C
C       0.7459   0.3568   0.8398     C
C        0.747   0.7091   0.2155     C
N       0.7479   0.5449  0.70876     N
C       0.7482   0.2136   0.7806     C
C       0.7485   0.8411   0.8025     C
C       0.7515   0.8411   0.3025     C
C       0.7518   0.2136   0.2806     C
N       0.7521   0.5449  0.20876     N
C        0.753   0.7091   0.7155     C
C       0.7541   0.3568   0.3398     C
C       0.7549   0.5023   0.2378     C
C        0.757   0.0256    0.259     C
N        0.757   0.0603  0.72454     N
O       0.7671   0.4081  0.37676     O
O       0.7673  0.88881  0.34402     O
O       0.7715   0.1973   0.8209     O
O       0.7832  0.68144   0.7493     O
O       0.7839   0.7007   0.6694     O
O       0.7867  0.19517  0.73498     O
H       0.7913   0.0238   0.7832     H
H       0.7995   0.4957    0.756     H
H       0.8055   0.0867   0.1666     H
C       0.8142   0.0623   0.1907     C
O       0.8267   0.3348  0.82742     O
O       0.8283  0.82157  0.78776     O
H       0.8305   0.5819   0.1627     H
C       0.8317   0.5529   0.1834     C
C       0.8335   0.7513    0.231     C
H       0.8344   0.4385   0.2619     H
C       0.8357   0.4678   0.2415     C
C       0.8367   0.8099   0.2712     C
C       0.8373   0.2565   0.2833     C
C       0.8391   0.3218   0.3113     C
C       0.8394   0.9922   0.2605     C
H        0.845    0.969    0.287     H
Zn      0.8577  0.91621  0.87629    Zn
H       0.8707   0.7708   0.8582     H
Zn     0.87154   0.6101  0.71156    Zn
Zn     0.87167   0.4245   0.8993    Zn
Zn     0.87719  0.11861   0.7263    Zn
H       0.8802   0.2854   0.8942     H
N       0.8978   0.5682  0.62893     N
C       0.8985   0.7863   0.8921     C
C       0.8997   0.0305    0.189     C
H        0.903   0.4799   0.6336     H
N        0.903   0.8501   0.9146     N
H       0.9054   0.6477   0.6073     H
C       0.9075   0.3023   0.9281     C
N       0.9081   0.3661   0.9489     N
C       0.9128   0.9937   0.2248     C
C       0.9159   0.5208   0.1858     C
C       0.9168   0.5057   0.6112     C
H        0.917    0.186    0.238     H
O       0.9172   0.4741   0.8256     O
C       0.9178   0.7293   0.2037     C
C       0.9184   0.6038   0.5958     C
H       0.9187   0.6904   0.1767     H
C       0.9189    0.476   0.2155     C
C         0.92   0.2295   0.2577     C
C       0.9225   0.8415   0.2816     C
C       0.9235    0.355   0.3119     C
H       0.9245   0.8801    0.309     H
H       0.9246   0.3984   0.3311     H
H       0.9287   0.6991   0.9001     H
C       0.9333    0.743   0.9173     C
O       0.9421  0.94939  0.82987     O
H        0.943   0.2161   0.9367     H
C        0.944   0.8704   0.9633     C
C       0.9449   0.2601   0.9537     C
H       0.9452   0.2508   0.8022     H
H       0.9452   0.7518    0.758     H
C       0.9458   0.3882   0.9983     C
H       0.9466   0.4325   0.0141     H
H       0.9485   0.9145   0.9795     H
O        0.952   0.0463   0.1065     O
O       0.9541  0.54859  0.73594     O
C        0.956   0.4772   0.5614     C
C       0.9579   0.5793   0.5454     C
O       0.9627  0.04383  0.73088     O
H        0.968   0.4331   0.5508     H
H       0.9712   0.6063   0.5239     H
C       0.9749    0.763   0.9674     C
C       0.9752   0.0428   0.1517     C
O       0.9755   0.6091  0.82027     O
O       0.9759   0.0839   0.8193     O
C       0.9776   0.5144    0.527     C
C       0.9798   0.8292   0.9904     C
C       0.9833    0.349   0.0269     C
C       0.9852   0.2823   0.0043     C
H       0.9925   0.6331   0.9386     H
H       0.9927   0.1543   0.9757     H
O       0.9937   0.5656  0.12317     O
C       0.9954   0.4621   0.8404     C
C       0.9954   0.5642   0.7809     C
N       0.9967   0.1793  0.74492     N
N       0.9971   0.6705  0.71312     N
C       0.9995   0.7648   0.2167     C
C       0.9996   0.7328     0.74     C
C       0.9998   0.0476   0.7755     C
