data_I
_chemical_name_common  '/home/zhangsd/repos/MofS-CGCNN/ML/data/TSD/clean_cifs/HOWQEQ_clean'
_cell_length_a  7.57700
_cell_length_b 15.07100
_cell_length_c 27.32000
_cell_angle_alpha 90.00000
_cell_angle_beta  90.00000
_cell_angle_gamma 90.00000
_space_group_name_H-M_alt      'P 1'


loop_
_space_group_symop_operation_xyz
  'x, y, z' 

loop_
_atom_site_label
_atom_site_fract_x
_atom_site_fract_y
_atom_site_fract_z
_atom_site_type_symbol
C       0.0039   0.4712   0.0921     C
C       0.0039   0.9712   0.4079     C
N       0.0221   0.2769   0.1536     N
H       0.0221    0.375   0.4536     H
N       0.0221   0.7769   0.3464     N
H       0.0221    0.875   0.0464     H
C       0.0223   0.1235   0.9853     C
C       0.0223   0.6235   0.5147     C
O        0.027   0.0877  0.56117     O
O        0.027   0.5877  0.93883     O
C       0.0284    0.042   0.0108     C
C       0.0284    0.542   0.4892     C
C       0.0501   0.2706   0.2019     C
C       0.0501   0.7706   0.2981     C
H       0.0603    0.235    0.768     H
H       0.0603    0.735    0.732     H
H       0.0762   0.2525   0.9884     H
H       0.0762   0.7525   0.5116     H
C       0.0807   0.2003   0.0066     C
C       0.0807   0.7003   0.4934     C
C       0.0851   0.2307   0.7348     C
C       0.0851   0.7307   0.7652     C
C       0.0854    0.162   0.3757     C
C       0.0854    0.662   0.1243     C
C       0.0962   0.0474   0.0577     C
C       0.0962   0.5474   0.4423     C
C       0.0992   0.3764   0.8798     C
C       0.0992   0.8764   0.6202     C
H       0.1037   0.4966   0.4231     H
H       0.1037   0.9966   0.0769     H
O       0.1317   0.1834   0.3328     O
O       0.1317   0.6834   0.1672     O
C       0.1375   0.4619    0.896     C
C       0.1375   0.9619    0.604     C
N       0.1432   0.2037   0.0517     N
N       0.1432   0.7037   0.4483     N
O       0.1442   0.4739   0.1164     O
O       0.1442   0.9739   0.3836     O
C       0.1454   0.2234   0.6383     C
C       0.1454   0.7234   0.8617     C
C       0.1525   0.1275    0.076     C
C       0.1525   0.6275    0.424     C
H       0.1655    0.267   0.2134     H
H       0.1655    0.767   0.2866     H
H       0.1665   0.2237   0.6048     H
H       0.1665   0.7237   0.8952     H
O       0.1739   0.1753   0.4128     O
O       0.1739   0.6753   0.0872     O
H       0.2002   0.1284   0.1073     H
H       0.2002   0.6284   0.3927     H
H       0.2132   0.2654   0.8556     H
H       0.2132   0.7654   0.6444     H
Cd     0.23655  0.33005  0.09431    Cd
Cd     0.23655  0.83005  0.40569    Cd
C       0.2385   0.3228    0.866     C
C       0.2385   0.8228    0.634     C
C       0.2591   0.2258   0.7193     C
C       0.2591   0.7258   0.7807     C
C       0.2876   0.2232   0.6692     C
C       0.2876   0.7232   0.8308     C
C       0.3122   0.4874   0.8973     C
C       0.3122   0.9874   0.6027     C
H       0.3421   0.0438   0.5916     H
H       0.3421   0.5438   0.9084     H
Cd     0.38348  0.25529   0.3384    Cd
Cd     0.38348  0.75529   0.1616    Cd
O       0.3866   0.1763   0.7932     O
O       0.3866   0.6763   0.7068     O
C       0.4047   0.2258   0.7575     C
C       0.4047   0.7258   0.7425     C
N       0.4078   0.3484   0.8667     N
N       0.4078   0.8484   0.6333     N
H       0.4264   0.2603   0.4577     H
H       0.4264   0.7603   0.0423     H
O       0.4309   0.3431   0.1625     O
O       0.4309   0.8431   0.3375     O
H       0.4338   0.4529   0.5759     H
H       0.4338   0.9529   0.9241     H
H        0.441   0.0505   0.3827     H
H        0.441   0.5505   0.1173     H
C       0.4424   0.4303   0.8821     C
C       0.4424   0.9303   0.6179     C
H       0.4439    0.358   0.5208     H
H       0.4439    0.858   0.9792     H
C       0.4488   0.3197   0.4507     C
C       0.4488   0.8197   0.0493     C
C       0.4602   0.3779   0.4889     C
C       0.4602   0.8779   0.0111     C
H       0.4638   0.0559   0.8632     H
H       0.4638   0.5559   0.6368     H
C       0.4677   0.2111   0.6454     C
N       0.4677   0.3429   0.4044     N
C       0.4677   0.7111   0.8546     C
N       0.4677   0.8429   0.0956     N
C       0.4687   0.0104   0.9318     C
C       0.4687   0.5104   0.5682     C
O        0.473   0.2198   0.2535     O
O        0.473   0.7198   0.2465     O
C       0.4856   0.0728   0.8954     C
C       0.4856   0.5728   0.6046     C
C       0.4964    0.467     0.48     C
C       0.4964    0.967     0.02     C
O       0.4987   0.2531   0.6071     O
O       0.4987   0.7531   0.8929     O
O       0.5013   0.2469   0.1071     O
O       0.5013   0.7469   0.3929     O
C       0.5036    0.033     0.98     C
C       0.5036    0.533     0.52     C
C       0.5144   0.4272   0.3954     C
C       0.5144   0.9272   0.1046     C
O        0.527   0.2802   0.7535     O
O        0.527   0.7802   0.7465     O
C       0.5313   0.4896   0.4318     C
C       0.5313   0.9896   0.0682     C
N       0.5323   0.1571   0.9044     N
C       0.5323   0.2889   0.1454     C
N       0.5323   0.6571   0.5956     N
C       0.5323   0.7889   0.3546     C
H       0.5362   0.4441   0.3632     H
H       0.5362   0.9441   0.1368     H
C       0.5398   0.1221   0.9889     C
C       0.5398   0.6221   0.5111     C
C       0.5512   0.1803   0.9507     C
C       0.5512   0.6803   0.5493     C
H       0.5561    0.142   0.0208     H
H       0.5561    0.642   0.4792     H
C       0.5576   0.0697   0.3821     C
C       0.5576   0.5697   0.1179     C
H        0.559   0.4495   0.8827     H
H        0.559   0.9495   0.6173     H
H       0.5662   0.0471   0.0759     H
H       0.5662   0.5471   0.4241     H
O       0.5691   0.1569   0.6625     O
O       0.5691   0.6569   0.8375     O
H       0.5736   0.2397   0.9577     H
H       0.5736   0.7397   0.5423     H
N       0.5922   0.1516   0.3667     N
N       0.5922   0.6516   0.1333     N
C       0.5953   0.2742   0.2575     C
C       0.5953   0.7742   0.2425     C
O       0.6134   0.3237   0.2932     O
O       0.6134   0.8237   0.2068     O
Cd     0.61652  0.24471   0.8384    Cd
Cd     0.61652  0.74471   0.6616    Cd
H       0.6579   0.4562   0.0916     H
H       0.6579   0.9562   0.4084     H
C       0.6878   0.0126   0.3973     C
C       0.6878   0.5126   0.1027     C
C       0.7124   0.2768   0.1692     C
C       0.7124   0.7768   0.3308     C
C       0.7409   0.2742   0.2193     C
C       0.7409   0.7742   0.2807     C
C       0.7615   0.1772    0.366     C
C       0.7615   0.6772    0.134     C
Cd     0.76345  0.16995  0.59431    Cd
Cd     0.76345  0.66995  0.90569    Cd
H       0.7868   0.2346   0.3556     H
H       0.7868   0.7346   0.1444     H
H       0.7998   0.3716   0.6073     H
H       0.7998   0.8716   0.8927     H
O       0.8261   0.3247   0.9128     O
O       0.8261   0.8247   0.5872     O
H       0.8335   0.2763   0.1048     H
H       0.8335   0.7763   0.3952     H
H       0.8345    0.233   0.7134     H
H       0.8345    0.733   0.7866     H
C       0.8475   0.3725    0.576     C
C       0.8475   0.8725    0.924     C
C       0.8546   0.2766   0.1383     C
C       0.8546   0.7766   0.3617     C
O       0.8558   0.0261   0.6164     O
O       0.8558   0.5261   0.8836     O
N       0.8568   0.2963   0.5517     N
N       0.8568   0.7963   0.9483     N
C       0.8625   0.0381    0.396     C
C       0.8625   0.5381    0.104     C
O       0.8683   0.3166   0.8328     O
O       0.8683   0.8166   0.6672     O
H       0.8963   0.0034   0.9231     H
H       0.8963   0.5034   0.5769     H
C       0.9008   0.1236   0.3798     C
C       0.9008   0.6236   0.1202     C
C       0.9038   0.4526   0.5577     C
C       0.9038   0.9526   0.9423     C
C       0.9146    0.338   0.8757     C
C       0.9146    0.838   0.6243     C
C       0.9149   0.2693   0.2348     C
C       0.9149   0.7693   0.2652     C
C       0.9193   0.2997   0.5066     C
C       0.9193   0.7997   0.9934     C
H       0.9238   0.2475   0.4884     H
H       0.9238   0.7475   0.0116     H
H       0.9397    0.265    0.268     H
H       0.9397    0.765    0.232     H
C       0.9499   0.2294   0.7019     C
C       0.9499   0.7294   0.7981     C
C       0.9716    0.458   0.5108     C
C       0.9716    0.958   0.9892     C
O        0.973   0.4123  0.06117     O
O        0.973   0.9123  0.43883     O
C       0.9777   0.3765   0.4853     C
C       0.9777   0.8765   0.0147     C
H       0.9779    0.125   0.9536     H
N       0.9779   0.2231   0.6536     N
H       0.9779    0.625   0.5464     H
N       0.9779   0.7231   0.8464     N
C       0.9961   0.0288   0.5921     C
C       0.9961   0.5288   0.9079     C
