data_I
_chemical_name_common  '/home/zhangsd/repos/MofS-CGCNN/ML/data/TSD/clean_cifs/HUCWOT_clean'
_cell_length_a 16.29540
_cell_length_b  8.76190
_cell_length_c 20.75500
_cell_angle_alpha 90.00000
_cell_angle_beta  95.31600
_cell_angle_gamma 90.00000
_space_group_name_H-M_alt      'P 1'


loop_
_space_group_symop_operation_xyz
  'x, y, z' 

loop_
_atom_site_label
_atom_site_fract_x
_atom_site_fract_y
_atom_site_fract_z
_atom_site_type_symbol
H       0.0021   0.8859   0.3518     H
C       0.0041   0.9238   0.7035     C
C       0.0055   0.3143   0.4542     C
H       0.0067   0.4825   0.5913     H
C        0.008   0.2884   0.7958     C
C       0.0101   0.5164   0.8589     C
N       0.0155   0.0651   0.5011     N
H       0.0167   0.2673   0.2473     H
C        0.031   0.8261   0.5388     C
C       0.0321   0.5763   0.5864     C
C       0.0339   0.9622   0.3353     C
H       0.0358   0.2124   0.7753     H
H       0.0391   0.5951   0.8808     H
C       0.0422   0.1896   0.2723     C
C       0.0516   0.4045   0.8275     C
H        0.056   0.3355   0.4771     H
C       0.0764   0.4904   0.1427     C
C        0.077   0.7162   0.2058     C
C       0.0959   0.9283   0.7202     C
H       0.1048   0.4171   0.1212     H
H       0.1059   0.7955   0.2273     H
C       0.1082   0.6074   0.6198     C
C       0.1091   0.8556   0.5701     C
C       0.1179   0.9619   0.3495     C
C       0.1188   0.6059   0.1762     C
O       0.1225   0.3563   0.6612     O
C       0.1282    0.188   0.2855     C
O       0.1286   0.8182   0.7521     O
O       0.1349   0.0405   0.7016     O
H        0.135   0.9484    0.564     H
H        0.143   0.8885   0.3771     H
C       0.1438   0.4141   0.8244     C
C       0.1476   0.7463   0.6099     C
C       0.1493   0.4901   0.6653     C
H       0.1605   0.2644   0.2696     H
C       0.1641   0.0701   0.3227     C
O       0.1784   0.2978   0.8039     O
O       0.1797   0.5342   0.8421     O
H       0.1999   0.7648   0.6302     H
O       0.2105   0.5272  0.70418     O
N       0.2129   0.6386   0.1884     N
Sm     0.24185   0.2197  0.71171    Sm
N       0.2428   0.5395   0.1606     N
N       0.2572   0.0395   0.3394     N
Sm     0.25815   0.7197  0.78829    Sm
N       0.2871   0.1386   0.3116     N
O       0.2895   0.0272  0.79582     O
H       0.3001   0.2648   0.8698     H
O       0.3203   0.0342   0.6579     O
O       0.3216   0.7978   0.6961     O
C       0.3359   0.5701   0.1773     C
H       0.3395   0.7644   0.2304     H
C       0.3507   0.9901   0.8347     C
C       0.3524   0.2463   0.8901     C
C       0.3562   0.9141   0.6756     C
H        0.357   0.3885   0.1229     H
H        0.365   0.4484    0.936     H
O       0.3651   0.5405   0.7984     O
O       0.3714   0.3182   0.7479     O
C       0.3718    0.688   0.2145     C
O       0.3775   0.8563   0.8388     O
C       0.3812   0.1059   0.3238     C
C       0.3821   0.4619   0.1505     C
C       0.3909   0.3556   0.9299     C
C       0.3918   0.1074   0.8802     C
H       0.3941   0.2955   0.2727     H
H       0.3952   0.9171   0.3788     H
C       0.4041   0.4283   0.7798     C
C        0.423   0.2162   0.2942     C
C       0.4236   0.9904   0.3573     C
H        0.444   0.8355   0.0229     H
C       0.4484   0.9045   0.6725     C
C       0.4578   0.6896   0.2277     C
H       0.4609   0.0951   0.6192     H
H       0.4642   0.7124   0.7247     H
C       0.4661   0.4622   0.1647     C
C       0.4679   0.0763   0.9136     C
C        0.469   0.3261   0.9612     C
H       0.4833   0.7673   0.2527     H
N       0.4845   0.5651   0.9989     N
C       0.4899   0.0164   0.6411     C
C        0.492   0.7884   0.7042     C
H       0.4933   0.9825   0.9087     H
C       0.4945   0.8143   0.0458     C
C       0.4959   0.4238   0.7965     C
H       0.4979   0.3859   0.1482     H
H       0.5021   0.6141   0.8518     H
C       0.5041   0.5762   0.2035     C
C       0.5055   0.1857   0.9542     C
H       0.5067   0.0175   0.0913     H
C        0.508   0.2116   0.2958     C
C       0.5101   0.9836   0.3589     C
N       0.5155   0.4349   0.0011     N
H       0.5167   0.2327   0.7473     H
C        0.531   0.6739   0.0388     C
C       0.5321   0.9237   0.0864     C
C       0.5339   0.5378   0.8353     C
H       0.5358   0.2876   0.2753     H
H       0.5391   0.9049   0.3808     H
C       0.5422   0.3104   0.7723     C
C       0.5516   0.0955   0.3275     C
H        0.556   0.1645   0.9771     H
C       0.5764   0.0096   0.6427     C
C        0.577   0.7838   0.7058     C
C       0.5959   0.5717   0.2202     C
H       0.6048   0.0829   0.6212     H
H       0.6059   0.7045   0.7273     H
C       0.6082   0.8926   0.1198     C
C       0.6091   0.6444   0.0701     C
C       0.6179   0.5381   0.8495     C
C       0.6188   0.8941   0.6762     C
O       0.6225   0.1437   0.1612     O
C       0.6282    0.312   0.7855     C
O       0.6286   0.6818   0.2521     O
O       0.6349   0.4595   0.2016     O
H        0.635   0.5516    0.064     H
H        0.643   0.6115   0.8771     H
C       0.6438   0.0859   0.3244     C
C       0.6476   0.7537   0.1099     C
C       0.6493   0.0099   0.1653     C
H       0.6605   0.2356   0.7696     H
C       0.6641   0.4299   0.8227     C
O       0.6784   0.2022   0.3039     O
O       0.6797   0.9658   0.3421     O
H       0.6999   0.7352   0.1302     H
O       0.7105   0.9728  0.20418     O
N       0.7129   0.8614   0.6884     N
Sm     0.74185   0.2803  0.21171    Sm
N       0.7428   0.9605   0.6606     N
N       0.7572   0.4605   0.8394     N
Sm     0.75815   0.7803  0.28829    Sm
N       0.7871   0.3614   0.8116     N
O       0.7895   0.4728  0.29582     O
H       0.8001   0.2352   0.3698     H
O       0.8203   0.4658   0.1579     O
O       0.8216   0.7022   0.1961     O
C       0.8359   0.9299   0.6773     C
H       0.8395   0.7356   0.7304     H
C       0.8507   0.5099   0.3347     C
C       0.8524   0.2537   0.3901     C
C       0.8562   0.5859   0.1756     C
H        0.857   0.1115   0.6229     H
H        0.865   0.0516    0.436     H
O       0.8651   0.9595   0.2984     O
O       0.8714   0.1818   0.2479     O
C       0.8718    0.812   0.7145     C
O       0.8775   0.6437   0.3388     O
C       0.8812   0.3941   0.8238     C
C       0.8821   0.0381   0.6505     C
C       0.8909   0.1444   0.4299     C
C       0.8918   0.3926   0.3802     C
H       0.8941   0.2045   0.7727     H
H       0.8952   0.5829   0.8788     H
C       0.9041   0.0717   0.2798     C
C        0.923   0.2838   0.7942     C
C       0.9236   0.5096   0.8573     C
H        0.944   0.6645   0.5229     H
C       0.9484   0.5955   0.1725     C
C       0.9578   0.8104   0.7277     C
H       0.9609   0.4049   0.1192     H
H       0.9642   0.7876   0.2247     H
C       0.9661   0.0378   0.6647     C
C       0.9679   0.4237   0.4136     C
C        0.969   0.1739   0.4612     C
H       0.9833   0.7327   0.7527     H
N       0.9845   0.9349   0.4989     N
C       0.9899   0.4836   0.1411     C
C        0.992   0.7116   0.2042     C
H       0.9933   0.5175   0.4087     H
C       0.9945   0.6857   0.5458     C
C       0.9959   0.0762   0.2965     C
H       0.9979   0.1141   0.6482     H
