data_I
_chemical_name_common  '/home/zhangsd/repos/MofS-CGCNN/ML/data/TSD/clean_cifs/HUCWUZ_clean'
_cell_length_a 16.24990
_cell_length_b  8.74510
_cell_length_c 20.73170
_cell_angle_alpha 90.00000
_cell_angle_beta  95.21300
_cell_angle_gamma 90.00000
_space_group_name_H-M_alt      'P 1'


loop_
_space_group_symop_operation_xyz
  'x, y, z' 

loop_
_atom_site_label
_atom_site_fract_x
_atom_site_fract_y
_atom_site_fract_z
_atom_site_type_symbol
H        0.002   0.8864   0.3535     H
C       0.0051   0.9267   0.7032     C
C       0.0058   0.3141   0.4537     C
C       0.0079   0.2906   0.7946     C
H        0.008   0.4818   0.5908     H
C       0.0096    0.516   0.8587     C
H        0.015   0.2654   0.2484     H
N       0.0155   0.0655   0.5006     N
C       0.0314   0.8257   0.5387     C
C       0.0327   0.5765   0.5862     C
C       0.0336   0.9622   0.3362     C
H       0.0356   0.2158   0.7732     H
H       0.0385   0.5944    0.881     H
C       0.0409   0.1871   0.2729     C
C        0.052   0.4062   0.8273     C
H        0.057   0.3346   0.4757     H
C       0.0769   0.4899   0.1427     C
C        0.077   0.7145   0.2065     C
C       0.0971   0.9296   0.7197     C
H       0.1053   0.4169   0.1208     H
H        0.106   0.7942   0.2278     H
C       0.1095   0.8573   0.5702     C
C       0.1098   0.6095   0.6199     C
C       0.1174   0.9619   0.3501     C
C       0.1188   0.6041   0.1766     C
O        0.124   0.3571   0.6615     O
C       0.1271   0.1857   0.2853     C
O       0.1291   0.8199   0.7518     O
H       0.1351   0.9505   0.5641     H
O       0.1358   0.0423   0.7011     O
H       0.1426   0.8883   0.3776     H
C       0.1443   0.4146   0.8241     C
C       0.1473   0.7489   0.6099     C
C       0.1507   0.4923   0.6653     C
H       0.1594   0.2609   0.2684     H
C       0.1631   0.0692   0.3235     C
O       0.1786   0.2989   0.8031     O
O       0.1795   0.5362   0.8413     O
H       0.1993    0.769   0.6308     H
O       0.2109   0.5297   0.7045     O
N       0.2124   0.6366   0.1878     N
Eu     0.24212  0.22074  0.71197    Eu
N       0.2448   0.5398   0.1601     N
N       0.2552   0.0398   0.3399     N
Eu     0.25788  0.72074  0.78803    Eu
N       0.2876   0.1366   0.3122     N
O       0.2891   0.0297   0.7955     O
H       0.3007    0.269   0.8692     H
O       0.3205   0.0362   0.6587     O
O       0.3214   0.7989   0.6969     O
C       0.3369   0.5692   0.1765     C
H       0.3406   0.7609   0.2316     H
C       0.3493   0.9923   0.8347     C
C       0.3527   0.2489   0.8901     C
C       0.3557   0.9146   0.6759     C
H       0.3574   0.3883   0.1224     H
O       0.3642   0.5423   0.7989     O
H       0.3649   0.4505   0.9359     H
O       0.3709   0.3199   0.7482     O
C       0.3729   0.6857   0.2147     C
O        0.376   0.8571   0.8385     O
C       0.3812   0.1041   0.3234     C
C       0.3826   0.4619   0.1499     C
C       0.3902   0.1095   0.8801     C
C       0.3905   0.3573   0.9298     C
H        0.394   0.2942   0.2722     H
H       0.3947   0.9169   0.3792     H
C       0.4029   0.4296   0.7803     C
C        0.423   0.2145   0.2935     C
C       0.4231   0.9899   0.3573     C
H        0.443   0.8346   0.0243     H
C        0.448   0.9062   0.6727     C
C       0.4591   0.6871   0.2271     C
H       0.4615   0.0944    0.619     H
H       0.4644   0.7158   0.7268     H
C       0.4664   0.4622   0.1638     C
C       0.4673   0.0765   0.9138     C
C       0.4686   0.3257   0.9613     C
N       0.4845   0.5655   0.9994     N
H        0.485   0.7654   0.2516     H
C       0.4904    0.016   0.6413     C
H        0.492   0.9818   0.9092     H
C       0.4921   0.7906   0.7054     C
C       0.4942   0.8141   0.0463     C
C       0.4949   0.4267   0.7968     C
H        0.498   0.3864   0.1465     H
H        0.502   0.6136   0.8535     H
C       0.5051   0.5733   0.2032     C
C       0.5058   0.1859   0.9537     C
C       0.5079   0.2094   0.2946     C
H        0.508   0.0182   0.0908     H
C       0.5096    0.984   0.3587     C
H        0.515   0.2346   0.7484     H
N       0.5155   0.4345   0.0006     N
C       0.5314   0.6743   0.0387     C
C       0.5327   0.9235   0.0862     C
C       0.5336   0.5378   0.8362     C
H       0.5356   0.2842   0.2732     H
H       0.5385   0.9056    0.381     H
C       0.5409   0.3129   0.7729     C
C        0.552   0.0938   0.3273     C
H        0.557   0.1654   0.9757     H
C       0.5769   0.0101   0.6427     C
C        0.577   0.7855   0.7065     C
C       0.5971   0.5704   0.2197     C
H       0.6053   0.0831   0.6208     H
H        0.606   0.7058   0.7278     H
C       0.6095   0.6427   0.0702     C
C       0.6098   0.8905   0.1199     C
C       0.6174   0.5381   0.8501     C
C       0.6188   0.8959   0.6766     C
O        0.624   0.1429   0.1615     O
C       0.6271   0.3143   0.7853     C
O       0.6291   0.6801   0.2518     O
H       0.6351   0.5495   0.0641     H
O       0.6358   0.4577   0.2011     O
H       0.6426   0.6117   0.8776     H
C       0.6443   0.0854   0.3241     C
C       0.6473   0.7511   0.1099     C
C       0.6507   0.0077   0.1653     C
H       0.6594   0.2391   0.7684     H
C       0.6631   0.4308   0.8235     C
O       0.6786   0.2011   0.3031     O
O       0.6795   0.9638   0.3413     O
H       0.6993    0.731   0.1308     H
O       0.7109   0.9703   0.2045     O
N       0.7124   0.8634   0.6878     N
Eu     0.74212  0.27926  0.21197    Eu
N       0.7448   0.9602   0.6601     N
N       0.7552   0.4602   0.8399     N
Eu     0.75788  0.77926  0.28803    Eu
N       0.7876   0.3634   0.8122     N
O       0.7891   0.4703   0.2955     O
H       0.8007    0.231   0.3692     H
O       0.8205   0.4638   0.1587     O
O       0.8214   0.7011   0.1969     O
C       0.8369   0.9308   0.6765     C
H       0.8406   0.7391   0.7316     H
C       0.8493   0.5077   0.3347     C
C       0.8527   0.2511   0.3901     C
C       0.8557   0.5854   0.1759     C
H       0.8574   0.1117   0.6224     H
O       0.8642   0.9577   0.2989     O
H       0.8649   0.0495   0.4359     H
O       0.8709   0.1801   0.2482     O
C       0.8729   0.8143   0.7147     C
O        0.876   0.6429   0.3385     O
C       0.8812   0.3959   0.8234     C
C       0.8826   0.0381   0.6499     C
C       0.8902   0.3905   0.3801     C
C       0.8905   0.1427   0.4298     C
H        0.894   0.2058   0.7722     H
H       0.8947   0.5831   0.8792     H
C       0.9029   0.0704   0.2803     C
C        0.923   0.2855   0.7935     C
C       0.9231   0.5101   0.8573     C
H        0.943   0.6654   0.5243     H
C        0.948   0.5938   0.1727     C
C       0.9591   0.8129   0.7271     C
H       0.9615   0.4056    0.119     H
H       0.9644   0.7842   0.2268     H
C       0.9664   0.0378   0.6638     C
C       0.9673   0.4235   0.4138     C
C       0.9686   0.1743   0.4613     C
N       0.9845   0.9345   0.4994     N
H        0.985   0.7346   0.7516     H
C       0.9904    0.484   0.1413     C
H        0.992   0.5182   0.4092     H
C       0.9921   0.7094   0.2054     C
C       0.9942   0.6859   0.5463     C
C       0.9949   0.0733   0.2968     C
H        0.998   0.1136   0.6465     H
