data_I
_chemical_name_common  '/home/zhangsd/repos/MofS-CGCNN/ML/data/TSD/clean_cifs/HUCXAG_clean'
_cell_length_a 16.23180
_cell_length_b  8.72520
_cell_length_c 20.77730
_cell_angle_alpha 90.00000
_cell_angle_beta  94.98400
_cell_angle_gamma 90.00000
_space_group_name_H-M_alt      'P 1'


loop_
_space_group_symop_operation_xyz
  'x, y, z' 

loop_
_atom_site_label
_atom_site_fract_x
_atom_site_fract_y
_atom_site_fract_z
_atom_site_type_symbol
H       0.0011   0.8859    0.354     H
C       0.0049   0.3144   0.4536     C
C        0.006   0.9256   0.7027     C
C       0.0072     0.29   0.7944     C
C       0.0097   0.5159   0.8587     C
H       0.0098   0.4815    0.592     H
N       0.0151   0.0661   0.5005     N
H       0.0153   0.2657    0.248     H
C       0.0319    0.826    0.539     C
C       0.0326   0.9619   0.3365     C
C       0.0344   0.5766    0.587     C
H       0.0351   0.2147   0.7732     H
H       0.0384   0.5942   0.8813     H
C       0.0406   0.1879   0.2731     C
C       0.0517   0.4063   0.8269     C
H       0.0558   0.3362   0.4757     H
C       0.0771   0.4916   0.1432     C
C       0.0773   0.7154   0.2069     C
C       0.0975   0.9301   0.7193     C
H       0.1056   0.4182   0.1214     H
H       0.1061   0.7947   0.2287     H
C       0.1093   0.8583   0.5702     C
C       0.1101   0.6092   0.6201     C
C       0.1168   0.9621   0.3497     C
C       0.1198   0.6054   0.1765     C
O       0.1253   0.3574   0.6619     O
C       0.1264   0.1863   0.2863     C
O       0.1296   0.8199  0.75151     O
H       0.1346   0.9522   0.5643     H
O       0.1364   0.0431  0.70092     O
H       0.1419   0.8872   0.3766     H
C       0.1437   0.4157   0.8234     C
C       0.1477    0.748     0.61     C
C       0.1512   0.4932   0.6657     C
H       0.1586   0.2625   0.2698     H
C       0.1632   0.0692   0.3243     C
O       0.1788    0.299  0.80261     O
O       0.1798   0.5367  0.84086     O
H          0.2   0.7676   0.6303     H
O       0.2117   0.5313  0.70468     O
N       0.2152   0.6387   0.1887     N
Gd     0.24231  0.22108  0.71218    Gd
N       0.2435   0.5401   0.1601     N
N       0.2565   0.0401   0.3399     N
Gd     0.25769  0.72108  0.78782    Gd
N       0.2848   0.1387   0.3113     N
O       0.2883   0.0313  0.79532     O
H          0.3   0.2676   0.8697     H
O       0.3202   0.0367  0.65914     O
O       0.3212    0.799  0.69739     O
C       0.3368   0.5692   0.1757     C
H       0.3414   0.7625   0.2302     H
C       0.3488   0.9932   0.8343     C
C       0.3523    0.248     0.89     C
C       0.3563   0.9157   0.6766     C
H       0.3581   0.3872   0.1234     H
O       0.3636   0.5431  0.79908     O
H       0.3654   0.4522   0.9357     H
O       0.3704   0.3199  0.74849     O
C       0.3736   0.6863   0.2137     C
O       0.3747   0.8574   0.8381     O
C       0.3802   0.1054   0.3235     C
C       0.3832   0.4621   0.1503     C
C       0.3899   0.1092   0.8799     C
C       0.3907   0.3583   0.9298     C
H       0.3939   0.2947   0.2713     H
H       0.3944   0.9182   0.3786     H
C       0.4025   0.4301   0.7807     C
C       0.4227   0.2154   0.2931     C
C       0.4229   0.9916   0.3568     C
H       0.4442   0.8362   0.0243     H
C       0.4483   0.9063   0.6731     C
C       0.4594   0.6879   0.2269     C
H       0.4616   0.0942   0.6187     H
H       0.4649   0.7147   0.7268     H
C       0.4656   0.0766    0.913     C
C       0.4674   0.4619   0.1635     C
C       0.4681    0.326    0.961     C
H       0.4847   0.7657    0.252     H
N       0.4849   0.5661   0.9995     N
H       0.4902   0.9815    0.908     H
C       0.4903   0.0159   0.6413     C
C       0.4928     0.79   0.7056     C
C        0.494   0.4256   0.7973     C
C       0.4951   0.8144   0.0464     C
H       0.4989   0.3859    0.146     H
H       0.5011   0.6141    0.854     H
C       0.5049   0.1856   0.9536     C
C        0.506   0.5744   0.2027     C
C       0.5072     0.21   0.2944     C
C       0.5097   0.9841   0.3587     C
H       0.5098   0.0185    0.092     H
N       0.5151   0.4339   0.0005     N
H       0.5153   0.2343    0.748     H
C       0.5319    0.674    0.039     C
C       0.5326   0.5381   0.8365     C
C       0.5344   0.9234    0.087     C
H       0.5351   0.2853   0.2732     H
H       0.5384   0.9058   0.3813     H
C       0.5406   0.3121   0.7731     C
C       0.5517   0.0937   0.3269     C
H       0.5558   0.1638   0.9757     H
C       0.5771   0.0084   0.6432     C
C       0.5773   0.7846   0.7069     C
C       0.5975   0.5699   0.2193     C
H       0.6056   0.0818   0.6214     H
H       0.6061   0.7053   0.7287     H
C       0.6093   0.6417   0.0702     C
C       0.6101   0.8908   0.1201     C
C       0.6168   0.5379   0.8497     C
C       0.6198   0.8946   0.6765     C
O       0.6253   0.1426   0.1619     O
C       0.6264   0.3137   0.7863     C
O       0.6296   0.6801  0.25151     O
H       0.6346   0.5478   0.0643     H
O       0.6364   0.4569  0.20092     O
H       0.6419   0.6128   0.8766     H
C       0.6437   0.0843   0.3234     C
C       0.6477    0.752     0.11     C
C       0.6512   0.0068   0.1657     C
H       0.6586   0.2375   0.7698     H
C       0.6632   0.4308   0.8243     C
O       0.6788    0.201  0.30261     O
O       0.6798   0.9633  0.34086     O
H          0.7   0.7324   0.1303     H
O       0.7117   0.9687  0.20468     O
N       0.7152   0.8613   0.6887     N
Gd     0.74231  0.27892  0.21218    Gd
N       0.7435   0.9599   0.6601     N
N       0.7565   0.4599   0.8399     N
Gd     0.75769  0.77892  0.28782    Gd
N       0.7848   0.3613   0.8113     N
O       0.7883   0.4687  0.29532     O
H          0.8   0.2324   0.3697     H
O       0.8202   0.4633  0.15914     O
O       0.8212    0.701  0.19739     O
C       0.8368   0.9308   0.6757     C
H       0.8414   0.7375   0.7302     H
C       0.8488   0.5068   0.3343     C
C       0.8523    0.252     0.39     C
C       0.8563   0.5843   0.1766     C
H       0.8581   0.1128   0.6234     H
O       0.8636   0.9569  0.29908     O
H       0.8654   0.0478   0.4357     H
O       0.8704   0.1801  0.24849     O
C       0.8736   0.8137   0.7137     C
O       0.8747   0.6426   0.3381     O
C       0.8802   0.3946   0.8235     C
C       0.8832   0.0379   0.6503     C
C       0.8899   0.3908   0.3799     C
C       0.8907   0.1417   0.4298     C
H       0.8939   0.2053   0.7713     H
H       0.8944   0.5818   0.8786     H
C       0.9025   0.0699   0.2807     C
C       0.9227   0.2846   0.7931     C
C       0.9229   0.5084   0.8568     C
H       0.9442   0.6638   0.5243     H
C       0.9483   0.5937   0.1731     C
C       0.9594   0.8121   0.7269     C
H       0.9616   0.4058   0.1187     H
H       0.9649   0.7853   0.2268     H
C       0.9656   0.4234    0.413     C
C       0.9674   0.0381   0.6635     C
C       0.9681    0.174    0.461     C
H       0.9847   0.7343    0.752     H
N       0.9849   0.9339   0.4995     N
H       0.9902   0.5185    0.408     H
C       0.9903   0.4841   0.1413     C
C       0.9928     0.71   0.2056     C
C        0.994   0.0744   0.2973     C
C       0.9951   0.6856   0.5464     C
H       0.9989   0.1141    0.646     H
