data_I
_chemical_name_common  '/home/zhangsd/repos/MofS-CGCNN/ML/data/TSD/clean_cifs/HUSJUC_clean'
_cell_length_a 18.43940
_cell_length_b 13.78280
_cell_length_c  8.11600
_cell_angle_alpha 90.00000
_cell_angle_beta  92.31900
_cell_angle_gamma 90.00000
_space_group_name_H-M_alt      'P 1'


loop_
_space_group_symop_operation_xyz
  'x, y, z' 

loop_
_atom_site_label
_atom_site_fract_x
_atom_site_fract_y
_atom_site_fract_z
_atom_site_type_symbol
La     0.00125  0.01709  0.25533    La
La     0.00125  0.98291  0.75533    La
C       0.0165    0.361   0.5911     C
C       0.0165    0.639   0.0911     C
H       0.0206   0.4953   0.0887     H
H       0.0206   0.5047   0.5887     H
O       0.0419   0.1666    0.708     O
O       0.0419   0.8334    0.208     O
H       0.0581   0.3527   0.6582     H
H       0.0581   0.6473   0.1582     H
O       0.0901   0.0171   0.0137     O
O       0.0901   0.9829   0.5137     O
O       0.1136   0.1134   0.3671     O
O       0.1136   0.8866   0.8671     O
C         0.13   0.0571   0.4824     C
C         0.13   0.9429   0.9824     C
C       0.1985   0.0724   0.5863     C
C       0.1985   0.9276   0.0863     C
H        0.201   0.2191   0.5674     H
H        0.201   0.7809   0.0674     H
H       0.2172   0.0689   0.1298     H
H       0.2172   0.9311   0.6298     H
C       0.2254   0.1658   0.6131     C
C       0.2254   0.8342   0.1131     C
C       0.2356    0.007   0.1502     C
C       0.2356    0.993   0.6502     C
H        0.281   0.1836   0.1972     H
H        0.281   0.8164   0.6972     H
C       0.2892   0.1789   0.7094     C
C       0.2892   0.8211   0.2094     C
C       0.3009   0.0038   0.7458     C
C       0.3009   0.9962   0.2458     C
H       0.3068   0.2415    0.726     H
H       0.3068   0.7585    0.226     H
C        0.321   0.1746   0.2693     C
C        0.321   0.8254   0.7693     C
C       0.3273   0.1016   0.7812     C
C       0.3273   0.8984   0.2812     C
H       0.3408   0.3175   0.2998     H
H       0.3408   0.6825   0.7998     H
C       0.3412   0.0798   0.3083     C
C       0.3412   0.9202   0.8083     C
C        0.356   0.2555   0.3302     C
C        0.356   0.7445   0.8302     C
H        0.393   0.2614   0.8876     H
H        0.393   0.7386   0.3876     H
C       0.3932    0.113   0.8865     C
C       0.3932    0.887   0.3865     C
C       0.4039   0.0666   0.4131     C
C       0.4039   0.9334   0.9131     C
C       0.4163   0.2411    0.441     C
C       0.4163   0.7589    0.941     C
C       0.4177   0.2075   0.9299     C
C       0.4177   0.7925   0.4299     C
C       0.4313   0.0315   0.9492     C
C       0.4313   0.9685   0.4492     C
C       0.4388   0.1495   0.4802     C
C       0.4388   0.8505   0.9802     C
O       0.4427   0.4105   0.4624     O
O       0.4427   0.5895   0.9624     O
C       0.4528   0.3263   0.5208     C
C       0.4528   0.6737   0.0208     C
O        0.463    0.393   0.0206     O
O        0.463    0.607   0.5206     O
C       0.4773   0.2203   0.0333     C
C       0.4773   0.7797   0.5333     C
H       0.4785   0.1414   0.5535     H
H       0.4785   0.8586   0.0535     H
O       0.4924   0.3123   0.6499     O
O       0.4924   0.6877   0.1499     O
C       0.4938   0.0482   0.0495     C
C       0.4938   0.9518   0.5495     C
C        0.496   0.3204   0.0914     C
C        0.496   0.6796   0.5914     C
La     0.50125  0.48291  0.75533    La
La     0.50125  0.51709  0.25533    La
C       0.5165    0.139   0.0911     C
C       0.5165    0.861   0.5911     C
H       0.5206   0.0047   0.5887     H
H       0.5206   0.9953   0.0887     H
O       0.5419   0.3334    0.208     O
O       0.5419   0.6666    0.708     O
H       0.5581   0.1473   0.1582     H
H       0.5581   0.8527   0.6582     H
O       0.5901   0.4829   0.5137     O
O       0.5901   0.5171   0.0137     O
O       0.6136   0.3866   0.8671     O
O       0.6136   0.6134   0.3671     O
C         0.63   0.4429   0.9824     C
C         0.63   0.5571   0.4824     C
C       0.6985   0.4276   0.0863     C
C       0.6985   0.5724   0.5863     C
H        0.701   0.2809   0.0674     H
H        0.701   0.7191   0.5674     H
H       0.7172   0.4311   0.6298     H
H       0.7172   0.5689   0.1298     H
C       0.7254   0.3342   0.1131     C
C       0.7254   0.6658   0.6131     C
C       0.7356    0.493   0.6502     C
C       0.7356    0.507   0.1502     C
H        0.781   0.3164   0.6972     H
H        0.781   0.6836   0.1972     H
C       0.7892   0.3211   0.2094     C
C       0.7892   0.6789   0.7094     C
C       0.8009   0.4962   0.2458     C
C       0.8009   0.5038   0.7458     C
H       0.8068   0.2585    0.226     H
H       0.8068   0.7415    0.726     H
C        0.821   0.3254   0.7693     C
C        0.821   0.6746   0.2693     C
C       0.8273   0.3984   0.2812     C
C       0.8273   0.6016   0.7812     C
H       0.8408   0.1825   0.7998     H
H       0.8408   0.8175   0.2998     H
C       0.8412   0.4202   0.8083     C
C       0.8412   0.5798   0.3083     C
C        0.856   0.2445   0.8302     C
C        0.856   0.7555   0.3302     C
H        0.893   0.2386   0.3876     H
H        0.893   0.7614   0.8876     H
C       0.8932    0.387   0.3865     C
C       0.8932    0.613   0.8865     C
C       0.9039   0.4334   0.9131     C
C       0.9039   0.5666   0.4131     C
C       0.9163   0.2589    0.941     C
C       0.9163   0.7411    0.441     C
C       0.9177   0.2925   0.4299     C
C       0.9177   0.7075   0.9299     C
C       0.9313   0.4685   0.4492     C
C       0.9313   0.5315   0.9492     C
C       0.9388   0.3505   0.9802     C
C       0.9388   0.6495   0.4802     C
O       0.9427   0.0895   0.9624     O
O       0.9427   0.9105   0.4624     O
C       0.9528   0.1737   0.0208     C
C       0.9528   0.8263   0.5208     C
O        0.963    0.107   0.5206     O
O        0.963    0.893   0.0206     O
C       0.9773   0.2797   0.5333     C
C       0.9773   0.7203   0.0333     C
H       0.9785   0.3586   0.0535     H
H       0.9785   0.6414   0.5535     H
O       0.9924   0.1877   0.1499     O
O       0.9924   0.8123   0.6499     O
C       0.9938   0.4518   0.5495     C
C       0.9938   0.5482   0.0495     C
C        0.996   0.1796   0.5914     C
C        0.996   0.8204   0.0914     C
