data_I
_chemical_name_common  '/home/zhangsd/repos/MofS-CGCNN/ML/data/TSD/clean_cifs/HUWDEJ_clean'
_cell_length_a  6.37160
_cell_length_b 13.16460
_cell_length_c 14.86220
_cell_angle_alpha 90.00000
_cell_angle_beta  90.00000
_cell_angle_gamma 90.00000
_space_group_name_H-M_alt      'P 1'


loop_
_space_group_symop_operation_xyz
  'x, y, z' 

loop_
_atom_site_label
_atom_site_fract_x
_atom_site_fract_y
_atom_site_fract_z
_atom_site_type_symbol
C       0.0166   0.1776   0.4201     C
C       0.0166   0.3224   0.0799     C
C       0.0203   0.0535   0.3143     C
C       0.0203   0.4465   0.1857     C
H       0.0262   0.5275   0.7596     H
H       0.0262   0.9725   0.7404     H
H       0.0325   0.7399   0.9406     H
H       0.0325   0.7601   0.5594     H
N       0.0518   0.6447   0.8414     N
N       0.0518   0.8553   0.6586     N
H        0.076    0.592    0.486     H
H        0.076    0.908    0.014     H
C       0.1085   0.5238   0.5004     C
C       0.1085   0.9762   0.9996     C
C       0.1543   0.1259   0.4727     C
C       0.1543   0.3741   0.0273     C
C        0.161   0.5029   0.1354     C
C        0.161   0.9971   0.3646     C
H         0.17    0.535    0.554     H
H         0.17    0.965    0.946     H
H       0.1953   0.1533   0.5277     H
H       0.1953   0.3467   0.9723     H
H       0.2057   0.5658   0.1564     H
H       0.2057   0.9342   0.3436     H
C       0.2343   0.0332   0.4456     C
C       0.2343   0.4668   0.0544     C
Ag        0.25     0.75     0.75    Ag
C       0.2657   0.0332   0.0544     C
C       0.2657   0.4668   0.4456     C
H       0.2943   0.5658   0.3436     H
H       0.2943   0.9342   0.1564     H
H       0.3047   0.1533   0.9723     H
H       0.3047   0.3467   0.5277     H
H         0.33    0.535    0.946     H
H         0.33    0.965    0.554     H
C        0.339   0.5029   0.3646     C
C        0.339   0.9971   0.1354     C
C       0.3457   0.1259   0.0273     C
C       0.3457   0.3741   0.4727     C
C       0.3915   0.5238   0.9996     C
C       0.3915   0.9762   0.5004     C
H        0.424    0.592    0.014     H
H        0.424    0.908    0.486     H
N       0.4482   0.6447   0.6586     N
N       0.4482   0.8553   0.8414     N
H       0.4675   0.7399   0.5594     H
H       0.4675   0.7601   0.9406     H
H       0.4738   0.5275   0.7404     H
H       0.4738   0.9725   0.7596     H
C       0.4797   0.0535   0.1857     C
C       0.4797   0.4465   0.3143     C
C       0.4834   0.1776   0.0799     C
C       0.4834   0.3224   0.4201     C
C       0.5166   0.6776   0.5799     C
C       0.5166   0.8224   0.9201     C
C       0.5203   0.5535   0.6857     C
C       0.5203   0.9465   0.8143     C
H       0.5262   0.0275   0.2404     H
H       0.5262   0.4725   0.2596     H
H       0.5325   0.2399   0.0594     H
H       0.5325   0.2601   0.4406     H
N       0.5518   0.1447   0.1586     N
N       0.5518   0.3553   0.3414     N
H        0.576    0.092    0.514     H
H        0.576    0.408    0.986     H
C       0.6085   0.0238   0.4996     C
C       0.6085   0.4762   0.0004     C
C       0.6543   0.6259   0.5273     C
C       0.6543   0.8741   0.9727     C
C        0.661   0.0029   0.8646     C
C        0.661   0.4971   0.6354     C
H         0.67    0.035    0.446     H
H         0.67    0.465    0.054     H
H       0.6953   0.6533   0.4723     H
H       0.6953   0.8467   0.0277     H
H       0.7057   0.0658   0.8436     H
H       0.7057   0.4342   0.6564     H
C       0.7343   0.5332   0.5544     C
C       0.7343   0.9668   0.9456     C
Ag        0.75     0.25     0.25    Ag
C       0.7657   0.5332   0.9456     C
C       0.7657   0.9668   0.5544     C
H       0.7943   0.0658   0.6564     H
H       0.7943   0.4342   0.8436     H
H       0.8047   0.6533   0.0277     H
H       0.8047   0.8467   0.4723     H
H         0.83    0.035    0.054     H
H         0.83    0.465    0.446     H
C        0.839   0.0029   0.6354     C
C        0.839   0.4971   0.8646     C
C       0.8457   0.6259   0.9727     C
C       0.8457   0.8741   0.5273     C
C       0.8915   0.0238   0.0004     C
C       0.8915   0.4762   0.4996     C
H        0.924    0.092    0.986     H
H        0.924    0.408    0.514     H
N       0.9482   0.1447   0.3414     N
N       0.9482   0.3553   0.1586     N
H       0.9675   0.2399   0.4406     H
H       0.9675   0.2601   0.0594     H
H       0.9738   0.0275   0.2596     H
H       0.9738   0.4725   0.2404     H
C       0.9797   0.5535   0.8143     C
C       0.9797   0.9465   0.6857     C
C       0.9834   0.6776   0.9201     C
C       0.9834   0.8224   0.5799     C
