data_I
_chemical_name_common  '/home/zhangsd/repos/MofS-CGCNN/ML/data/TSD/clean_cifs/HUZSOL_clean'
_cell_length_a 17.10800
_cell_length_b 21.64400
_cell_length_c 25.25800
_cell_angle_alpha 90.00000
_cell_angle_beta  90.00000
_cell_angle_gamma 90.00000
_space_group_name_H-M_alt      'P 1'


loop_
_space_group_symop_operation_xyz
  'x, y, z' 

loop_
_atom_site_label
_atom_site_fract_x
_atom_site_fract_y
_atom_site_fract_z
_atom_site_type_symbol
C       0.0014   0.5295   0.9055     C
C       0.0014   0.9705   0.9055     C
O       0.0054   0.1157    0.681     O
O       0.0054   0.3843    0.681     O
Zn     0.00716  0.16538  0.61576    Zn
Zn     0.00716  0.33462  0.61576    Zn
C       0.0121   0.0112   0.8587     C
C       0.0121   0.4888   0.8587     C
O       0.0147     0.25   0.6441     O
C       0.0178   0.0983   0.0022     C
C       0.0178   0.4017   0.0022     C
H        0.024   0.1222   0.9719     H
H        0.024   0.3778   0.9719     H
C        0.028   0.5421   0.2293     C
C        0.028   0.9579   0.2293     C
C       0.0286   0.0875   0.7708     C
C       0.0286   0.4125   0.7708     C
C       0.0352    0.503   0.1863     C
C       0.0352    0.997   0.1863     C
C       0.0373   0.1314   0.7246     C
C       0.0373   0.3686   0.7246     C
C       0.0569   0.5844     0.98     C
C       0.0569   0.9156     0.98     C
O       0.0588   0.5657   0.4402     O
O       0.0588   0.9343   0.4402     O
H       0.0611   0.5377   0.2582     H
H       0.0611   0.9623   0.2582     H
C       0.0666   0.5499   0.9346     C
C       0.0666   0.9501   0.9346     C
C        0.068   0.0553   0.8575     C
C        0.068   0.4447   0.8575     C
H       0.0716   0.0288   0.1871     H
H       0.0716   0.4712   0.1871     H
C       0.0723   0.0451   0.0762     C
C       0.0723   0.4549   0.0762     C
O       0.0737   0.1808   0.7334     O
O       0.0737   0.3192   0.7334     O
C       0.0755    0.094   0.8151     C
C       0.0755    0.406   0.8151     C
H       0.0804   0.6067   0.0832     H
H       0.0804   0.8933   0.0832     H
C       0.0828   0.0773   0.0286     C
C       0.0828   0.4227   0.0286     C
O       0.0922   0.6595    0.419     O
O       0.0922   0.8405    0.419     O
O       0.1009   0.1541    0.572     O
O       0.1009   0.3459    0.572     O
H       0.1019   0.0595    0.886     H
H       0.1019   0.4405    0.886     H
Na      0.1039     0.75   0.2894    Na
C       0.1046   0.6107    0.439     C
C       0.1046   0.8893    0.439     C
H       0.1128   0.1253    0.816     H
H       0.1128   0.3747    0.816     H
H        0.116    0.034   0.0959     H
H        0.116    0.466   0.0959     H
H       0.1168     0.54   0.9232     H
H       0.1168     0.96   0.9232     H
Zn     0.11922     0.25  0.68635    Zn
C       0.1262   0.6144   0.0645     C
C       0.1262   0.8856   0.0645     C
C       0.1273   0.6072   0.0092     C
C       0.1273   0.8928   0.0092     C
H        0.148   0.6211   0.3141     H
H        0.148   0.8789   0.3141     H
H       0.1495   0.1736   0.9795     H
H       0.1495   0.3264   0.9795     H
C       0.1634   0.0883   0.0066     C
C       0.1634   0.4117   0.0066     C
C       0.1654   0.1617   0.5946     C
C       0.1654   0.3383   0.5946     C
H       0.1706   0.5142   0.4892     H
H       0.1706   0.9858   0.4892     H
O       0.1754   0.1827   0.6403     O
O       0.1754   0.3173   0.6403     O
H       0.1837   0.5183   0.3517     H
H       0.1837   0.9817   0.3517     H
C        0.185   0.1412   0.9819     C
C        0.185   0.3588   0.9819     C
H       0.1856   0.0308   0.3061     H
H       0.1856   0.4692   0.3061     H
C       0.1861   0.6028   0.4642     C
C       0.1861   0.8972   0.4642     C
H       0.1873   0.1399   0.4923     H
H       0.1873   0.3601   0.4923     H
H       0.1904    0.638   0.1277     H
H       0.1904    0.862   0.1277     H
C       0.1908   0.6201    0.291     C
C       0.1908   0.8799    0.291     C
C       0.1927   0.6327   0.0912     C
C       0.1927   0.8673   0.0912     C
C       0.1989   0.6182   0.9837     C
C       0.1989   0.8818   0.9837     C
H       0.2011   0.6142   0.9471     H
H       0.2011   0.8858   0.9471     H
H        0.202   0.0034    0.744     H
H        0.202   0.4966    0.744     H
C       0.2058    0.547   0.4883     C
C       0.2058    0.953   0.4883     C
H       0.2072   0.0059   0.0294     H
H       0.2072   0.4941   0.0294     H
O        0.209    0.666    0.276     O
O        0.209    0.834    0.276     O
C        0.213    0.503    0.322     C
C        0.213    0.997    0.322     C
Na      0.2152     0.25   0.7349    Na
H       0.2163   0.0678   0.7173     H
H       0.2163   0.4322   0.7173     H
C       0.2197   0.0417   0.0109     C
C       0.2197   0.4583   0.0109     C
H       0.2202   0.5159   0.2129     H
H       0.2202   0.9841   0.2129     H
N       0.2246    0.555   0.2814     N
N       0.2246    0.945   0.2814     N
H       0.2265   0.6844   0.4416     H
H       0.2265   0.8156   0.4416     H
C       0.2342   0.1347   0.5103     C
C       0.2342   0.3653   0.5103     C
H       0.2366   0.5112   0.8343     H
H       0.2366   0.9888   0.8343     H
C       0.2381   0.1435   0.5657     C
C       0.2381   0.3565   0.5657     C
C       0.2393   0.6483   0.4595     C
C       0.2393   0.8517   0.4595     C
C       0.2407    0.034   0.7354     C
C       0.2407    0.466   0.7354     C
C       0.2593    0.534   0.2354     C
C       0.2593    0.966   0.2354     C
C       0.2607   0.1483   0.9595     C
C       0.2607   0.3517   0.9595     C
C       0.2619   0.6435   0.0657     C
C       0.2619   0.8565   0.0657     C
H       0.2634   0.0112   0.3343     H
H       0.2634   0.4888   0.3343     H
C       0.2658   0.6347   0.0103     C
C       0.2658   0.8653   0.0103     C
H       0.2735   0.1844   0.9416     H
H       0.2735   0.3156   0.9416     H
N       0.2754    0.055   0.7814     N
N       0.2754    0.445   0.7814     N
H       0.2798   0.0159   0.7129     H
H       0.2798   0.4841   0.7129     H
C       0.2803   0.5417   0.5109     C
C       0.2803   0.9583   0.5109     C
H       0.2837   0.5678   0.2173     H
H       0.2837   0.9322   0.2173     H
Na      0.2848     0.75   0.2349    Na
C        0.287    0.003    0.822     C
C        0.287    0.497    0.822     C
O        0.291    0.166    0.776     O
O        0.291    0.334    0.776     O
H       0.2928   0.5059   0.5294     H
H       0.2928   0.9941   0.5294     H
C       0.2942    0.047   0.9883     C
C       0.2942    0.453   0.9883     C
H        0.298   0.5034    0.244     H
H        0.298   0.9966    0.244     H
H       0.2989   0.1142   0.4471     H
H       0.2989   0.3858   0.4471     H
C       0.3011   0.1182   0.4837     C
C       0.3011   0.3818   0.4837     C
C       0.3073   0.1327   0.5912     C
C       0.3073   0.3673   0.5912     C
C       0.3092   0.1201    0.791     C
C       0.3092   0.3799    0.791     C
H       0.3096    0.138   0.6277     H
H       0.3096    0.362   0.6277     H
H       0.3127   0.6399   0.9923     H
H       0.3127   0.8601   0.9923     H
C       0.3139   0.1028   0.9642     C
C       0.3139   0.3972   0.9642     C
H       0.3144   0.5308   0.8061     H
H       0.3144   0.9692   0.8061     H
C        0.315   0.6412   0.4819     C
C        0.315   0.8588   0.4819     C
H       0.3163   0.0183   0.8517     H
H       0.3163   0.4817   0.8517     H
O       0.3246   0.6827   0.1403     O
O       0.3246   0.8173   0.1403     O
H       0.3294   0.0142   0.9892     H
H       0.3294   0.4858   0.9892     H
C       0.3346   0.6617   0.0946     C
C       0.3346   0.8383   0.0946     C
C       0.3366   0.5883   0.5066     C
C       0.3366   0.9117   0.5066     C
H       0.3505   0.6736   0.4795     H
H       0.3505   0.8264   0.4795     H
H        0.352   0.1211   0.8141     H
H        0.352   0.3789   0.8141     H
C       0.3727   0.1072   0.5092     C
C       0.3727   0.3928   0.5092     C
C       0.3738   0.1144   0.5645     C
C       0.3738   0.3856   0.5645     C
Zn     0.38078     0.75  0.18635    Zn
H       0.3832     0.04   0.4232     H
H       0.3832     0.46   0.4232     H
H        0.384    0.534   0.5959     H
H        0.384    0.966   0.5959     H
H       0.3872   0.6253    0.316     H
H       0.3872   0.8747    0.316     H
C       0.3954   0.1107    0.939     C
C       0.3954   0.3893    0.939     C
Na      0.3961     0.25   0.7894    Na
H       0.3981   0.5595    0.386     H
H       0.3981   0.9405    0.386     H
O       0.3991   0.6541    0.072     O
O       0.3991   0.8459    0.072     O
O       0.4078   0.1595    0.919     O
O       0.4078   0.3405    0.919     O
C       0.4172   0.5773   0.5286     C
C       0.4172   0.9227   0.5286     C
H       0.4196   0.1067   0.5832     H
H       0.4196   0.3933   0.5832     H
C       0.4245    0.594   0.3151     C
C       0.4245    0.906   0.3151     C
O       0.4263   0.6808   0.2334     O
O       0.4263   0.8192   0.2334     O
C       0.4277   0.5451   0.5762     C
C       0.4277   0.9549   0.5762     C
H       0.4284   0.5288   0.6871     H
H       0.4284   0.9712   0.6871     H
C        0.432   0.5553   0.3575     C
C        0.432   0.9447   0.3575     C
C       0.4334   0.0499   0.4346     C
C       0.4334   0.4501   0.4346     C
H       0.4389   0.0377   0.7582     H
H       0.4389   0.4623   0.7582     H
O       0.4412   0.0657   0.9402     O
O       0.4412   0.4343   0.9402     O
C       0.4431   0.0844     0.48     C
C       0.4431   0.4156     0.48     C
C       0.4627   0.6314   0.2246     C
C       0.4627   0.8686   0.2246     C
C       0.4648    0.003   0.6863     C
C       0.4648    0.497   0.6863     C
C       0.4714   0.5875   0.2708     C
C       0.4714   0.9125   0.2708     C
C        0.472   0.0421   0.7293     C
C        0.472   0.4579   0.7293     C
H        0.476   0.6222   0.4719     H
H        0.476   0.8778   0.4719     H
C       0.4822   0.5983   0.5022     C
C       0.4822   0.9017   0.5022     C
O       0.4853     0.75   0.1441     O
C       0.4879   0.5112   0.3587     C
C       0.4879   0.9888   0.3587     C
Zn     0.49284  0.66538  0.11576    Zn
Zn     0.49284  0.83462  0.11576    Zn
O       0.4946   0.6157    0.181     O
O       0.4946   0.8843    0.181     O
C       0.4986   0.0295   0.4055     C
C       0.4986   0.4705   0.4055     C
C       0.5014   0.5295   0.5945     C
C       0.5014   0.9705   0.5945     C
O       0.5054   0.1157    0.819     O
O       0.5054   0.3843    0.819     O
Zn     0.50716  0.16538  0.88424    Zn
Zn     0.50716  0.33462  0.88424    Zn
C       0.5121   0.0112   0.6413     C
C       0.5121   0.4888   0.6413     C
O       0.5147     0.25   0.8559     O
C       0.5178   0.0983   0.4978     C
C       0.5178   0.4017   0.4978     C
H        0.524   0.1222   0.5281     H
H        0.524   0.3778   0.5281     H
C        0.528   0.5421   0.2707     C
C        0.528   0.9579   0.2707     C
C       0.5286   0.0875   0.7292     C
C       0.5286   0.4125   0.7292     C
C       0.5352    0.503   0.3137     C
C       0.5352    0.997   0.3137     C
C       0.5373   0.1314   0.7754     C
C       0.5373   0.3686   0.7754     C
C       0.5569   0.5844     0.52     C
C       0.5569   0.9156     0.52     C
O       0.5588   0.5657   0.0598     O
O       0.5588   0.9343   0.0598     O
H       0.5611   0.5377   0.2418     H
H       0.5611   0.9623   0.2418     H
C       0.5666   0.5499   0.5654     C
C       0.5666   0.9501   0.5654     C
C        0.568   0.0553   0.6425     C
C        0.568   0.4447   0.6425     C
H       0.5716   0.0288   0.3129     H
H       0.5716   0.4712   0.3129     H
C       0.5723   0.0451   0.4238     C
C       0.5723   0.4549   0.4238     C
O       0.5737   0.1808   0.7666     O
O       0.5737   0.3192   0.7666     O
C       0.5755    0.094   0.6849     C
C       0.5755    0.406   0.6849     C
H       0.5804   0.6067   0.4168     H
H       0.5804   0.8933   0.4168     H
C       0.5828   0.0773   0.4714     C
C       0.5828   0.4227   0.4714     C
O       0.5922   0.6595    0.081     O
O       0.5922   0.8405    0.081     O
O       0.6009   0.1541    0.928     O
O       0.6009   0.3459    0.928     O
H       0.6019   0.0595    0.614     H
H       0.6019   0.4405    0.614     H
Na      0.6039     0.75   0.2106    Na
C       0.6046   0.6107    0.061     C
C       0.6046   0.8893    0.061     C
H       0.6128   0.1253    0.684     H
H       0.6128   0.3747    0.684     H
H        0.616    0.034   0.4041     H
H        0.616    0.466   0.4041     H
H       0.6168     0.54   0.5768     H
H       0.6168     0.96   0.5768     H
Zn     0.61922     0.25  0.81365    Zn
C       0.6262   0.6144   0.4355     C
C       0.6262   0.8856   0.4355     C
C       0.6273   0.6072   0.4908     C
C       0.6273   0.8928   0.4908     C
H        0.648   0.6211   0.1859     H
H        0.648   0.8789   0.1859     H
H       0.6495   0.1736   0.5205     H
H       0.6495   0.3264   0.5205     H
C       0.6634   0.0883   0.4934     C
C       0.6634   0.4117   0.4934     C
C       0.6654   0.1617   0.9054     C
C       0.6654   0.3383   0.9054     C
H       0.6706   0.5142   0.0108     H
H       0.6706   0.9858   0.0108     H
O       0.6754   0.1827   0.8597     O
O       0.6754   0.3173   0.8597     O
H       0.6837   0.5183   0.1483     H
H       0.6837   0.9817   0.1483     H
C        0.685   0.1412   0.5181     C
C        0.685   0.3588   0.5181     C
H       0.6856   0.0308   0.1939     H
H       0.6856   0.4692   0.1939     H
C       0.6861   0.6028   0.0358     C
C       0.6861   0.8972   0.0358     C
H       0.6873   0.1399   0.0077     H
H       0.6873   0.3601   0.0077     H
H       0.6904    0.638   0.3723     H
H       0.6904    0.862   0.3723     H
C       0.6908   0.6201    0.209     C
C       0.6908   0.8799    0.209     C
C       0.6927   0.6327   0.4088     C
C       0.6927   0.8673   0.4088     C
C       0.6989   0.6182   0.5163     C
C       0.6989   0.8818   0.5163     C
H       0.7011   0.6142   0.5529     H
H       0.7011   0.8858   0.5529     H
H        0.702   0.0034    0.756     H
H        0.702   0.4966    0.756     H
C       0.7058    0.547   0.0117     C
C       0.7058    0.953   0.0117     C
H       0.7072   0.0059   0.4706     H
H       0.7072   0.4941   0.4706     H
O        0.709    0.666    0.224     O
O        0.709    0.834    0.224     O
C        0.713    0.503    0.178     C
C        0.713    0.997    0.178     C
Na      0.7152     0.25   0.7651    Na
H       0.7163   0.0678   0.7827     H
H       0.7163   0.4322   0.7827     H
C       0.7197   0.0417   0.4891     C
C       0.7197   0.4583   0.4891     C
H       0.7202   0.5159   0.2871     H
H       0.7202   0.9841   0.2871     H
N       0.7246    0.555   0.2186     N
N       0.7246    0.945   0.2186     N
H       0.7265   0.6844   0.0584     H
H       0.7265   0.8156   0.0584     H
C       0.7342   0.1347   0.9897     C
C       0.7342   0.3653   0.9897     C
H       0.7366   0.5112   0.6657     H
H       0.7366   0.9888   0.6657     H
C       0.7381   0.1435   0.9343     C
C       0.7381   0.3565   0.9343     C
C       0.7393   0.6483   0.0405     C
C       0.7393   0.8517   0.0405     C
C       0.7407    0.034   0.7646     C
C       0.7407    0.466   0.7646     C
C       0.7593    0.534   0.2646     C
C       0.7593    0.966   0.2646     C
C       0.7607   0.1483   0.5405     C
C       0.7607   0.3517   0.5405     C
C       0.7619   0.6435   0.4343     C
C       0.7619   0.8565   0.4343     C
H       0.7634   0.0112   0.1657     H
H       0.7634   0.4888   0.1657     H
C       0.7658   0.6347   0.4897     C
C       0.7658   0.8653   0.4897     C
H       0.7735   0.1844   0.5584     H
H       0.7735   0.3156   0.5584     H
N       0.7754    0.055   0.7186     N
N       0.7754    0.445   0.7186     N
H       0.7798   0.0159   0.7871     H
H       0.7798   0.4841   0.7871     H
C       0.7803   0.5417   0.9891     C
C       0.7803   0.9583   0.9891     C
H       0.7837   0.5678   0.2827     H
H       0.7837   0.9322   0.2827     H
Na      0.7848     0.75   0.2651    Na
C        0.787    0.003    0.678     C
C        0.787    0.497    0.678     C
O        0.791    0.166    0.724     O
O        0.791    0.334    0.724     O
H       0.7928   0.5059   0.9706     H
H       0.7928   0.9941   0.9706     H
C       0.7942    0.047   0.5117     C
C       0.7942    0.453   0.5117     C
H        0.798   0.5034    0.256     H
H        0.798   0.9966    0.256     H
H       0.7989   0.1142   0.0529     H
H       0.7989   0.3858   0.0529     H
C       0.8011   0.1182   0.0163     C
C       0.8011   0.3818   0.0163     C
C       0.8073   0.1327   0.9088     C
C       0.8073   0.3673   0.9088     C
C       0.8092   0.1201    0.709     C
C       0.8092   0.3799    0.709     C
H       0.8096    0.138   0.8723     H
H       0.8096    0.362   0.8723     H
H       0.8127   0.6399   0.5077     H
H       0.8127   0.8601   0.5077     H
C       0.8139   0.1028   0.5358     C
C       0.8139   0.3972   0.5358     C
H       0.8144   0.5308   0.6939     H
H       0.8144   0.9692   0.6939     H
C        0.815   0.6412   0.0181     C
C        0.815   0.8588   0.0181     C
H       0.8163   0.0183   0.6483     H
H       0.8163   0.4817   0.6483     H
O       0.8246   0.6827   0.3597     O
O       0.8246   0.8173   0.3597     O
H       0.8294   0.0142   0.5108     H
H       0.8294   0.4858   0.5108     H
C       0.8346   0.6617   0.4054     C
C       0.8346   0.8383   0.4054     C
C       0.8366   0.5883   0.9934     C
C       0.8366   0.9117   0.9934     C
H       0.8505   0.6736   0.0205     H
H       0.8505   0.8264   0.0205     H
H        0.852   0.1211   0.6859     H
H        0.852   0.3789   0.6859     H
C       0.8727   0.1072   0.9908     C
C       0.8727   0.3928   0.9908     C
C       0.8738   0.1144   0.9355     C
C       0.8738   0.3856   0.9355     C
Zn     0.88078     0.75  0.31365    Zn
H       0.8832     0.04   0.0768     H
H       0.8832     0.46   0.0768     H
H        0.884    0.534   0.9041     H
H        0.884    0.966   0.9041     H
H       0.8872   0.6253    0.184     H
H       0.8872   0.8747    0.184     H
C       0.8954   0.1107    0.561     C
C       0.8954   0.3893    0.561     C
Na      0.8961     0.25   0.7106    Na
H       0.8981   0.5595    0.114     H
H       0.8981   0.9405    0.114     H
O       0.8991   0.6541    0.428     O
O       0.8991   0.8459    0.428     O
O       0.9078   0.1595    0.581     O
O       0.9078   0.3405    0.581     O
C       0.9172   0.5773   0.9714     C
C       0.9172   0.9227   0.9714     C
H       0.9196   0.1067   0.9168     H
H       0.9196   0.3933   0.9168     H
C       0.9245    0.594   0.1849     C
C       0.9245    0.906   0.1849     C
O       0.9263   0.6808   0.2666     O
O       0.9263   0.8192   0.2666     O
C       0.9277   0.5451   0.9238     C
C       0.9277   0.9549   0.9238     C
H       0.9284   0.5288   0.8129     H
H       0.9284   0.9712   0.8129     H
C        0.932   0.5553   0.1425     C
C        0.932   0.9447   0.1425     C
C       0.9334   0.0499   0.0654     C
C       0.9334   0.4501   0.0654     C
H       0.9389   0.0377   0.7418     H
H       0.9389   0.4623   0.7418     H
O       0.9412   0.0657   0.5598     O
O       0.9412   0.4343   0.5598     O
C       0.9431   0.0844     0.02     C
C       0.9431   0.4156     0.02     C
C       0.9627   0.6314   0.2754     C
C       0.9627   0.8686   0.2754     C
C       0.9648    0.003   0.8137     C
C       0.9648    0.497   0.8137     C
C       0.9714   0.5875   0.2292     C
C       0.9714   0.9125   0.2292     C
C        0.972   0.0421   0.7707     C
C        0.972   0.4579   0.7707     C
H        0.976   0.6222   0.0281     H
H        0.976   0.8778   0.0281     H
C       0.9822   0.5983   0.9978     C
C       0.9822   0.9017   0.9978     C
O       0.9853     0.75   0.3559     O
C       0.9879   0.5112   0.1413     C
C       0.9879   0.9888   0.1413     C
Zn     0.99284  0.66538  0.38424    Zn
Zn     0.99284  0.83462  0.38424    Zn
O       0.9946   0.6157    0.319     O
O       0.9946   0.8843    0.319     O
C       0.9986   0.0295   0.0945     C
C       0.9986   0.4705   0.0945     C
