data_I
_chemical_name_common  '/home/zhangsd/repos/MofS-CGCNN/ML/data/TSD/clean_cifs/HUZYAE_clean'
_cell_length_a 39.13320
_cell_length_b 27.45030
_cell_length_c 27.34970
_cell_angle_alpha 90.00000
_cell_angle_beta  134.02200
_cell_angle_gamma 90.00000
_space_group_name_H-M_alt      'P 1'


loop_
_space_group_symop_operation_xyz
  'x, y, z' 

loop_
_atom_site_label
_atom_site_fract_x
_atom_site_fract_y
_atom_site_fract_z
_atom_site_type_symbol
C       0.0079   0.0911   0.8371     C
C       0.0079   0.9089   0.3371     C
H       0.0085   0.1526   0.6989     H
H       0.0085   0.8474   0.1989     H
H       0.0092   0.0655   0.6629     H
H       0.0092   0.9345   0.1629     H
C       0.0201   0.1194   0.7089     C
C       0.0201   0.8806   0.2089     C
H        0.021   0.1294    0.915     H
H        0.021   0.8706    0.415     H
H       0.0237   0.3844   0.1774     H
H       0.0237   0.6156   0.6774     H
N      0.02386  0.24327   0.1688     N
N      0.02386  0.75673   0.6688     N
H       0.0245   0.4529   0.5086     H
H       0.0245   0.5471   0.0086     H
H       0.0246   0.3856   0.4573     H
H       0.0246   0.6144   0.9573     H
H        0.027   0.0762   0.8307     H
H        0.027   0.3297   0.2452     H
H        0.027   0.6703   0.7452     H
H        0.027   0.9238   0.3307     H
H       0.0309   0.2034   0.2358     H
H       0.0309   0.7966   0.7358     H
H       0.0322   0.1089   0.7524     H
H       0.0322   0.8911   0.2524     H
H       0.0333   0.2835   0.1213     H
H       0.0333   0.7165   0.6213     H
H        0.036   0.1641   0.5215     H
H        0.036   0.8359   0.0215     H
H       0.0363   0.0478   0.2527     H
H       0.0363   0.9522   0.7527     H
H       0.0365   0.1097    0.587     H
H       0.0365   0.8903    0.087     H
H       0.0368   0.1117   0.3088     H
H       0.0368   0.8883   0.8088     H
C       0.0424   0.1202     0.91     C
C       0.0424   0.8798     0.41     C
C       0.0478   0.2193   0.2281     C
C       0.0478   0.7807   0.7281     C
Zn     0.04852   0.2477  0.40135    Zn
Zn     0.04852   0.7523  0.90135    Zn
C      0.04945   0.2662   0.1614     C
C      0.04945   0.7338   0.6614     C
H       0.0498   0.1504   0.9005     H
H       0.0498   0.8496   0.4005     H
C       0.0528   0.3779   0.2211     C
C       0.0528   0.6221   0.7211     C
C       0.0529   0.3961   0.4994     C
C       0.0529   0.4365   0.5311     C
C       0.0529   0.5635   0.0311     C
C       0.0529   0.6039   0.9994     C
C      0.05464  0.34494    0.262     C
C      0.05464  0.65506    0.762     C
O       0.0552   0.1102   0.7008     O
O       0.0552   0.8898   0.2008     O
O      0.05563  0.31213   0.4458     O
O      0.05563  0.68787   0.9458     O
H       0.0598   0.0334   0.7585     H
H       0.0598   0.9666   0.2585     H
O      0.06082  0.28436  0.34999     O
O      0.06082  0.71564  0.84999     O
O      0.06369  0.18449   0.3803     O
O      0.06369  0.81551   0.8803     O
C       0.0646   0.0635   0.2885     C
C       0.0646   0.9365   0.7885     C
C       0.0647   0.1516   0.5611     C
C       0.0647   0.8484   0.0611     C
C        0.065   0.1185   0.6006     C
C        0.065   0.8815   0.1006     C
C      0.06535   0.1023   0.3228     C
C      0.06535   0.8977   0.8228     C
O       0.0658  0.21261  0.48213     O
O       0.0658  0.78739  0.98213     O
H       0.0741    0.396   0.1314     H
H       0.0741    0.604   0.6314     H
O       0.0775   0.4522   0.0596     O
O       0.0775   0.5478   0.5596     O
C       0.0804    0.031   0.7525     C
C       0.0804    0.969   0.2525     C
C       0.0807   0.1098     0.97     C
C       0.0807   0.8902     0.47     C
C       0.0816   0.4626   0.1085     C
C       0.0816   0.5374   0.6085     C
C       0.0818   0.4279   0.1473     C
C       0.0818   0.5721   0.6473     C
C       0.0837   0.0679   0.7205     C
C       0.0837   0.9321   0.2205     C
H       0.0892    0.076   0.9729     H
H       0.0892    0.924   0.4729     H
C       0.0919   0.4366   0.2036     C
C       0.0919   0.5634   0.7036     C
C       0.0921   0.4521   0.5919     C
C       0.0921   0.5479   0.0919     C
C       0.0924   0.4004   0.2439     C
C       0.0924   0.5996   0.7439     C
C       0.0937   0.4921   0.6319     C
C       0.0937   0.5079   0.1319     C
C      0.09416  0.37244   0.5304     C
C      0.09416  0.62756   0.0304     C
C      0.09436  0.32851   0.4978     C
C      0.09436  0.67149   0.9978     C
C      0.09655   0.2179    0.277     C
C      0.09655   0.7821    0.777     C
C      0.09785   0.2664   0.2078     C
C      0.09785   0.7336   0.7078     C
C      0.09793  0.33493   0.3279     C
C      0.09793  0.66507   0.8279     C
C      0.09906  0.30226   0.3722     C
C      0.09906  0.69774   0.8722     C
C       0.1042  0.17019   0.4056     C
C       0.1042  0.82981   0.9056     C
C      0.10493  0.12656   0.3747     C
C      0.10493  0.87344   0.8747     C
C      0.10534   0.1654   0.5795     C
C      0.10534   0.8346   0.0795     C
C      0.10553  0.19911   0.5365     C
C      0.10553  0.80089   0.0365     C
H       0.1065   0.1303   0.9841     H
H       0.1065   0.8697   0.4841     H
C       0.1071   0.0989   0.6594     C
C       0.1071   0.9011   0.1594     C
C       0.1076  0.04906   0.3098     C
C       0.1076  0.95094   0.8098     C
C       0.1093    0.009   0.2746     C
C       0.1093    0.991   0.7746     C
C       0.1103   0.0626   0.7025     C
C       0.1103   0.9374   0.2025     C
H       0.1122   0.2005    0.317     H
H       0.1122   0.7995    0.817     H
H       0.1138    0.283    0.199     H
H       0.1138    0.717    0.699     H
C      0.12243  0.24192   0.2675     C
C      0.12243  0.75808   0.7675     C
C       0.1234   0.4794   0.2421     C
C       0.1234   0.5206   0.7421     C
C       0.1246   0.4804    0.708     C
C       0.1246   0.5196    0.208     C
C       0.1305   0.0181   0.2511     C
C       0.1305   0.9819   0.7511     C
C       0.1337   0.0199   0.7184     C
C       0.1337   0.9801   0.2184     C
O      0.13479  0.31047  0.52865     O
O      0.13479  0.68953  0.02865     O
C       0.1348   0.4272   0.6242     C
C       0.1348   0.5728   0.1242     C
C       0.1361   0.3871    0.594     C
C       0.1361   0.6129    0.094     C
C       0.1375   0.3878   0.3104     C
C       0.1375   0.6122   0.8104     C
O       0.1381   0.4946   0.3017     O
O       0.1381   0.5054   0.8017     O
C       0.1386   0.3557   0.3518     C
C       0.1386   0.6443   0.8518     C
O      0.13942  0.29353  0.43061     O
O      0.13942  0.70647  0.93061     O
H       0.1416   0.4517   0.7293     H
H       0.1416   0.5483   0.2293     H
O      0.14242  0.19183  0.45135     O
O      0.14242  0.80817  0.95135     O
O      0.14412  0.20932  0.55569     O
O      0.14412  0.79068  0.05569     O
C       0.1484   0.0725   0.3636     C
C       0.1484   0.9275   0.8636     C
C       0.1487    0.149   0.6424     C
C       0.1487    0.851   0.1424     C
C      0.14918  0.11037   0.3979     C
C      0.14918  0.88963   0.8979     C
C       0.1498    0.115     0.68     C
C       0.1498    0.885     0.18     C
H       0.1517   0.0153   0.7082     H
H       0.1517   0.9847   0.2082     H
Zn     0.15276  0.25248  0.50449    Zn
Zn     0.15276  0.74752  0.00449    Zn
O       0.1568   0.0584   0.2686     O
O       0.1568   0.9416   0.7686     O
H       0.1628   0.4377   0.6666     H
H       0.1628   0.5623   0.1666     H
H       0.1645   0.0629   0.2013     H
H       0.1645   0.3708   0.6161     H
H       0.1645   0.6292   0.1161     H
H       0.1645   0.9371   0.7013     H
H       0.1655   0.4008   0.3258     H
H       0.1655   0.5992   0.8258     H
H       0.1673   0.3487   0.3957     H
H       0.1673   0.6513   0.8957     H
C      0.17577   0.2434   0.3218     C
C      0.17577   0.7566   0.8218     C
H        0.176   0.1387   0.2533     H
H        0.176   0.8613   0.7533     H
H       0.1769   0.0627   0.3779     H
H       0.1769   0.9373   0.8779     H
H       0.1771   0.1615   0.6587     H
H       0.1771   0.8385   0.1587     H
H       0.1777    0.125   0.4352     H
H       0.1777    0.875   0.9352     H
H       0.1787   0.1024   0.7193     H
H       0.1787   0.8976   0.2193     H
C       0.1847   0.0671   0.2498     C
C       0.1847   0.9329   0.7498     C
H       0.1855   0.2098    0.394     H
H       0.1855   0.7902    0.894     H
H       0.1862   0.2621    0.267     H
H       0.1862   0.7379    0.767     H
H       0.1903   0.2066   0.1499     H
H       0.1903   0.7934   0.6499     H
H       0.1958   0.1356     0.19     H
H       0.1958   0.8644     0.69     H
C       0.2011   0.2238   0.3831     C
C       0.2011   0.7762   0.8831     C
C       0.2012   0.2549   0.3114     C
C       0.2012   0.7451   0.8114     C
C       0.2018   0.1172   0.2698     C
C       0.2018   0.8828   0.7698     C
H       0.2072    0.252   0.1969     H
H       0.2072    0.748   0.6969     H
H       0.2112   0.0446   0.2738     H
H       0.2112   0.9554   0.7738     H
C        0.215   0.2304   0.1782     C
C        0.215   0.7696   0.6782     C
H       0.2179   0.3272   0.6905     H
H       0.2179   0.6728   0.1905     H
H       0.2181   0.2488   0.1516     H
H       0.2181   0.7512   0.6516     H
C       0.2219   0.1323   0.2389     C
C       0.2219   0.8677   0.7389     C
H       0.2251   0.2645   0.7512     H
H       0.2251   0.7355   0.2512     H
N      0.22511  0.25578    0.577     N
N      0.22511  0.74422    0.077     N
H       0.2265   0.1197    0.319     H
H       0.2265   0.8803    0.819     H
H       0.2331     0.23   0.6484     H
H       0.2331     0.77   0.1484     H
H       0.2362   0.1998   0.2812     H
H       0.2362   0.8002   0.7812     H
H       0.2421   0.3098   0.7981     H
H       0.2421   0.6902   0.2981     H
H       0.2427   0.1067   0.2476     H
H       0.2427   0.8933   0.7476     H
C       0.2491   0.2424   0.6374     C
C       0.2491   0.7576   0.1374     C
C       0.2495   0.1801   0.2683     C
C       0.2495   0.8199   0.7683     C
C       0.2499   0.2761   0.5692     C
C       0.2499   0.7239   0.0692     C
C         0.25   0.2112   0.2213     C
C         0.25   0.2888   0.7787     C
C         0.25   0.7112   0.2787     C
C         0.25   0.7888   0.7213     C
C       0.2501   0.2239   0.4308     C
C       0.2501   0.7761   0.9308     C
C       0.2505   0.3199   0.7317     C
C       0.2505   0.6801   0.2317     C
C       0.2509   0.2576   0.3626     C
C       0.2509   0.7424   0.8626     C
H       0.2573   0.3933   0.7524     H
H       0.2573   0.6067   0.2524     H
H       0.2579   0.1902   0.2019     H
H       0.2579   0.8098   0.7019     H
H       0.2638   0.3002   0.7188     H
H       0.2638   0.6998   0.2188     H
H       0.2669     0.27   0.3516     H
H       0.2669     0.73   0.8516     H
H       0.2735   0.3803    0.681     H
H       0.2735   0.6197    0.181     H
N      0.27489  0.24422    0.423     N
N      0.27489  0.75578    0.923     N
H       0.2749   0.2355   0.2488     H
H       0.2749   0.7645   0.7488     H
C       0.2781   0.3677   0.7611     C
C       0.2781   0.6323   0.2611     C
H       0.2819   0.2512   0.8484     H
H       0.2819   0.7488   0.3484     H
H       0.2821   0.1728   0.3095     H
H       0.2821   0.8272   0.8095     H
C        0.285   0.2696   0.8218     C
C        0.285   0.7304   0.3218     C
H       0.2888   0.4554   0.7262     H
H       0.2888   0.5446   0.2262     H
H       0.2928    0.248   0.8031     H
H       0.2928    0.752   0.3031     H
C       0.2982   0.3828   0.7302     C
C       0.2982   0.6172   0.2302     C
C       0.2988   0.2451   0.6886     C
C       0.2988   0.7549   0.1886     C
C       0.2989   0.2762   0.6169     C
C       0.2989   0.7238   0.1169     C
H       0.3042   0.3644     0.81     H
H       0.3042   0.6356     0.31     H
H       0.3097   0.2934   0.8501     H
H       0.3097   0.7066   0.3501     H
H       0.3138   0.2379    0.733     H
H       0.3138   0.7621    0.233     H
H       0.3145   0.2902    0.606     H
H       0.3145   0.7098    0.106     H
C       0.3153   0.4329   0.7502     C
C       0.3153   0.5671   0.2502     C
H       0.3213   0.3976   0.2807     H
H       0.3213   0.6024   0.7807     H
H       0.3223    0.375   0.5648     H
H       0.3223    0.625   0.0648     H
H       0.3229   0.3385   0.3413     H
H       0.3229   0.6615   0.8413     H
H       0.3231   0.4373   0.6221     H
H       0.3231   0.5627   0.1221     H
H        0.324   0.3613   0.7467     H
H        0.324   0.6387   0.2467     H
C      0.32423   0.2566   0.6782     C
C      0.32423   0.7434   0.1782     C
H       0.3327   0.1513   0.6043     H
H       0.3327   0.8487   0.1043     H
H       0.3345   0.0992   0.6742     H
H       0.3345   0.9008   0.1742     H
H       0.3355   0.1292   0.3839     H
H       0.3355   0.4371   0.7987     H
H       0.3355   0.5629   0.2987     H
H       0.3355   0.8708   0.8839     H
H       0.3372   0.0623   0.3334     H
H       0.3372   0.9377   0.8334     H
O       0.3432   0.4416   0.7314     O
O       0.3432   0.5584   0.2314     O
Zn     0.34724  0.24752  0.49551    Zn
Zn     0.34724  0.75248  0.99551    Zn
H       0.3483   0.4847   0.2918     H
H       0.3483   0.5153   0.7918     H
C       0.3502    0.385     0.32     C
C       0.3502    0.615     0.82     C
C      0.35082  0.38963   0.6021     C
C      0.35082  0.61037   0.1021     C
C       0.3513    0.351   0.3576     C
C       0.3513    0.649   0.8576     C
C       0.3516   0.4275   0.6364     C
C       0.3516   0.5725   0.1364     C
O      0.35588  0.29068  0.44431     O
O      0.35588  0.70932  0.94431     O
O      0.35758  0.30817  0.54865     O
O      0.35758  0.69183  0.04865     O
H       0.3584   0.0483   0.2707     H
H       0.3584   0.9517   0.7707     H
O      0.36058  0.20647  0.56939     O
O      0.36058  0.79353  0.06939     O
C       0.3614   0.1443   0.6482     C
C       0.3614   0.8557   0.1482     C
O       0.3619   0.0054   0.6983     O
O       0.3619   0.9946   0.1983     O
C       0.3625   0.1122   0.6896     C
C       0.3625   0.8878   0.1896     C
C       0.3639   0.1129    0.406     C
C       0.3639   0.8871    0.906     C
C       0.3652   0.0728   0.3758     C
C       0.3652   0.9272   0.8758     C
O      0.36521  0.18953  0.47135     O
O      0.36521  0.81047  0.97135     O
C       0.3663   0.4801   0.2816     C
C       0.3663   0.5199   0.7816     C
C       0.3695   0.4819   0.7489     C
C       0.3695   0.5181   0.2489     C
C       0.3754   0.0196    0.292     C
C       0.3754   0.9804    0.792     C
C       0.3766   0.0206   0.7579     C
C       0.3766   0.9794   0.2579     C
C      0.37757  0.25808   0.7325     C
C      0.37757  0.74192   0.2325     C
H       0.3862    0.217    0.801     H
H       0.3862    0.783    0.301     H
H       0.3878   0.2995    0.683     H
H       0.3878   0.7005    0.183     H
C       0.3897   0.4374   0.2975     C
C       0.3897   0.5626   0.7975     C
C       0.3907    0.491   0.7254     C
C       0.3907    0.509   0.2254     C
C       0.3924  0.45094   0.6902     C
C       0.3924  0.54906   0.1902     C
C       0.3929   0.4011   0.3406     C
C       0.3929   0.5989   0.8406     C
H       0.3935   0.3697   0.0159     H
H       0.3935   0.6303   0.5159     H
C      0.39447  0.30089   0.4635     C
C      0.39447  0.69911   0.9635     C
C      0.39466   0.3346   0.4205     C
C      0.39466   0.6654   0.9205     C
C      0.39507  0.37344   0.6253     C
C      0.39507  0.62656   0.1253     C
C       0.3958  0.32981   0.5944     C
C       0.3958  0.67019   0.0944     C
C      0.40094  0.19774   0.6278     C
C      0.40094  0.80226   0.1278     C
C      0.40207  0.16507   0.6721     C
C      0.40207  0.83493   0.1721     C
C      0.40215   0.2336   0.7922     C
C      0.40215   0.7664   0.2922     C
C      0.40345   0.2821    0.723     C
C      0.40345   0.7179    0.223     C
C      0.40564  0.17149   0.5022     C
C      0.40564  0.82851   0.0022     C
C      0.40584  0.12756   0.4696     C
C      0.40584  0.87244   0.9696     C
C       0.4063   0.0079   0.3681     C
C       0.4063   0.9921   0.8681     C
C       0.4076   0.0996   0.7561     C
C       0.4076   0.9004   0.2561     C
C       0.4079   0.0479   0.4081     C
C       0.4079   0.9521   0.9081     C
C       0.4081   0.0634   0.7964     C
C       0.4081   0.9366   0.2964     C
H       0.4108    0.424   0.0271     H
H       0.4108    0.576   0.5271     H
C       0.4163   0.4321   0.2795     C
C       0.4163   0.5679   0.7795     C
C       0.4182   0.0721   0.8527     C
C       0.4182   0.9279   0.3527     C
C       0.4184   0.0374   0.8915     C
C       0.4184   0.9626   0.3915     C
C       0.4193   0.3902     0.03     C
C       0.4193   0.6098     0.53     C
C       0.4196    0.469   0.2475     C
C       0.4196    0.531   0.7475     C
O       0.4225   0.0478   0.9404     O
O       0.4225   0.9522   0.4404     O
H       0.4259    0.104   0.8686     H
H       0.4259    0.896   0.3686     H
O       0.4342  0.28739  0.51787     O
O       0.4342  0.71261  0.01787     O
C      0.43465   0.3977   0.6772     C
C      0.43465   0.6023   0.1772     C
C        0.435   0.3815   0.3994     C
C        0.435   0.6185   0.8994     C
C       0.4353   0.3484   0.4389     C
C       0.4353   0.6516   0.9389     C
C       0.4354   0.4365   0.7115     C
C       0.4354   0.5635   0.2115     C
O      0.43631  0.31551   0.6197     O
O      0.43631  0.68449   0.1197     O
O      0.43918  0.21564  0.65001     O
O      0.43918  0.78436  0.15001     O
H       0.4402   0.4666   0.2415     H
H       0.4402   0.5334   0.7415     H
O      0.44437  0.18787   0.5542     O
O      0.44437  0.81213   0.0542     O
O       0.4448   0.3898   0.2992     O
O       0.4448   0.6102   0.7992     O
C      0.44536  0.15506    0.738     C
C      0.44536  0.84494    0.238     C
C       0.4471   0.0635   0.4689     C
C       0.4471   0.1039   0.5006     C
C       0.4471   0.8961   0.0006     C
C       0.4471   0.9365   0.9689     C
C       0.4472   0.1221   0.7789     C
C       0.4472   0.8779   0.2789     C
H       0.4502   0.3496   0.0995     H
H       0.4502   0.6504   0.5995     H
C      0.45055   0.2338   0.8386     C
C      0.45055   0.7662   0.3386     C
Zn     0.45148   0.2523  0.59865    Zn
Zn     0.45148   0.7477  0.09865    Zn
C       0.4522   0.2807   0.7719     C
C       0.4522   0.7193   0.2719     C
C       0.4576   0.3798     0.09     C
C       0.4576   0.6202     0.59     C
H       0.4632   0.3883   0.6912     H
H       0.4632   0.6117   0.1912     H
H       0.4635   0.3903    0.413     H
H       0.4635   0.6097    0.913     H
H       0.4637   0.4522   0.7473     H
H       0.4637   0.5478   0.2473     H
H        0.464   0.3359   0.4785     H
H        0.464   0.6641   0.9785     H
H       0.4667   0.2165   0.8787     H
H       0.4667   0.7835   0.3787     H
H       0.4678   0.3911   0.2476     H
H       0.4678   0.6089   0.7476     H
H       0.4691   0.2966   0.7642     H
H       0.4691   0.7034   0.2642     H
H        0.473   0.1703   0.7548     H
H        0.473   0.4238   0.1693     H
H        0.473   0.5762   0.6693     H
H        0.473   0.8297   0.2548     H
H       0.4754   0.1144   0.5427     H
H       0.4754   0.8856   0.0427     H
H       0.4755   0.0471   0.4914     H
H       0.4755   0.9529   0.9914     H
N      0.47614  0.25673   0.8312     N
N      0.47614  0.74327   0.3312     N
H       0.4763   0.1156   0.8226     H
H       0.4763   0.8844   0.3226     H
H        0.479   0.3706    0.085     H
H        0.479   0.6294    0.585     H
C       0.4799   0.3806   0.2911     C
C       0.4799   0.6194   0.7911     C
H       0.4908   0.4345   0.3371     H
H       0.4908   0.5655   0.8371     H
H       0.4915   0.3474   0.3011     H
H       0.4915   0.6526   0.8011     H
C       0.4921   0.4089   0.1629     C
C       0.4921   0.5911   0.6629     C
C       0.5079   0.4089   0.3371     C
C       0.5079   0.5911   0.8371     C
H       0.5085   0.3474   0.1989     H
H       0.5085   0.6526   0.6989     H
H       0.5092   0.4345   0.1629     H
H       0.5092   0.5655   0.6629     H
C       0.5201   0.3806   0.2089     C
C       0.5201   0.6194   0.7089     C
H        0.521   0.3706    0.415     H
H        0.521   0.6294    0.915     H
H       0.5237   0.1156   0.6774     H
H       0.5237   0.8844   0.1774     H
N      0.52386  0.25673   0.6688     N
N      0.52386  0.74327   0.1688     N
H       0.5245   0.0471   0.0086     H
H       0.5245   0.9529   0.5086     H
H       0.5246   0.1144   0.9573     H
H       0.5246   0.8856   0.4573     H
H        0.527   0.1703   0.7452     H
H        0.527   0.4238   0.3307     H
H        0.527   0.5762   0.8307     H
H        0.527   0.8297   0.2452     H
H       0.5309   0.2966   0.7358     H
H       0.5309   0.7034   0.2358     H
H       0.5322   0.3911   0.2524     H
H       0.5322   0.6089   0.7524     H
H       0.5333   0.2165   0.6213     H
H       0.5333   0.7835   0.1213     H
H        0.536   0.3359   0.0215     H
H        0.536   0.6641   0.5215     H
H       0.5363   0.4522   0.7527     H
H       0.5363   0.5478   0.2527     H
H       0.5365   0.3903    0.087     H
H       0.5365   0.6097    0.587     H
H       0.5368   0.3883   0.8088     H
H       0.5368   0.6117   0.3088     H
C       0.5424   0.3798     0.41     C
C       0.5424   0.6202     0.91     C
C       0.5478   0.2807   0.7281     C
C       0.5478   0.7193   0.2281     C
Zn     0.54852   0.2523  0.90135    Zn
Zn     0.54852   0.7477  0.40135    Zn
C      0.54945   0.2338   0.6614     C
C      0.54945   0.7662   0.1614     C
H       0.5498   0.3496   0.4005     H
H       0.5498   0.6504   0.9005     H
C       0.5528   0.1221   0.7211     C
C       0.5528   0.8779   0.2211     C
C       0.5529   0.0635   0.0311     C
C       0.5529   0.1039   0.9994     C
C       0.5529   0.8961   0.4994     C
C       0.5529   0.9365   0.5311     C
C      0.55464  0.15506    0.762     C
C      0.55464  0.84494    0.262     C
O       0.5552   0.3898   0.2008     O
O       0.5552   0.6102   0.7008     O
O      0.55563  0.18787   0.9458     O
O      0.55563  0.81213   0.4458     O
H       0.5598   0.4666   0.2585     H
H       0.5598   0.5334   0.7585     H
O      0.56082  0.21564  0.84999     O
O      0.56082  0.78436  0.34999     O
O      0.56369  0.31551   0.8803     O
O      0.56369  0.68449   0.3803     O
C       0.5646   0.4365   0.7885     C
C       0.5646   0.5635   0.2885     C
C       0.5647   0.3484   0.0611     C
C       0.5647   0.6516   0.5611     C
C        0.565   0.3815   0.1006     C
C        0.565   0.6185   0.6006     C
C      0.56535   0.3977   0.8228     C
C      0.56535   0.6023   0.3228     C
O       0.5658  0.28739  0.98213     O
O       0.5658  0.71261  0.48213     O
H       0.5741    0.104   0.6314     H
H       0.5741    0.896   0.1314     H
O       0.5775   0.0478   0.5596     O
O       0.5775   0.9522   0.0596     O
C       0.5804    0.469   0.2525     C
C       0.5804    0.531   0.7525     C
C       0.5807   0.3902     0.47     C
C       0.5807   0.6098     0.97     C
C       0.5816   0.0374   0.6085     C
C       0.5816   0.9626   0.1085     C
C       0.5818   0.0721   0.6473     C
C       0.5818   0.9279   0.1473     C
C       0.5837   0.4321   0.2205     C
C       0.5837   0.5679   0.7205     C
H       0.5892    0.424   0.4729     H
H       0.5892    0.576   0.9729     H
C       0.5919   0.0634   0.7036     C
C       0.5919   0.9366   0.2036     C
C       0.5921   0.0479   0.0919     C
C       0.5921   0.9521   0.5919     C
C       0.5924   0.0996   0.7439     C
C       0.5924   0.9004   0.2439     C
C       0.5937   0.0079   0.1319     C
C       0.5937   0.9921   0.6319     C
C      0.59416  0.12756   0.0304     C
C      0.59416  0.87244   0.5304     C
C      0.59436  0.17149   0.9978     C
C      0.59436  0.82851   0.4978     C
C      0.59655   0.2821    0.777     C
C      0.59655   0.7179    0.277     C
C      0.59785   0.2336   0.7078     C
C      0.59785   0.7664   0.2078     C
C      0.59793  0.16507   0.8279     C
C      0.59793  0.83493   0.3279     C
C      0.59906  0.19774   0.8722     C
C      0.59906  0.80226   0.3722     C
C       0.6042  0.32981   0.9056     C
C       0.6042  0.67019   0.4056     C
C      0.60493  0.37344   0.8747     C
C      0.60493  0.62656   0.3747     C
C      0.60534   0.3346   0.0795     C
C      0.60534   0.6654   0.5795     C
C      0.60553  0.30089   0.0365     C
C      0.60553  0.69911   0.5365     C
H       0.6065   0.3697   0.4841     H
H       0.6065   0.6303   0.9841     H
C       0.6071   0.4011   0.1594     C
C       0.6071   0.5989   0.6594     C
C       0.6076  0.45094   0.8098     C
C       0.6076  0.54906   0.3098     C
C       0.6093    0.491   0.7746     C
C       0.6093    0.509   0.2746     C
C       0.6103   0.4374   0.2025     C
C       0.6103   0.5626   0.7025     C
H       0.6122   0.2995    0.817     H
H       0.6122   0.7005    0.317     H
H       0.6138    0.217    0.699     H
H       0.6138    0.783    0.199     H
C      0.62243  0.25808   0.7675     C
C      0.62243  0.74192   0.2675     C
C       0.6234   0.0206   0.7421     C
C       0.6234   0.9794   0.2421     C
C       0.6246   0.0196    0.208     C
C       0.6246   0.9804    0.708     C
C       0.6305   0.4819   0.7511     C
C       0.6305   0.5181   0.2511     C
C       0.6337   0.4801   0.2184     C
C       0.6337   0.5199   0.7184     C
O      0.63479  0.18953  0.02865     O
O      0.63479  0.81047  0.52865     O
C       0.6348   0.0728   0.1242     C
C       0.6348   0.9272   0.6242     C
C       0.6361   0.1129    0.094     C
C       0.6361   0.8871    0.594     C
C       0.6375   0.1122   0.8104     C
C       0.6375   0.8878   0.3104     C
O       0.6381   0.0054   0.8017     O
O       0.6381   0.9946   0.3017     O
C       0.6386   0.1443   0.8518     C
C       0.6386   0.8557   0.3518     C
O      0.63942  0.20647  0.93061     O
O      0.63942  0.79353  0.43061     O
H       0.6416   0.0483   0.2293     H
H       0.6416   0.9517   0.7293     H
O      0.64242  0.30817  0.95135     O
O      0.64242  0.69183  0.45135     O
O      0.64412  0.29068  0.05569     O
O      0.64412  0.70932  0.55569     O
C       0.6484   0.4275   0.8636     C
C       0.6484   0.5725   0.3636     C
C       0.6487    0.351   0.1424     C
C       0.6487    0.649   0.6424     C
C      0.64918  0.38963   0.8979     C
C      0.64918  0.61037   0.3979     C
C       0.6498    0.385     0.18     C
C       0.6498    0.615     0.68     C
H       0.6517   0.4847   0.2082     H
H       0.6517   0.5153   0.7082     H
Zn     0.65276  0.24752  0.00449    Zn
Zn     0.65276  0.75248  0.50449    Zn
O       0.6568   0.4416   0.7686     O
O       0.6568   0.5584   0.2686     O
H       0.6628   0.0623   0.1666     H
H       0.6628   0.9377   0.6666     H
H       0.6645   0.1292   0.1161     H
H       0.6645   0.4371   0.7013     H
H       0.6645   0.5629   0.2013     H
H       0.6645   0.8708   0.6161     H
H       0.6655   0.0992   0.8258     H
H       0.6655   0.9008   0.3258     H
H       0.6673   0.1513   0.8957     H
H       0.6673   0.8487   0.3957     H
C      0.67577   0.2566   0.8218     C
C      0.67577   0.7434   0.3218     C
H        0.676   0.3613   0.7533     H
H        0.676   0.6387   0.2533     H
H       0.6769   0.4373   0.8779     H
H       0.6769   0.5627   0.3779     H
H       0.6771   0.3385   0.1587     H
H       0.6771   0.6615   0.6587     H
H       0.6777    0.375   0.9352     H
H       0.6777    0.625   0.4352     H
H       0.6787   0.3976   0.2193     H
H       0.6787   0.6024   0.7193     H
C       0.6847   0.4329   0.7498     C
C       0.6847   0.5671   0.2498     C
H       0.6855   0.2902    0.894     H
H       0.6855   0.7098    0.394     H
H       0.6862   0.2379    0.767     H
H       0.6862   0.7621    0.267     H
H       0.6903   0.2934   0.6499     H
H       0.6903   0.7066   0.1499     H
H       0.6958   0.3644     0.69     H
H       0.6958   0.6356     0.19     H
C       0.7011   0.2762   0.8831     C
C       0.7011   0.7238   0.3831     C
C       0.7012   0.2451   0.8114     C
C       0.7012   0.7549   0.3114     C
C       0.7018   0.3828   0.7698     C
C       0.7018   0.6172   0.2698     C
H       0.7072    0.248   0.6969     H
H       0.7072    0.752   0.1969     H
H       0.7112   0.4554   0.7738     H
H       0.7112   0.5446   0.2738     H
C        0.715   0.2696   0.6782     C
C        0.715   0.7304   0.1782     C
H       0.7179   0.1728   0.1905     H
H       0.7179   0.8272   0.6905     H
H       0.7181   0.2512   0.6516     H
H       0.7181   0.7488   0.1516     H
C       0.7219   0.3677   0.7389     C
C       0.7219   0.6323   0.2389     C
H       0.7251   0.2355   0.2512     H
H       0.7251   0.7645   0.7512     H
N      0.72511  0.24422    0.077     N
N      0.72511  0.75578    0.577     N
H       0.7265   0.3803    0.819     H
H       0.7265   0.6197    0.319     H
H       0.7331     0.27   0.1484     H
H       0.7331     0.73   0.6484     H
H       0.7362   0.3002   0.7812     H
H       0.7362   0.6998   0.2812     H
H       0.7421   0.1902   0.2981     H
H       0.7421   0.8098   0.7981     H
H       0.7427   0.3933   0.7476     H
H       0.7427   0.6067   0.2476     H
C       0.7491   0.2576   0.1374     C
C       0.7491   0.7424   0.6374     C
C       0.7495   0.3199   0.7683     C
C       0.7495   0.6801   0.2683     C
C       0.7499   0.2239   0.0692     C
C       0.7499   0.7761   0.5692     C
C         0.75   0.2112   0.2787     C
C         0.75   0.2888   0.7213     C
C         0.75   0.7112   0.2213     C
C         0.75   0.7888   0.7787     C
C       0.7501   0.2761   0.9308     C
C       0.7501   0.7239   0.4308     C
C       0.7505   0.1801   0.2317     C
C       0.7505   0.8199   0.7317     C
C       0.7509   0.2424   0.8626     C
C       0.7509   0.7576   0.3626     C
H       0.7573   0.1067   0.2524     H
H       0.7573   0.8933   0.7524     H
H       0.7579   0.3098   0.7019     H
H       0.7579   0.6902   0.2019     H
H       0.7638   0.1998   0.2188     H
H       0.7638   0.8002   0.7188     H
H       0.7669     0.23   0.8516     H
H       0.7669     0.77   0.3516     H
H       0.7735   0.1197    0.181     H
H       0.7735   0.8803    0.681     H
N      0.77489  0.25578    0.923     N
N      0.77489  0.74422    0.423     N
H       0.7749   0.2645   0.7488     H
H       0.7749   0.7355   0.2488     H
C       0.7781   0.1323   0.2611     C
C       0.7781   0.8677   0.7611     C
H       0.7819   0.2488   0.3484     H
H       0.7819   0.7512   0.8484     H
H       0.7821   0.3272   0.8095     H
H       0.7821   0.6728   0.3095     H
C        0.785   0.2304   0.3218     C
C        0.785   0.7696   0.8218     C
H       0.7888   0.0446   0.2262     H
H       0.7888   0.9554   0.7262     H
H       0.7928    0.252   0.3031     H
H       0.7928    0.748   0.8031     H
C       0.7982   0.1172   0.2302     C
C       0.7982   0.8828   0.7302     C
C       0.7988   0.2549   0.1886     C
C       0.7988   0.7451   0.6886     C
C       0.7989   0.2238   0.1169     C
C       0.7989   0.7762   0.6169     C
H       0.8042   0.1356     0.31     H
H       0.8042   0.8644     0.81     H
H       0.8097   0.2066   0.3501     H
H       0.8097   0.7934   0.8501     H
H       0.8138   0.2621    0.233     H
H       0.8138   0.7379    0.733     H
H       0.8145   0.2098    0.106     H
H       0.8145   0.7902    0.606     H
C       0.8153   0.0671   0.2502     C
C       0.8153   0.9329   0.7502     C
H       0.8213   0.1024   0.7807     H
H       0.8213   0.8976   0.2807     H
H       0.8223    0.125   0.0648     H
H       0.8223    0.875   0.5648     H
H       0.8229   0.1615   0.8413     H
H       0.8229   0.8385   0.3413     H
H       0.8231   0.0627   0.1221     H
H       0.8231   0.9373   0.6221     H
H        0.824   0.1387   0.2467     H
H        0.824   0.8613   0.7467     H
C      0.82423   0.2434   0.1782     C
C      0.82423   0.7566   0.6782     C
H       0.8327   0.3487   0.1043     H
H       0.8327   0.6513   0.6043     H
H       0.8345   0.4008   0.1742     H
H       0.8345   0.5992   0.6742     H
H       0.8355   0.0629   0.2987     H
H       0.8355   0.3708   0.8839     H
H       0.8355   0.6292   0.3839     H
H       0.8355   0.9371   0.7987     H
H       0.8372   0.4377   0.8334     H
H       0.8372   0.5623   0.3334     H
O       0.8432   0.0584   0.2314     O
O       0.8432   0.9416   0.7314     O
Zn     0.84724  0.25248  0.99551    Zn
Zn     0.84724  0.74752  0.49551    Zn
H       0.8483   0.0153   0.7918     H
H       0.8483   0.9847   0.2918     H
C       0.8502    0.115     0.82     C
C       0.8502    0.885     0.32     C
C      0.85082  0.11037   0.1021     C
C      0.85082  0.88963   0.6021     C
C       0.8513    0.149   0.8576     C
C       0.8513    0.851   0.3576     C
C       0.8516   0.0725   0.1364     C
C       0.8516   0.9275   0.6364     C
O      0.85588  0.20932  0.94431     O
O      0.85588  0.79068  0.44431     O
O      0.85758  0.19183  0.04865     O
O      0.85758  0.80817  0.54865     O
H       0.8584   0.4517   0.7707     H
H       0.8584   0.5483   0.2707     H
O      0.86058  0.29353  0.06939     O
O      0.86058  0.70647  0.56939     O
C       0.8614   0.3557   0.1482     C
C       0.8614   0.6443   0.6482     C
O       0.8619   0.4946   0.1983     O
O       0.8619   0.5054   0.6983     O
C       0.8625   0.3878   0.1896     C
C       0.8625   0.6122   0.6896     C
C       0.8639   0.3871    0.906     C
C       0.8639   0.6129    0.406     C
C       0.8652   0.4272   0.8758     C
C       0.8652   0.5728   0.3758     C
O      0.86521  0.31047  0.97135     O
O      0.86521  0.68953  0.47135     O
C       0.8663   0.0199   0.7816     C
C       0.8663   0.9801   0.2816     C
C       0.8695   0.0181   0.2489     C
C       0.8695   0.9819   0.7489     C
C       0.8754   0.4804    0.792     C
C       0.8754   0.5196    0.292     C
C       0.8766   0.4794   0.2579     C
C       0.8766   0.5206   0.7579     C
C      0.87757  0.24192   0.2325     C
C      0.87757  0.75808   0.7325     C
H       0.8862    0.283    0.301     H
H       0.8862    0.717    0.801     H
H       0.8878   0.2005    0.183     H
H       0.8878   0.7995    0.683     H
C       0.8897   0.0626   0.7975     C
C       0.8897   0.9374   0.2975     C
C       0.8907    0.009   0.2254     C
C       0.8907    0.991   0.7254     C
C       0.8924  0.04906   0.1902     C
C       0.8924  0.95094   0.6902     C
C       0.8929   0.0989   0.8406     C
C       0.8929   0.9011   0.3406     C
H       0.8935   0.1303   0.5159     H
H       0.8935   0.8697   0.0159     H
C      0.89447  0.19911   0.9635     C
C      0.89447  0.80089   0.4635     C
C      0.89466   0.1654   0.9205     C
C      0.89466   0.8346   0.4205     C
C      0.89507  0.12656   0.1253     C
C      0.89507  0.87344   0.6253     C
C       0.8958  0.17019   0.0944     C
C       0.8958  0.82981   0.5944     C
C      0.90094  0.30226   0.1278     C
C      0.90094  0.69774   0.6278     C
C      0.90207  0.33493   0.1721     C
C      0.90207  0.66507   0.6721     C
C      0.90215   0.2664   0.2922     C
C      0.90215   0.7336   0.7922     C
C      0.90345   0.2179    0.223     C
C      0.90345   0.7821    0.723     C
C      0.90564  0.32851   0.0022     C
C      0.90564  0.67149   0.5022     C
C      0.90584  0.37244   0.9696     C
C      0.90584  0.62756   0.4696     C
C       0.9063   0.4921   0.8681     C
C       0.9063   0.5079   0.3681     C
C       0.9076   0.4004   0.2561     C
C       0.9076   0.5996   0.7561     C
C       0.9079   0.4521   0.9081     C
C       0.9079   0.5479   0.4081     C
C       0.9081   0.4366   0.2964     C
C       0.9081   0.5634   0.7964     C
H       0.9108    0.076   0.5271     H
H       0.9108    0.924   0.0271     H
C       0.9163   0.0679   0.7795     C
C       0.9163   0.9321   0.2795     C
C       0.9182   0.4279   0.3527     C
C       0.9182   0.5721   0.8527     C
C       0.9184   0.4626   0.3915     C
C       0.9184   0.5374   0.8915     C
C       0.9193   0.1098     0.53     C
C       0.9193   0.8902     0.03     C
C       0.9196    0.031   0.7475     C
C       0.9196    0.969   0.2475     C
O       0.9225   0.4522   0.4404     O
O       0.9225   0.5478   0.9404     O
H       0.9259    0.396   0.3686     H
H       0.9259    0.604   0.8686     H
O       0.9342  0.21261  0.01787     O
O       0.9342  0.78739  0.51787     O
C      0.93465   0.1023   0.1772     C
C      0.93465   0.8977   0.6772     C
C        0.935   0.1185   0.8994     C
C        0.935   0.8815   0.3994     C
C       0.9353   0.1516   0.9389     C
C       0.9353   0.8484   0.4389     C
C       0.9354   0.0635   0.2115     C
C       0.9354   0.9365   0.7115     C
O      0.93631  0.18449   0.1197     O
O      0.93631  0.81551   0.6197     O
O      0.93918  0.28436  0.15001     O
O      0.93918  0.71564  0.65001     O
H       0.9402   0.0334   0.7415     H
H       0.9402   0.9666   0.2415     H
O      0.94437  0.31213   0.0542     O
O      0.94437  0.68787   0.5542     O
O       0.9448   0.1102   0.7992     O
O       0.9448   0.8898   0.2992     O
C      0.94536  0.34494    0.238     C
C      0.94536  0.65506    0.738     C
C       0.9471   0.3961   0.0006     C
C       0.9471   0.4365   0.9689     C
C       0.9471   0.5635   0.4689     C
C       0.9471   0.6039   0.5006     C
C       0.9472   0.3779   0.2789     C
C       0.9472   0.6221   0.7789     C
H       0.9502   0.1504   0.5995     H
H       0.9502   0.8496   0.0995     H
C      0.95055   0.2662   0.3386     C
C      0.95055   0.7338   0.8386     C
Zn     0.95148   0.2477  0.09865    Zn
Zn     0.95148   0.7523  0.59865    Zn
C       0.9522   0.2193   0.2719     C
C       0.9522   0.7807   0.7719     C
C       0.9576   0.1202     0.59     C
C       0.9576   0.8798     0.09     C
H       0.9632   0.1117   0.1912     H
H       0.9632   0.8883   0.6912     H
H       0.9635   0.1097    0.913     H
H       0.9635   0.8903    0.413     H
H       0.9637   0.0478   0.2473     H
H       0.9637   0.9522   0.7473     H
H        0.964   0.1641   0.9785     H
H        0.964   0.8359   0.4785     H
H       0.9667   0.2835   0.3787     H
H       0.9667   0.7165   0.8787     H
H       0.9678   0.1089   0.7476     H
H       0.9678   0.8911   0.2476     H
H       0.9691   0.2034   0.2642     H
H       0.9691   0.7966   0.7642     H
H        0.973   0.0762   0.6693     H
H        0.973   0.3297   0.2548     H
H        0.973   0.6703   0.7548     H
H        0.973   0.9238   0.1693     H
H       0.9754   0.3856   0.0427     H
H       0.9754   0.6144   0.5427     H
H       0.9755   0.4529   0.9914     H
H       0.9755   0.5471   0.4914     H
N      0.97614  0.24327   0.3312     N
N      0.97614  0.75673   0.8312     N
H       0.9763   0.3844   0.3226     H
H       0.9763   0.6156   0.8226     H
H        0.979   0.1294    0.585     H
H        0.979   0.8706    0.085     H
C       0.9799   0.1194   0.7911     C
C       0.9799   0.8806   0.2911     C
H       0.9908   0.0655   0.8371     H
H       0.9908   0.9345   0.3371     H
H       0.9915   0.1526   0.8011     H
H       0.9915   0.8474   0.3011     H
C       0.9921   0.0911   0.6629     C
C       0.9921   0.9089   0.1629     C
