data_I
_chemical_name_common  '/home/zhangsd/repos/MofS-CGCNN/ML/data/TSD/clean_cifs/IBUBIT_clean'
_cell_length_a  9.47700
_cell_length_b 34.80000
_cell_length_c 25.01000
_cell_angle_alpha 90.00000
_cell_angle_beta  90.00000
_cell_angle_gamma 90.00000
_space_group_name_H-M_alt      'P 1'


loop_
_space_group_symop_operation_xyz
  'x, y, z' 

loop_
_atom_site_label
_atom_site_fract_x
_atom_site_fract_y
_atom_site_fract_z
_atom_site_type_symbol
Zn         0.0      0.0      0.0    Zn
O          0.0   0.0141   0.9156     O
C          0.0   0.0148   0.8244     C
C          0.0   0.0167   0.7278     C
O          0.0   0.0174   0.3721     O
C          0.0   0.0218   0.2784     C
C          0.0   0.0235   0.1826     C
H          0.0   0.0322   0.6975     H
C          0.0   0.0338   0.8759     C
C          0.0   0.0341   0.7776     C
C          0.0   0.0381   0.3323     C
H          0.0   0.0391   0.1524     H
C          0.0   0.0409   0.2319     C
H          0.0   0.0608   0.7789     H
H          0.0   0.0676   0.2331     H
O          0.0   0.0698    0.876     O
O          0.0   0.0745   0.3335     O
Zn         0.0  0.09144  0.40838    Zn
Zn         0.0  0.09457  0.94476    Zn
O          0.0   0.1483   0.3998     O
O          0.0    0.156   0.4833     O
C          0.0   0.1683   0.4345     C
C          0.0    0.211   0.4239     C
H          0.0   0.2159   0.3434     H
H          0.0   0.2166   0.5042     H
C          0.0   0.2296   0.3753     C
C          0.0   0.2302   0.4722     C
C          0.0   0.2698   0.4722     C
C          0.0   0.2704   0.3753     C
H          0.0   0.2834   0.5042     H
H          0.0   0.2841   0.3434     H
C          0.0    0.289   0.4239     C
C          0.0   0.3317   0.4345     C
O          0.0    0.344   0.4833     O
O          0.0   0.3517   0.3998     O
Zn         0.0  0.40543  0.94476    Zn
Zn         0.0  0.40856  0.40838    Zn
O          0.0   0.4255   0.3335     O
O          0.0   0.4302    0.876     O
H          0.0   0.4324   0.2331     H
H          0.0   0.4392   0.7789     H
C          0.0   0.4591   0.2319     C
H          0.0   0.4609   0.1524     H
C          0.0   0.4619   0.3323     C
C          0.0   0.4659   0.7776     C
C          0.0   0.4662   0.8759     C
H          0.0   0.4678   0.6975     H
C          0.0   0.4765   0.1826     C
C          0.0   0.4782   0.2784     C
O          0.0   0.4826   0.3721     O
C          0.0   0.4833   0.7278     C
C          0.0   0.4852   0.8244     C
O          0.0   0.4859   0.9156     O
Zn         0.0      0.5      0.0    Zn
O          0.0   0.5141   0.0844     O
C          0.0   0.5148   0.1756     C
C          0.0   0.5167   0.2722     C
O          0.0   0.5174   0.6279     O
C          0.0   0.5218   0.7216     C
C          0.0   0.5235   0.8174     C
H          0.0   0.5322   0.3025     H
C          0.0   0.5338   0.1241     C
C          0.0   0.5341   0.2224     C
C          0.0   0.5381   0.6677     C
H          0.0   0.5391   0.8476     H
C          0.0   0.5409   0.7681     C
H          0.0   0.5608   0.2211     H
H          0.0   0.5676   0.7669     H
O          0.0   0.5698    0.124     O
O          0.0   0.5745   0.6665     O
Zn         0.0  0.59144  0.59162    Zn
Zn         0.0  0.59457  0.05524    Zn
O          0.0   0.6483   0.6002     O
O          0.0    0.656   0.5167     O
C          0.0   0.6683   0.5655     C
C          0.0    0.711   0.5761     C
H          0.0   0.7159   0.6566     H
H          0.0   0.7166   0.4958     H
C          0.0   0.7296   0.6247     C
C          0.0   0.7302   0.5278     C
C          0.0   0.7698   0.5278     C
C          0.0   0.7704   0.6247     C
H          0.0   0.7834   0.4958     H
H          0.0   0.7841   0.6566     H
C          0.0    0.789   0.5761     C
C          0.0   0.8317   0.5655     C
O          0.0    0.844   0.5167     O
O          0.0   0.8517   0.6002     O
Zn         0.0  0.90543  0.05524    Zn
Zn         0.0  0.90856  0.59162    Zn
O          0.0   0.9255   0.6665     O
O          0.0   0.9302    0.124     O
H          0.0   0.9324   0.7669     H
H          0.0   0.9392   0.2211     H
C          0.0   0.9591   0.7681     C
H          0.0   0.9609   0.8476     H
C          0.0   0.9619   0.6677     C
C          0.0   0.9659   0.2224     C
C          0.0   0.9662   0.1241     C
H          0.0   0.9678   0.3025     H
C          0.0   0.9765   0.8174     C
C          0.0   0.9782   0.7216     C
O          0.0   0.9826   0.6279     O
C          0.0   0.9833   0.2722     C
C          0.0   0.9852   0.1756     C
O          0.0   0.9859   0.0844     O
N       0.1554  0.07709   0.9919     N
N       0.1554  0.42291   0.9919     N
N       0.1554  0.57709   0.0081     N
N       0.1554  0.92291   0.0081     N
N       0.1571  0.04151   0.0155     N
N       0.1571  0.45849   0.0155     N
N       0.1571  0.54151   0.9845     N
N       0.1571  0.95849   0.9845     N
N       0.1665  0.07513   0.4494     N
N       0.1665  0.42487   0.4494     N
N       0.1665  0.57513   0.5506     N
N       0.1665  0.92487   0.5506     N
H       0.2135   0.1212   0.4954     H
H       0.2135   0.3788   0.4954     H
H       0.2135   0.6212   0.5046     H
H       0.2135   0.8788   0.5046     H
H       0.2171   0.0213   0.4286     H
H       0.2171   0.4787   0.4286     H
H       0.2171   0.5213   0.5714     H
H       0.2171   0.9787   0.5714     H
C       0.2374   0.0961   0.4863     C
C       0.2374   0.4039   0.4863     C
C       0.2374   0.5961   0.5137     C
C       0.2374   0.9039   0.5137     C
C       0.2391   0.0421   0.4504     C
C       0.2391   0.4579   0.4504     C
C       0.2391   0.5421   0.5496     C
C       0.2391   0.9579   0.5496     C
C       0.2609   0.0421   0.0496     C
C       0.2609   0.4579   0.0496     C
C       0.2609   0.5421   0.9504     C
C       0.2609   0.9579   0.9504     C
C       0.2626   0.0961   0.0137     C
C       0.2626   0.4039   0.0137     C
C       0.2626   0.5961   0.9863     C
C       0.2626   0.9039   0.9863     C
H       0.2829   0.0213   0.0714     H
H       0.2829   0.4787   0.0714     H
H       0.2829   0.5213   0.9286     H
H       0.2829   0.9787   0.9286     H
H       0.2865   0.1212   0.0046     H
H       0.2865   0.3788   0.0046     H
H       0.2865   0.6212   0.9954     H
H       0.2865   0.8788   0.9954     H
N       0.3335  0.07513   0.0506     N
N       0.3335  0.42487   0.0506     N
N       0.3335  0.57513   0.9494     N
N       0.3335  0.92487   0.9494     N
N       0.3429  0.04151   0.4845     N
N       0.3429  0.45849   0.4845     N
N       0.3429  0.54151   0.5155     N
N       0.3429  0.95849   0.5155     N
N       0.3446  0.07709   0.5081     N
N       0.3446  0.42291   0.5081     N
N       0.3446  0.57709   0.4919     N
N       0.3446  0.92291   0.4919     N
Zn         0.5      0.0      0.5    Zn
O          0.5   0.0141   0.5844     O
C          0.5   0.0148   0.6756     C
C          0.5   0.0167   0.7722     C
O          0.5   0.0174   0.1279     O
C          0.5   0.0218   0.2216     C
C          0.5   0.0235   0.3174     C
H          0.5   0.0322   0.8025     H
C          0.5   0.0338   0.6241     C
C          0.5   0.0341   0.7224     C
C          0.5   0.0381   0.1677     C
H          0.5   0.0391   0.3476     H
C          0.5   0.0409   0.2681     C
H          0.5   0.0608   0.7211     H
H          0.5   0.0676   0.2669     H
O          0.5   0.0698    0.624     O
O          0.5   0.0745   0.1665     O
Zn         0.5  0.09144  0.09162    Zn
Zn         0.5  0.09457  0.55524    Zn
O          0.5   0.1483   0.1002     O
O          0.5    0.156   0.0167     O
C          0.5   0.1683   0.0655     C
C          0.5    0.211   0.0761     C
H          0.5   0.2159   0.1566     H
H          0.5   0.2166   0.9958     H
C          0.5   0.2296   0.1247     C
C          0.5   0.2302   0.0278     C
C          0.5   0.2698   0.0278     C
C          0.5   0.2704   0.1247     C
H          0.5   0.2834   0.9958     H
H          0.5   0.2841   0.1566     H
C          0.5    0.289   0.0761     C
C          0.5   0.3317   0.0655     C
O          0.5    0.344   0.0167     O
O          0.5   0.3517   0.1002     O
Zn         0.5  0.40543  0.55524    Zn
Zn         0.5  0.40856  0.09162    Zn
O          0.5   0.4255   0.1665     O
O          0.5   0.4302    0.624     O
H          0.5   0.4324   0.2669     H
H          0.5   0.4392   0.7211     H
C          0.5   0.4591   0.2681     C
H          0.5   0.4609   0.3476     H
C          0.5   0.4619   0.1677     C
C          0.5   0.4659   0.7224     C
C          0.5   0.4662   0.6241     C
H          0.5   0.4678   0.8025     H
C          0.5   0.4765   0.3174     C
C          0.5   0.4782   0.2216     C
O          0.5   0.4826   0.1279     O
C          0.5   0.4833   0.7722     C
C          0.5   0.4852   0.6756     C
O          0.5   0.4859   0.5844     O
Zn         0.5      0.5      0.5    Zn
O          0.5   0.5141   0.4156     O
C          0.5   0.5148   0.3244     C
C          0.5   0.5167   0.2278     C
O          0.5   0.5174   0.8721     O
C          0.5   0.5218   0.7784     C
C          0.5   0.5235   0.6826     C
H          0.5   0.5322   0.1975     H
C          0.5   0.5338   0.3759     C
C          0.5   0.5341   0.2776     C
C          0.5   0.5381   0.8323     C
H          0.5   0.5391   0.6524     H
C          0.5   0.5409   0.7319     C
H          0.5   0.5608   0.2789     H
H          0.5   0.5676   0.7331     H
O          0.5   0.5698    0.376     O
O          0.5   0.5745   0.8335     O
Zn         0.5  0.59144  0.90838    Zn
Zn         0.5  0.59457  0.44476    Zn
O          0.5   0.6483   0.8998     O
O          0.5    0.656   0.9833     O
C          0.5   0.6683   0.9345     C
C          0.5    0.711   0.9239     C
H          0.5   0.7159   0.8434     H
H          0.5   0.7166   0.0042     H
C          0.5   0.7296   0.8753     C
C          0.5   0.7302   0.9722     C
C          0.5   0.7698   0.9722     C
C          0.5   0.7704   0.8753     C
H          0.5   0.7834   0.0042     H
H          0.5   0.7841   0.8434     H
C          0.5    0.789   0.9239     C
C          0.5   0.8317   0.9345     C
O          0.5    0.844   0.9833     O
O          0.5   0.8517   0.8998     O
Zn         0.5  0.90543  0.44476    Zn
Zn         0.5  0.90856  0.90838    Zn
O          0.5   0.9255   0.8335     O
O          0.5   0.9302    0.376     O
H          0.5   0.9324   0.7331     H
H          0.5   0.9392   0.2789     H
C          0.5   0.9591   0.7319     C
H          0.5   0.9609   0.6524     H
C          0.5   0.9619   0.8323     C
C          0.5   0.9659   0.2776     C
C          0.5   0.9662   0.3759     C
H          0.5   0.9678   0.1975     H
C          0.5   0.9765   0.6826     C
C          0.5   0.9782   0.7784     C
O          0.5   0.9826   0.8721     O
C          0.5   0.9833   0.2278     C
C          0.5   0.9852   0.3244     C
O          0.5   0.9859   0.4156     O
N       0.6554  0.07709   0.5081     N
N       0.6554  0.42291   0.5081     N
N       0.6554  0.57709   0.4919     N
N       0.6554  0.92291   0.4919     N
N       0.6571  0.04151   0.4845     N
N       0.6571  0.45849   0.4845     N
N       0.6571  0.54151   0.5155     N
N       0.6571  0.95849   0.5155     N
N       0.6665  0.07513   0.0506     N
N       0.6665  0.42487   0.0506     N
N       0.6665  0.57513   0.9494     N
N       0.6665  0.92487   0.9494     N
H       0.7135   0.1212   0.0046     H
H       0.7135   0.3788   0.0046     H
H       0.7135   0.6212   0.9954     H
H       0.7135   0.8788   0.9954     H
H       0.7171   0.0213   0.0714     H
H       0.7171   0.4787   0.0714     H
H       0.7171   0.5213   0.9286     H
H       0.7171   0.9787   0.9286     H
C       0.7374   0.0961   0.0137     C
C       0.7374   0.4039   0.0137     C
C       0.7374   0.5961   0.9863     C
C       0.7374   0.9039   0.9863     C
C       0.7391   0.0421   0.0496     C
C       0.7391   0.4579   0.0496     C
C       0.7391   0.5421   0.9504     C
C       0.7391   0.9579   0.9504     C
C       0.7609   0.0421   0.4504     C
C       0.7609   0.4579   0.4504     C
C       0.7609   0.5421   0.5496     C
C       0.7609   0.9579   0.5496     C
C       0.7626   0.0961   0.4863     C
C       0.7626   0.4039   0.4863     C
C       0.7626   0.5961   0.5137     C
C       0.7626   0.9039   0.5137     C
H       0.7829   0.0213   0.4286     H
H       0.7829   0.4787   0.4286     H
H       0.7829   0.5213   0.5714     H
H       0.7829   0.9787   0.5714     H
H       0.7865   0.1212   0.4954     H
H       0.7865   0.3788   0.4954     H
H       0.7865   0.6212   0.5046     H
H       0.7865   0.8788   0.5046     H
N       0.8335  0.07513   0.4494     N
N       0.8335  0.42487   0.4494     N
N       0.8335  0.57513   0.5506     N
N       0.8335  0.92487   0.5506     N
N       0.8429  0.04151   0.0155     N
N       0.8429  0.45849   0.0155     N
N       0.8429  0.54151   0.9845     N
N       0.8429  0.95849   0.9845     N
N       0.8446  0.07709   0.9919     N
N       0.8446  0.42291   0.9919     N
N       0.8446  0.57709   0.0081     N
N       0.8446  0.92291   0.0081     N
