data_I
_chemical_name_common  '/home/zhangsd/repos/MofS-CGCNN/ML/data/TSD/clean_cifs/ICAQOU_clean'
_cell_length_a 27.51200
_cell_length_b 27.51200
_cell_length_c 27.51200
_cell_angle_alpha 90.00000
_cell_angle_beta  90.00000
_cell_angle_gamma 90.00000
_space_group_name_H-M_alt      'P 1'


loop_
_space_group_symop_operation_xyz
  'x, y, z' 

loop_
_atom_site_label
_atom_site_fract_x
_atom_site_fract_y
_atom_site_fract_z
_atom_site_type_symbol
C          0.0   0.0249      0.5     C
N          0.0   0.1248      0.5     N
Cu         0.0  0.20224      0.5    Cu
Cu         0.0  0.29776      0.5    Cu
N          0.0   0.3752      0.5     N
H          0.0     0.38   0.4281     H
H          0.0     0.38   0.5719     H
C          0.0   0.3973   0.4571     C
C          0.0   0.3973   0.5429     C
C          0.0   0.4484   0.4579     C
C          0.0   0.4484   0.5421     C
H          0.0   0.4649   0.4284     H
H          0.0   0.4649   0.5716     H
C          0.0   0.4751      0.5     C
C          0.0   0.5249      0.5     C
H          0.0   0.5351   0.4284     H
H          0.0   0.5351   0.5716     H
C          0.0   0.5516   0.4579     C
C          0.0   0.5516   0.5421     C
C          0.0   0.6027   0.4571     C
C          0.0   0.6027   0.5429     C
H          0.0     0.62   0.4281     H
H          0.0     0.62   0.5719     H
N          0.0   0.6248      0.5     N
Cu         0.0  0.70224      0.5    Cu
Cu         0.0  0.79776      0.5    Cu
N          0.0   0.8752      0.5     N
C          0.0   0.9751      0.5     C
C       0.0249      0.5      0.0     C
H       0.0351      0.5   0.0716     H
H       0.0351      0.5   0.9284     H
C       0.0421   0.0516      0.5     C
C       0.0421   0.9484      0.5     C
C       0.0429   0.1027      0.5     C
C       0.0429   0.8973      0.5     C
O      0.05026  0.20914  0.44969     O
O      0.05026  0.20914  0.55031     O
O      0.05026  0.79086  0.44969     O
O      0.05026  0.79086  0.55031     O
O      0.05031  0.29086  0.44974     O
O      0.05031  0.29086  0.55026     O
O      0.05031  0.70914  0.44974     O
O      0.05031  0.70914  0.55026     O
C       0.0516      0.5   0.0421     C
C       0.0516      0.5   0.9579     C
C      0.06478     0.25  0.43522     C
C      0.06478     0.25  0.56478     C
C      0.06478     0.75  0.43522     C
C      0.06478     0.75  0.56478     C
H       0.0716   0.0351      0.5     H
H       0.0716   0.9649      0.5     H
H       0.0719     0.12      0.5     H
H       0.0719     0.88      0.5     H
C       0.1027      0.5   0.0429     C
C       0.1027      0.5   0.9571     C
C      0.10335     0.25  0.39665     C
C      0.10335     0.25  0.60335     C
C      0.10335     0.75  0.39665     C
C      0.10335     0.75  0.60335     C
H       0.1089   0.3235   0.3898     H
H       0.1089   0.3235   0.6102     H
H       0.1089   0.6765   0.3898     H
H       0.1089   0.6765   0.6102     H
H       0.1102   0.1765   0.3911     H
H       0.1102   0.1765   0.6089     H
H       0.1102   0.8235   0.3911     H
H       0.1102   0.8235   0.6089     H
H         0.12      0.5   0.0719     H
H         0.12      0.5   0.9281     H
C      0.12094   0.2941  0.37826     C
C      0.12094   0.2941  0.62174     C
C      0.12094   0.7059  0.37826     C
C      0.12094   0.7059  0.62174     C
C      0.12174   0.2059  0.37906     C
C      0.12174   0.2059  0.62094     C
C      0.12174   0.7941  0.37906     C
C      0.12174   0.7941  0.62094     C
N       0.1248      0.5      1.0     N
C      0.15661  0.29319   0.3426     C
C      0.15661  0.29319   0.6574     C
C      0.15661  0.70681   0.3426     C
C      0.15661  0.70681   0.6574     C
C       0.1574  0.20681  0.34339     C
C       0.1574  0.20681  0.65661     C
C       0.1574  0.79319  0.34339     C
C       0.1574  0.79319  0.65661     C
H       0.1684   0.3224   0.3303     H
H       0.1684   0.3224   0.6697     H
H       0.1684   0.6776   0.3303     H
H       0.1684   0.6776   0.6697     H
H       0.1697   0.1776   0.3316     H
H       0.1697   0.1776   0.6684     H
H       0.1697   0.8224   0.3316     H
H       0.1697   0.8224   0.6684     H
C      0.17507     0.25  0.32493     C
C      0.17507     0.25  0.67507     C
C      0.17507     0.75  0.32493     C
C      0.17507     0.75  0.67507     C
H       0.1765   0.3911   0.1102     H
H       0.1765   0.3911   0.8898     H
H       0.1765   0.6089   0.1102     H
H       0.1765   0.6089   0.8898     H
H       0.1776   0.3316   0.1697     H
H       0.1776   0.3316   0.8303     H
H       0.1776   0.6684   0.1697     H
H       0.1776   0.6684   0.8303     H
H       0.1896   0.3104     0.25     H
H       0.1896   0.3104     0.75     H
H       0.1896   0.6896     0.25     H
H       0.1896   0.6896     0.75     H
Cu     0.20224      0.5      1.0    Cu
C       0.2059  0.37906  0.12174     C
C       0.2059  0.37906  0.87826     C
C       0.2059  0.62094  0.12174     C
C       0.2059  0.62094  0.87826     C
C      0.20681  0.34339   0.1574     C
C      0.20681  0.34339   0.8426     C
C      0.20681  0.65661   0.1574     C
C      0.20681  0.65661   0.8426     C
O      0.20914  0.44969  0.05026     O
O      0.20914  0.44969  0.94974     O
O      0.20914  0.55031  0.05026     O
O      0.20914  0.55031  0.94974     O
C      0.21349  0.28651     0.25     C
C      0.21349  0.28651     0.75     C
C      0.21349  0.71349     0.25     C
C      0.21349  0.71349     0.75     C
C      0.21386     0.25  0.28614     C
C      0.21386     0.25  0.71386     C
C      0.21386     0.75  0.28614     C
C      0.21386     0.75  0.71386     C
H         0.25   0.1896   0.3104     H
H         0.25   0.1896   0.6896     H
C         0.25  0.21349  0.28651     C
C         0.25  0.21349  0.71349     C
C         0.25  0.28614  0.21386     C
C         0.25  0.28614  0.78614     C
C         0.25  0.32493  0.17507     C
C         0.25  0.32493  0.82493     C
C         0.25  0.39665  0.10335     C
C         0.25  0.39665  0.89665     C
C         0.25  0.43522  0.06478     C
C         0.25  0.43522  0.93522     C
C         0.25  0.56478  0.06478     C
C         0.25  0.56478  0.93522     C
C         0.25  0.60335  0.10335     C
C         0.25  0.60335  0.89665     C
C         0.25  0.67507  0.17507     C
C         0.25  0.67507  0.82493     C
C         0.25  0.71386  0.21386     C
C         0.25  0.71386  0.78614     C
C         0.25  0.78651  0.28651     C
C         0.25  0.78651  0.71349     C
H         0.25   0.8104   0.3104     H
H         0.25   0.8104   0.6896     H
C      0.28614  0.21386     0.25     C
C      0.28614  0.21386     0.75     C
C      0.28614  0.78614     0.25     C
C      0.28614  0.78614     0.75     C
C      0.28651     0.25  0.21349     C
C      0.28651     0.25  0.78651     C
C      0.28651     0.75  0.21349     C
C      0.28651     0.75  0.78651     C
O      0.29086  0.44974  0.05031     O
O      0.29086  0.44974  0.94969     O
O      0.29086  0.55026  0.05031     O
O      0.29086  0.55026  0.94969     O
C      0.29319   0.3426  0.15661     C
C      0.29319   0.3426  0.84339     C
C      0.29319   0.6574  0.15661     C
C      0.29319   0.6574  0.84339     C
C       0.2941  0.37826  0.12094     C
C       0.2941  0.37826  0.87906     C
C       0.2941  0.62174  0.12094     C
C       0.2941  0.62174  0.87906     C
Cu     0.29776      0.5      0.0    Cu
H       0.3104     0.25   0.1896     H
H       0.3104     0.25   0.8104     H
H       0.3104     0.75   0.1896     H
H       0.3104     0.75   0.8104     H
H       0.3224   0.3303   0.1684     H
H       0.3224   0.3303   0.8316     H
H       0.3224   0.6697   0.1684     H
H       0.3224   0.6697   0.8316     H
H       0.3235   0.3898   0.1089     H
H       0.3235   0.3898   0.8911     H
H       0.3235   0.6102   0.1089     H
H       0.3235   0.6102   0.8911     H
C      0.32493  0.17507     0.25     C
C      0.32493  0.17507     0.75     C
C      0.32493  0.82493     0.25     C
C      0.32493  0.82493     0.75     C
H       0.3303   0.1684   0.3224     H
H       0.3303   0.1684   0.6776     H
H       0.3303   0.8316   0.3224     H
H       0.3303   0.8316   0.6776     H
H       0.3316   0.1697   0.1776     H
H       0.3316   0.1697   0.8224     H
H       0.3316   0.8303   0.1776     H
H       0.3316   0.8303   0.8224     H
C       0.3426  0.15661  0.29319     C
C       0.3426  0.15661  0.70681     C
C       0.3426  0.84339  0.29319     C
C       0.3426  0.84339  0.70681     C
C      0.34339   0.1574  0.20681     C
C      0.34339   0.1574  0.79319     C
C      0.34339   0.8426  0.20681     C
C      0.34339   0.8426  0.79319     C
N       0.3752      0.5      1.0     N
C      0.37826  0.12094   0.2941     C
C      0.37826  0.12094   0.7059     C
C      0.37826  0.87906   0.2941     C
C      0.37826  0.87906   0.7059     C
C      0.37906  0.12174   0.2059     C
C      0.37906  0.12174   0.7941     C
C      0.37906  0.87826   0.2059     C
C      0.37906  0.87826   0.7941     C
H         0.38   0.4281      0.0     H
H         0.38   0.5719      1.0     H
H       0.3898   0.1089   0.3235     H
H       0.3898   0.1089   0.6765     H
H       0.3898   0.8911   0.3235     H
H       0.3898   0.8911   0.6765     H
H       0.3911   0.1102   0.1765     H
H       0.3911   0.1102   0.8235     H
H       0.3911   0.8898   0.1765     H
H       0.3911   0.8898   0.8235     H
C      0.39665  0.10335     0.25     C
C      0.39665  0.10335     0.75     C
C      0.39665  0.89665     0.25     C
C      0.39665  0.89665     0.75     C
C       0.3973   0.4571      1.0     C
C       0.3973   0.5429      1.0     C
H       0.4281      0.0     0.38     H
H       0.4281      0.0     0.62     H
H       0.4284      0.0   0.4649     H
H       0.4284      0.0   0.5351     H
C      0.43522  0.06478     0.25     C
C      0.43522  0.06478     0.75     C
C      0.43522  0.93522     0.25     C
C      0.43522  0.93522     0.75     C
C       0.4484   0.4579      0.0     C
C       0.4484   0.5421      0.0     C
O      0.44969  0.05026  0.20914     O
O      0.44969  0.05026  0.79086     O
O      0.44969  0.94974  0.20914     O
O      0.44969  0.94974  0.79086     O
O      0.44974  0.05031  0.29086     O
O      0.44974  0.05031  0.70914     O
O      0.44974  0.94969  0.29086     O
O      0.44974  0.94969  0.70914     O
C       0.4571      0.0   0.3973     C
C       0.4571      0.0   0.6027     C
C       0.4579      0.0   0.4484     C
C       0.4579      0.0   0.5516     C
H       0.4649   0.4284      0.0     H
H       0.4649   0.5716      0.0     H
C       0.4751      0.5      1.0     C
C          0.5      0.0   0.0249     C
N          0.5      0.0   0.1248     N
Cu         0.5      0.0  0.20224    Cu
Cu         0.5      0.0  0.29776    Cu
N          0.5      0.0   0.3752     N
C          0.5      0.0   0.4751     C
C          0.5      0.0   0.5249     C
N          0.5      0.0   0.6248     N
Cu         0.5      0.0  0.70224    Cu
Cu         0.5      0.0  0.79776    Cu
N          0.5      0.0   0.8752     N
C          0.5      0.0   0.9751     C
C          0.5   0.0421   0.0516     C
C          0.5   0.0421   0.9484     C
C          0.5   0.0429   0.1027     C
C          0.5   0.0429   0.8973     C
H          0.5   0.0716   0.0351     H
H          0.5   0.0716   0.9649     H
H          0.5   0.0719     0.12     H
H          0.5   0.0719     0.88     H
H          0.5   0.9281     0.12     H
H          0.5   0.9281     0.88     H
H          0.5   0.9284   0.0351     H
H          0.5   0.9284   0.9649     H
C          0.5   0.9571   0.1027     C
C          0.5   0.9571   0.8973     C
C          0.5   0.9579   0.0516     C
C          0.5   0.9579   0.9484     C
C       0.5249      0.5      1.0     C
H       0.5351   0.4284      0.0     H
H       0.5351   0.5716      0.0     H
C       0.5421      0.0   0.4484     C
C       0.5421      0.0   0.5516     C
C       0.5429      0.0   0.3973     C
C       0.5429      0.0   0.6027     C
O      0.55026  0.05031  0.29086     O
O      0.55026  0.05031  0.70914     O
O      0.55026  0.94969  0.29086     O
O      0.55026  0.94969  0.70914     O
O      0.55031  0.05026  0.20914     O
O      0.55031  0.05026  0.79086     O
O      0.55031  0.94974  0.20914     O
O      0.55031  0.94974  0.79086     O
C       0.5516   0.4579      0.0     C
C       0.5516   0.5421      0.0     C
C      0.56478  0.06478     0.25     C
C      0.56478  0.06478     0.75     C
C      0.56478  0.93522     0.25     C
C      0.56478  0.93522     0.75     C
H       0.5716      0.0   0.4649     H
H       0.5716      0.0   0.5351     H
H       0.5719      0.0     0.38     H
H       0.5719      0.0     0.62     H
C       0.6027   0.4571      0.0     C
C       0.6027   0.5429      0.0     C
C      0.60335  0.10335     0.25     C
C      0.60335  0.10335     0.75     C
C      0.60335  0.89665     0.25     C
C      0.60335  0.89665     0.75     C
H       0.6089   0.1102   0.1765     H
H       0.6089   0.1102   0.8235     H
H       0.6089   0.8898   0.1765     H
H       0.6089   0.8898   0.8235     H
H       0.6102   0.1089   0.3235     H
H       0.6102   0.1089   0.6765     H
H       0.6102   0.8911   0.3235     H
H       0.6102   0.8911   0.6765     H
H         0.62   0.4281      0.0     H
H         0.62   0.5719      0.0     H
C      0.62094  0.12174   0.2059     C
C      0.62094  0.12174   0.7941     C
C      0.62094  0.87826   0.2059     C
C      0.62094  0.87826   0.7941     C
C      0.62174  0.12094   0.2941     C
C      0.62174  0.12094   0.7059     C
C      0.62174  0.87906   0.2941     C
C      0.62174  0.87906   0.7059     C
N       0.6248      0.5      0.0     N
C      0.65661   0.1574  0.20681     C
C      0.65661   0.1574  0.79319     C
C      0.65661   0.8426  0.20681     C
C      0.65661   0.8426  0.79319     C
C       0.6574  0.15661  0.29319     C
C       0.6574  0.15661  0.70681     C
C       0.6574  0.84339  0.29319     C
C       0.6574  0.84339  0.70681     C
H       0.6684   0.1697   0.1776     H
H       0.6684   0.1697   0.8224     H
H       0.6684   0.8303   0.1776     H
H       0.6684   0.8303   0.8224     H
H       0.6697   0.1684   0.3224     H
H       0.6697   0.1684   0.6776     H
H       0.6697   0.8316   0.3224     H
H       0.6697   0.8316   0.6776     H
C      0.67507  0.17507     0.25     C
C      0.67507  0.17507     0.75     C
C      0.67507  0.82493     0.25     C
C      0.67507  0.82493     0.75     C
H       0.6765   0.3898   0.1089     H
H       0.6765   0.3898   0.8911     H
H       0.6765   0.6102   0.1089     H
H       0.6765   0.6102   0.8911     H
H       0.6776   0.3303   0.1684     H
H       0.6776   0.3303   0.8316     H
H       0.6776   0.6697   0.1684     H
H       0.6776   0.6697   0.8316     H
H       0.6896     0.25   0.1896     H
H       0.6896     0.25   0.8104     H
H       0.6896     0.75   0.1896     H
H       0.6896     0.75   0.8104     H
Cu     0.70224      0.5      0.0    Cu
C       0.7059  0.37826  0.12094     C
C       0.7059  0.37826  0.87906     C
C       0.7059  0.62174  0.12094     C
C       0.7059  0.62174  0.87906     C
C      0.70681   0.3426  0.15661     C
C      0.70681   0.3426  0.84339     C
C      0.70681   0.6574  0.15661     C
C      0.70681   0.6574  0.84339     C
O      0.70914  0.44974  0.05031     O
O      0.70914  0.44974  0.94969     O
O      0.70914  0.55026  0.05031     O
O      0.70914  0.55026  0.94969     O
C      0.71349     0.25  0.21349     C
C      0.71349     0.25  0.78651     C
C      0.71349     0.75  0.21349     C
C      0.71349     0.75  0.78651     C
C      0.71386  0.21386     0.25     C
C      0.71386  0.21386     0.75     C
C      0.71386  0.78614     0.25     C
C      0.71386  0.78614     0.75     C
H         0.75   0.1896   0.3104     H
H         0.75   0.1896   0.6896     H
C         0.75  0.21349  0.28651     C
C         0.75  0.21349  0.71349     C
C         0.75  0.28614  0.21386     C
C         0.75  0.28614  0.78614     C
C         0.75  0.32493  0.17507     C
C         0.75  0.32493  0.82493     C
C         0.75  0.39665  0.10335     C
C         0.75  0.39665  0.89665     C
C         0.75  0.43522  0.06478     C
C         0.75  0.43522  0.93522     C
C         0.75  0.56478  0.06478     C
C         0.75  0.56478  0.93522     C
C         0.75  0.60335  0.10335     C
C         0.75  0.60335  0.89665     C
C         0.75  0.67507  0.17507     C
C         0.75  0.67507  0.82493     C
C         0.75  0.71386  0.21386     C
C         0.75  0.71386  0.78614     C
C         0.75  0.78651  0.28651     C
C         0.75  0.78651  0.71349     C
H         0.75   0.8104   0.3104     H
H         0.75   0.8104   0.6896     H
C      0.78614     0.25  0.28614     C
C      0.78614     0.25  0.71386     C
C      0.78614     0.75  0.28614     C
C      0.78614     0.75  0.71386     C
C      0.78651  0.28651     0.25     C
C      0.78651  0.28651     0.75     C
C      0.78651  0.71349     0.25     C
C      0.78651  0.71349     0.75     C
O      0.79086  0.44969  0.05026     O
O      0.79086  0.44969  0.94974     O
O      0.79086  0.55031  0.05026     O
O      0.79086  0.55031  0.94974     O
C      0.79319  0.34339   0.1574     C
C      0.79319  0.34339   0.8426     C
C      0.79319  0.65661   0.1574     C
C      0.79319  0.65661   0.8426     C
C       0.7941  0.37906  0.12174     C
C       0.7941  0.37906  0.87826     C
C       0.7941  0.62094  0.12174     C
C       0.7941  0.62094  0.87826     C
Cu     0.79776      0.5      0.0    Cu
H       0.8104   0.3104     0.25     H
H       0.8104   0.3104     0.75     H
H       0.8104   0.6896     0.25     H
H       0.8104   0.6896     0.75     H
H       0.8224   0.3316   0.1697     H
H       0.8224   0.3316   0.8303     H
H       0.8224   0.6684   0.1697     H
H       0.8224   0.6684   0.8303     H
H       0.8235   0.3911   0.1102     H
H       0.8235   0.3911   0.8898     H
H       0.8235   0.6089   0.1102     H
H       0.8235   0.6089   0.8898     H
C      0.82493     0.25  0.32493     C
C      0.82493     0.25  0.67507     C
C      0.82493     0.75  0.32493     C
C      0.82493     0.75  0.67507     C
H       0.8303   0.1776   0.3316     H
H       0.8303   0.1776   0.6684     H
H       0.8303   0.8224   0.3316     H
H       0.8303   0.8224   0.6684     H
H       0.8316   0.3224   0.3303     H
H       0.8316   0.3224   0.6697     H
H       0.8316   0.6776   0.3303     H
H       0.8316   0.6776   0.6697     H
C       0.8426  0.20681  0.34339     C
C       0.8426  0.20681  0.65661     C
C       0.8426  0.79319  0.34339     C
C       0.8426  0.79319  0.65661     C
C      0.84339  0.29319   0.3426     C
C      0.84339  0.29319   0.6574     C
C      0.84339  0.70681   0.3426     C
C      0.84339  0.70681   0.6574     C
N       0.8752      0.5      0.0     N
C      0.87826   0.2059  0.37906     C
C      0.87826   0.2059  0.62094     C
C      0.87826   0.7941  0.37906     C
C      0.87826   0.7941  0.62094     C
C      0.87906   0.2941  0.37826     C
C      0.87906   0.2941  0.62174     C
C      0.87906   0.7059  0.37826     C
C      0.87906   0.7059  0.62174     C
H         0.88      0.5   0.0719     H
H         0.88      0.5   0.9281     H
H       0.8898   0.1765   0.3911     H
H       0.8898   0.1765   0.6089     H
H       0.8898   0.8235   0.3911     H
H       0.8898   0.8235   0.6089     H
H       0.8911   0.3235   0.3898     H
H       0.8911   0.3235   0.6102     H
H       0.8911   0.6765   0.3898     H
H       0.8911   0.6765   0.6102     H
C      0.89665     0.25  0.39665     C
C      0.89665     0.25  0.60335     C
C      0.89665     0.75  0.39665     C
C      0.89665     0.75  0.60335     C
C       0.8973      0.5   0.0429     C
C       0.8973      0.5   0.9571     C
H       0.9281     0.12      0.5     H
H       0.9281     0.88      0.5     H
H       0.9284   0.0351      0.5     H
H       0.9284   0.9649      0.5     H
C      0.93522     0.25  0.43522     C
C      0.93522     0.25  0.56478     C
C      0.93522     0.75  0.43522     C
C      0.93522     0.75  0.56478     C
C       0.9484      0.5   0.0421     C
C       0.9484      0.5   0.9579     C
O      0.94969  0.29086  0.44974     O
O      0.94969  0.29086  0.55026     O
O      0.94969  0.70914  0.44974     O
O      0.94969  0.70914  0.55026     O
O      0.94974  0.20914  0.44969     O
O      0.94974  0.20914  0.55031     O
O      0.94974  0.79086  0.44969     O
O      0.94974  0.79086  0.55031     O
C       0.9571   0.1027      0.5     C
C       0.9571   0.8973      0.5     C
C       0.9579   0.0516      0.5     C
C       0.9579   0.9484      0.5     C
H       0.9649      0.5   0.0716     H
H       0.9649      0.5   0.9284     H
C       0.9751      0.5      0.0     C
