data_I
_chemical_name_common  '/home/zhangsd/repos/MofS-CGCNN/ML/data/TSD/clean_cifs/ICAQIO_clean'
_cell_length_a 27.63400
_cell_length_b 27.63400
_cell_length_c 27.63400
_cell_angle_alpha 90.00000
_cell_angle_beta  90.00000
_cell_angle_gamma 90.00000
_space_group_name_H-M_alt      'P 1'


loop_
_space_group_symop_operation_xyz
  'x, y, z' 

loop_
_atom_site_label
_atom_site_fract_x
_atom_site_fract_y
_atom_site_fract_z
_atom_site_type_symbol
N          0.0   0.3727      0.5     N
C          0.0  0.47306      0.5     C
C          0.0   0.5531   0.4591     C
C          0.0   0.5531   0.5409     C
N          0.0   0.6273      0.5     N
Co         0.0   0.7015      0.5    Co
Co         0.0   0.7985      0.5    Co
C          0.0  0.97306      0.5     C
C      0.02694      0.5      0.0     C
H       0.0378      0.5   0.0708     H
H       0.0378      0.5   0.9292     H
C       0.0383  0.10213      0.5     C
C       0.0383  0.89787      0.5     C
C       0.0409   0.0531      0.5     C
C       0.0409   0.9469      0.5     C
O      0.05138  0.29014   0.4484     O
O      0.05138  0.29014   0.5516     O
O      0.05138  0.70986   0.4484     O
O      0.05138  0.70986   0.5516     O
O       0.0516  0.20986  0.44862     O
O       0.0516  0.20986  0.55138     O
O       0.0516  0.79014  0.44862     O
O       0.0516  0.79014  0.55138     O
C       0.0531      0.5   0.0409     C
C       0.0531      0.5   0.9591     C
C      0.06603     0.25  0.43397     C
C      0.06603     0.25  0.56603     C
C      0.06603     0.75  0.43397     C
C      0.06603     0.75  0.56603     C
H       0.0675   0.1189      0.5     H
H       0.0675   0.8811      0.5     H
H       0.0708   0.0378      0.5     H
H       0.0708   0.9622      0.5     H
C      0.10213      0.5   0.0383     C
C      0.10213      0.5   0.9617     C
C      0.10451     0.25  0.39549     C
C      0.10451     0.25  0.60451     C
C      0.10451     0.75  0.39549     C
C      0.10451     0.75  0.60451     C
H       0.1105   0.3221   0.3887     H
H       0.1105   0.3221   0.6113     H
H       0.1105   0.6779   0.3887     H
H       0.1105   0.6779   0.6113     H
H       0.1113   0.1779   0.3895     H
H       0.1113   0.1779   0.6105     H
H       0.1113   0.8221   0.3895     H
H       0.1113   0.8221   0.6105     H
H       0.1189      0.5   0.0675     H
H       0.1189      0.5   0.9325     H
C      0.12235  0.29286  0.37707     C
C      0.12235  0.29286  0.62293     C
C      0.12235  0.70714  0.37707     C
C      0.12235  0.70714  0.62293     C
C      0.12293  0.20714  0.37765     C
C      0.12293  0.20714  0.62235     C
C      0.12293  0.79286  0.37765     C
C      0.12293  0.79286  0.62235     C
N       0.1273      0.5      0.0     N
C      0.15742  0.29274  0.34174     C
C      0.15742  0.29274  0.65826     C
C      0.15742  0.70726  0.34174     C
C      0.15742  0.70726  0.65826     C
C      0.15826  0.20726  0.34258     C
C      0.15826  0.20726  0.65742     C
C      0.15826  0.79274  0.34258     C
C      0.15826  0.79274  0.65742     C
H       0.1688    0.322   0.3297     H
H       0.1688    0.322   0.6703     H
H       0.1688    0.678   0.3297     H
H       0.1688    0.678   0.6703     H
H       0.1703    0.178   0.3312     H
H       0.1703    0.178   0.6688     H
H       0.1703    0.822   0.3312     H
H       0.1703    0.822   0.6688     H
C      0.17611     0.25  0.32389     C
C      0.17611     0.25  0.67611     C
C      0.17611     0.75  0.32389     C
C      0.17611     0.75  0.67611     C
H       0.1779   0.3895   0.1113     H
H       0.1779   0.3895   0.8887     H
H       0.1779   0.6105   0.1113     H
H       0.1779   0.6105   0.8887     H
H        0.178   0.3312   0.1703     H
H        0.178   0.3312   0.8297     H
H        0.178   0.6688   0.1703     H
H        0.178   0.6688   0.8297     H
H       0.1908   0.3092     0.25     H
H       0.1908   0.3092     0.75     H
H       0.1908   0.6908     0.25     H
H       0.1908   0.6908     0.75     H
Co      0.2015      0.5      0.0    Co
C      0.20714  0.37765  0.12293     C
C      0.20714  0.37765  0.87707     C
C      0.20714  0.62235  0.12293     C
C      0.20714  0.62235  0.87707     C
C      0.20726  0.34258  0.15826     C
C      0.20726  0.34258  0.84174     C
C      0.20726  0.65742  0.15826     C
C      0.20726  0.65742  0.84174     C
O      0.20986  0.44862   0.0516     O
O      0.20986  0.44862   0.9484     O
O      0.20986  0.55138   0.0516     O
O      0.20986  0.55138   0.9484     O
C      0.21405     0.25  0.28595     C
C      0.21405     0.25  0.71405     C
C      0.21405     0.75  0.28595     C
C      0.21405     0.75  0.71405     C
C       0.2146   0.2854     0.25     C
C       0.2146   0.2854     0.75     C
C       0.2146   0.7146     0.25     C
C       0.2146   0.7146     0.75     C
H         0.25   0.1908   0.3092     H
H         0.25   0.1908   0.6908     H
C         0.25   0.2146   0.2854     C
C         0.25   0.2146   0.7146     C
C         0.25  0.28595  0.21405     C
C         0.25  0.28595  0.78595     C
C         0.25  0.32389  0.17611     C
C         0.25  0.32389  0.82389     C
C         0.25  0.39549  0.10451     C
C         0.25  0.39549  0.89549     C
C         0.25  0.43397  0.06603     C
C         0.25  0.43397  0.93397     C
C         0.25  0.56603  0.06603     C
C         0.25  0.56603  0.93397     C
C         0.25  0.60451  0.10451     C
C         0.25  0.60451  0.89549     C
C         0.25  0.67611  0.17611     C
C         0.25  0.67611  0.82389     C
C         0.25  0.71405  0.21405     C
C         0.25  0.71405  0.78595     C
C         0.25   0.7854   0.2854     C
C         0.25   0.7854   0.7146     C
H         0.25   0.8092   0.3092     H
H         0.25   0.8092   0.6908     H
C       0.2854     0.25   0.2146     C
C       0.2854     0.25   0.7854     C
C       0.2854     0.75   0.2146     C
C       0.2854     0.75   0.7854     C
C      0.28595  0.21405     0.25     C
C      0.28595  0.21405     0.75     C
C      0.28595  0.78595     0.25     C
C      0.28595  0.78595     0.75     C
O      0.29014   0.4484  0.05138     O
O      0.29014   0.4484  0.94862     O
O      0.29014   0.5516  0.05138     O
O      0.29014   0.5516  0.94862     O
C      0.29274  0.34174  0.15742     C
C      0.29274  0.34174  0.84258     C
C      0.29274  0.65826  0.15742     C
C      0.29274  0.65826  0.84258     C
C      0.29286  0.37707  0.12235     C
C      0.29286  0.37707  0.87765     C
C      0.29286  0.62293  0.12235     C
C      0.29286  0.62293  0.87765     C
Co      0.2985      0.5      0.0    Co
H       0.3092     0.25   0.1908     H
H       0.3092     0.25   0.8092     H
H       0.3092     0.75   0.1908     H
H       0.3092     0.75   0.8092     H
H        0.322   0.3297   0.1688     H
H        0.322   0.3297   0.8312     H
H        0.322   0.6703   0.1688     H
H        0.322   0.6703   0.8312     H
H       0.3221   0.3887   0.1105     H
H       0.3221   0.3887   0.8895     H
H       0.3221   0.6113   0.1105     H
H       0.3221   0.6113   0.8895     H
C      0.32389  0.17611     0.25     C
C      0.32389  0.17611     0.75     C
C      0.32389  0.82389     0.25     C
C      0.32389  0.82389     0.75     C
H       0.3297   0.1688    0.322     H
H       0.3297   0.1688    0.678     H
H       0.3297   0.8312    0.322     H
H       0.3297   0.8312    0.678     H
H       0.3312   0.1703    0.178     H
H       0.3312   0.1703    0.822     H
H       0.3312   0.8297    0.178     H
H       0.3312   0.8297    0.822     H
C      0.34174  0.15742  0.29274     C
C      0.34174  0.15742  0.70726     C
C      0.34174  0.84258  0.29274     C
C      0.34174  0.84258  0.70726     C
C      0.34258  0.15826  0.20726     C
C      0.34258  0.15826  0.79274     C
C      0.34258  0.84174  0.20726     C
C      0.34258  0.84174  0.79274     C
N       0.3727      0.5      0.0     N
C      0.37707  0.12235  0.29286     C
C      0.37707  0.12235  0.70714     C
C      0.37707  0.87765  0.29286     C
C      0.37707  0.87765  0.70714     C
C      0.37765  0.12293  0.20714     C
C      0.37765  0.12293  0.79286     C
C      0.37765  0.87707  0.20714     C
C      0.37765  0.87707  0.79286     C
H       0.3811   0.4325      0.0     H
H       0.3811   0.5675      0.0     H
H       0.3887   0.1105   0.3221     H
H       0.3887   0.1105   0.6779     H
H       0.3887   0.8895   0.3221     H
H       0.3887   0.8895   0.6779     H
H       0.3895   0.1113   0.1779     H
H       0.3895   0.1113   0.8221     H
H       0.3895   0.8887   0.1779     H
H       0.3895   0.8887   0.8221     H
C      0.39549  0.10451     0.25     C
C      0.39549  0.10451     0.75     C
C      0.39549  0.89549     0.25     C
C      0.39549  0.89549     0.75     C
C      0.39787   0.4617      0.0     C
C      0.39787   0.5383      0.0     C
H       0.4292      0.0   0.4622     H
H       0.4292      0.0   0.5378     H
H       0.4325      0.0   0.3811     H
H       0.4325      0.0   0.6189     H
C      0.43397  0.06603     0.25     C
C      0.43397  0.06603     0.75     C
C      0.43397  0.93397     0.25     C
C      0.43397  0.93397     0.75     C
C       0.4469   0.4591      0.0     C
C       0.4469   0.5409      0.0     C
O       0.4484  0.05138  0.29014     O
O       0.4484  0.05138  0.70986     O
O       0.4484  0.94862  0.29014     O
O       0.4484  0.94862  0.70986     O
O      0.44862   0.0516  0.20986     O
O      0.44862   0.0516  0.79014     O
O      0.44862   0.9484  0.20986     O
O      0.44862   0.9484  0.79014     O
C       0.4591      0.0   0.4469     C
C       0.4591      0.0   0.5531     C
C       0.4617      0.0  0.39787     C
C       0.4617      0.0  0.60213     C
H       0.4622   0.4292      0.0     H
H       0.4622   0.5708      0.0     H
C      0.47306      0.5      0.0     C
C          0.5      0.0  0.02694     C
N          0.5      0.0   0.1273     N
Co         0.5      0.0   0.2015    Co
Co         0.5      0.0   0.2985    Co
N          0.5      0.0   0.3727     N
C          0.5      0.0  0.47306     C
C          0.5      0.0  0.52694     C
N          0.5      0.0   0.6273     N
Co         0.5      0.0   0.7015    Co
Co         0.5      0.0   0.7985    Co
N          0.5      0.0   0.8727     N
C          0.5      0.0  0.97306     C
C          0.5   0.0383  0.10213     C
C          0.5   0.0383  0.89787     C
C          0.5   0.0409   0.0531     C
C          0.5   0.0409   0.9469     C
H          0.5   0.0675   0.1189     H
H          0.5   0.0675   0.8811     H
H          0.5   0.0708   0.0378     H
H          0.5   0.0708   0.9622     H
H          0.5   0.9292   0.0378     H
H          0.5   0.9292   0.9622     H
H          0.5   0.9325   0.1189     H
H          0.5   0.9325   0.8811     H
C          0.5   0.9591   0.0531     C
C          0.5   0.9591   0.9469     C
C          0.5   0.9617  0.10213     C
C          0.5   0.9617  0.89787     C
C      0.52694      0.5      0.0     C
H       0.5378   0.4292      0.0     H
H       0.5378   0.5708      0.0     H
C       0.5383      0.0  0.39787     C
C       0.5383      0.0  0.60213     C
C       0.5409      0.0   0.4469     C
C       0.5409      0.0   0.5531     C
O      0.55138   0.0516  0.20986     O
O      0.55138   0.0516  0.79014     O
O      0.55138   0.9484  0.20986     O
O      0.55138   0.9484  0.79014     O
O       0.5516  0.05138  0.29014     O
O       0.5516  0.05138  0.70986     O
O       0.5516  0.94862  0.29014     O
O       0.5516  0.94862  0.70986     O
C       0.5531   0.4591      1.0     C
C       0.5531   0.5409      0.0     C
C      0.56603  0.06603     0.25     C
C      0.56603  0.06603     0.75     C
C      0.56603  0.93397     0.25     C
C      0.56603  0.93397     0.75     C
H       0.5675      0.0   0.3811     H
H       0.5675      0.0   0.6189     H
H       0.5708      0.0   0.4622     H
H       0.5708      0.0   0.5378     H
C      0.60213   0.4617      0.0     C
C      0.60213   0.5383      0.0     C
C      0.60451  0.10451     0.25     C
C      0.60451  0.10451     0.75     C
C      0.60451  0.89549     0.25     C
C      0.60451  0.89549     0.75     C
H       0.6105   0.1113   0.1779     H
H       0.6105   0.1113   0.8221     H
H       0.6105   0.8887   0.1779     H
H       0.6105   0.8887   0.8221     H
H       0.6113   0.1105   0.3221     H
H       0.6113   0.1105   0.6779     H
H       0.6113   0.8895   0.3221     H
H       0.6113   0.8895   0.6779     H
H       0.6189   0.4325      0.0     H
H       0.6189   0.5675      0.0     H
C      0.62235  0.12293  0.20714     C
C      0.62235  0.12293  0.79286     C
C      0.62235  0.87707  0.20714     C
C      0.62235  0.87707  0.79286     C
C      0.62293  0.12235  0.29286     C
C      0.62293  0.12235  0.70714     C
C      0.62293  0.87765  0.29286     C
C      0.62293  0.87765  0.70714     C
N       0.6273      0.5      0.0     N
C      0.65742  0.15826  0.20726     C
C      0.65742  0.15826  0.79274     C
C      0.65742  0.84174  0.20726     C
C      0.65742  0.84174  0.79274     C
C      0.65826  0.15742  0.29274     C
C      0.65826  0.15742  0.70726     C
C      0.65826  0.84258  0.29274     C
C      0.65826  0.84258  0.70726     C
H       0.6688   0.1703    0.178     H
H       0.6688   0.1703    0.822     H
H       0.6688   0.8297    0.178     H
H       0.6688   0.8297    0.822     H
H       0.6703   0.1688    0.322     H
H       0.6703   0.1688    0.678     H
H       0.6703   0.8312    0.322     H
H       0.6703   0.8312    0.678     H
C      0.67611  0.17611     0.25     C
C      0.67611  0.17611     0.75     C
C      0.67611  0.82389     0.25     C
C      0.67611  0.82389     0.75     C
H       0.6779   0.3887   0.1105     H
H       0.6779   0.3887   0.8895     H
H       0.6779   0.6113   0.1105     H
H       0.6779   0.6113   0.8895     H
H        0.678   0.3297   0.1688     H
H        0.678   0.3297   0.8312     H
H        0.678   0.6703   0.1688     H
H        0.678   0.6703   0.8312     H
H       0.6908     0.25   0.1908     H
H       0.6908     0.25   0.8092     H
H       0.6908     0.75   0.1908     H
H       0.6908     0.75   0.8092     H
Co      0.7015      0.5      0.0    Co
C      0.70714  0.37707  0.12235     C
C      0.70714  0.37707  0.87765     C
C      0.70714  0.62293  0.12235     C
C      0.70714  0.62293  0.87765     C
C      0.70726  0.34174  0.15742     C
C      0.70726  0.34174  0.84258     C
C      0.70726  0.65826  0.15742     C
C      0.70726  0.65826  0.84258     C
O      0.70986   0.4484  0.05138     O
O      0.70986   0.4484  0.94862     O
O      0.70986   0.5516  0.05138     O
O      0.70986   0.5516  0.94862     O
C      0.71405  0.21405     0.25     C
C      0.71405  0.21405     0.75     C
C      0.71405  0.78595     0.25     C
C      0.71405  0.78595     0.75     C
C       0.7146     0.25   0.2146     C
C       0.7146     0.25   0.7854     C
C       0.7146     0.75   0.2146     C
C       0.7146     0.75   0.7854     C
H         0.75   0.1908   0.3092     H
H         0.75   0.1908   0.6908     H
C         0.75   0.2146   0.2854     C
C         0.75   0.2146   0.7146     C
C         0.75  0.28595  0.21405     C
C         0.75  0.28595  0.78595     C
C         0.75  0.32389  0.17611     C
C         0.75  0.32389  0.82389     C
C         0.75  0.39549  0.10451     C
C         0.75  0.39549  0.89549     C
C         0.75  0.43397  0.06603     C
C         0.75  0.43397  0.93397     C
C         0.75  0.56603  0.06603     C
C         0.75  0.56603  0.93397     C
C         0.75  0.60451  0.10451     C
C         0.75  0.60451  0.89549     C
C         0.75  0.67611  0.17611     C
C         0.75  0.67611  0.82389     C
C         0.75  0.71405  0.21405     C
C         0.75  0.71405  0.78595     C
C         0.75   0.7854   0.2854     C
C         0.75   0.7854   0.7146     C
H         0.75   0.8092   0.3092     H
H         0.75   0.8092   0.6908     H
C       0.7854   0.2854     0.25     C
C       0.7854   0.2854     0.75     C
C       0.7854   0.7146     0.25     C
C       0.7854   0.7146     0.75     C
C      0.78595     0.25  0.28595     C
C      0.78595     0.25  0.71405     C
C      0.78595     0.75  0.28595     C
C      0.78595     0.75  0.71405     C
O      0.79014  0.44862   0.0516     O
O      0.79014  0.44862   0.9484     O
O      0.79014  0.55138   0.0516     O
O      0.79014  0.55138   0.9484     O
C      0.79274  0.34258  0.15826     C
C      0.79274  0.34258  0.84174     C
C      0.79274  0.65742  0.15826     C
C      0.79274  0.65742  0.84174     C
C      0.79286  0.37765  0.12293     C
C      0.79286  0.37765  0.87707     C
C      0.79286  0.62235  0.12293     C
C      0.79286  0.62235  0.87707     C
Co      0.7985      0.5      0.0    Co
H       0.8092   0.3092     0.25     H
H       0.8092   0.3092     0.75     H
H       0.8092   0.6908     0.25     H
H       0.8092   0.6908     0.75     H
H        0.822   0.3312   0.1703     H
H        0.822   0.3312   0.8297     H
H        0.822   0.6688   0.1703     H
H        0.822   0.6688   0.8297     H
H       0.8221   0.3895   0.1113     H
H       0.8221   0.3895   0.8887     H
H       0.8221   0.6105   0.1113     H
H       0.8221   0.6105   0.8887     H
C      0.82389     0.25  0.32389     C
C      0.82389     0.25  0.67611     C
C      0.82389     0.75  0.32389     C
C      0.82389     0.75  0.67611     C
H       0.8297    0.178   0.3312     H
H       0.8297    0.178   0.6688     H
H       0.8297    0.822   0.3312     H
H       0.8297    0.822   0.6688     H
H       0.8312    0.322   0.3297     H
H       0.8312    0.322   0.6703     H
H       0.8312    0.678   0.3297     H
H       0.8312    0.678   0.6703     H
C      0.84174  0.20726  0.34258     C
C      0.84174  0.20726  0.65742     C
C      0.84174  0.79274  0.34258     C
C      0.84174  0.79274  0.65742     C
C      0.84258  0.29274  0.34174     C
C      0.84258  0.29274  0.65826     C
C      0.84258  0.70726  0.34174     C
C      0.84258  0.70726  0.65826     C
N       0.8727      0.5      0.0     N
C      0.87707  0.20714  0.37765     C
C      0.87707  0.20714  0.62235     C
C      0.87707  0.79286  0.37765     C
C      0.87707  0.79286  0.62235     C
C      0.87765  0.29286  0.37707     C
C      0.87765  0.29286  0.62293     C
C      0.87765  0.70714  0.37707     C
C      0.87765  0.70714  0.62293     C
H       0.8811      0.5   0.0675     H
H       0.8811      0.5   0.9325     H
H       0.8887   0.1779   0.3895     H
H       0.8887   0.1779   0.6105     H
H       0.8887   0.8221   0.3895     H
H       0.8887   0.8221   0.6105     H
H       0.8895   0.3221   0.3887     H
H       0.8895   0.3221   0.6113     H
H       0.8895   0.6779   0.3887     H
H       0.8895   0.6779   0.6113     H
C      0.89549     0.25  0.39549     C
C      0.89549     0.25  0.60451     C
C      0.89549     0.75  0.39549     C
C      0.89549     0.75  0.60451     C
C      0.89787      0.5   0.0383     C
C      0.89787      0.5   0.9617     C
H       0.9292   0.0378      0.5     H
H       0.9292   0.9622      0.5     H
H       0.9325   0.1189      0.5     H
H       0.9325   0.8811      0.5     H
C      0.93397     0.25  0.43397     C
C      0.93397     0.25  0.56603     C
C      0.93397     0.75  0.43397     C
C      0.93397     0.75  0.56603     C
C       0.9469      0.5   0.0409     C
C       0.9469      0.5   0.9591     C
O       0.9484  0.20986  0.44862     O
O       0.9484  0.20986  0.55138     O
O       0.9484  0.79014  0.44862     O
O       0.9484  0.79014  0.55138     O
O      0.94862  0.29014   0.4484     O
O      0.94862  0.29014   0.5516     O
O      0.94862  0.70986   0.4484     O
O      0.94862  0.70986   0.5516     O
C       0.9591   0.0531      0.5     C
C       0.9591   0.9469      0.5     C
C       0.9617  0.10213      0.5     C
C       0.9617  0.89787      0.5     C
H       0.9622      0.5   0.0708     H
H       0.9622      0.5   0.9292     H
C      0.97306      0.5      0.0     C
C          1.0  0.02694      0.5     C
N          1.0   0.1273      0.5     N
Co         1.0   0.2015      0.5    Co
Co         1.0   0.2985      0.5    Co
H          1.0   0.3811   0.4325     H
H          1.0   0.3811   0.5675     H
C          1.0  0.39787   0.4617     C
C          1.0  0.39787   0.5383     C
C          1.0   0.4469   0.4591     C
C          1.0   0.4469   0.5409     C
H          1.0   0.4622   0.4292     H
H          1.0   0.4622   0.5708     H
C          1.0  0.52694      0.5     C
H          1.0   0.5378   0.4292     H
H          1.0   0.5378   0.5708     H
C          1.0  0.60213   0.4617     C
C          1.0  0.60213   0.5383     C
H          1.0   0.6189   0.4325     H
H          1.0   0.6189   0.5675     H
N          1.0   0.8727      0.5     N
