data_I
_chemical_name_common  '/home/zhangsd/repos/MofS-CGCNN/ML/data/TSD/clean_cifs/IFUNUU_clean'
_cell_length_a 12.96530
_cell_length_b 13.90600
_cell_length_c 14.62000
_cell_angle_alpha 95.94830
_cell_angle_beta  90.00000
_cell_angle_gamma 117.78600
_space_group_name_H-M_alt      'P 1'


loop_
_space_group_symop_operation_xyz
  'x, y, z' 

loop_
_atom_site_label
_atom_site_fract_x
_atom_site_fract_y
_atom_site_fract_z
_atom_site_type_symbol
C        0.001   0.3034   0.2647     C
H       0.0083   0.9262   0.9351     H
C       0.0239   0.2568   0.3368     C
C       0.0264   0.9252   0.6129     C
H         0.04    0.092   0.8847     H
C        0.047   0.4516   0.1645     C
O       0.0484   0.6114    0.879     O
H        0.052    0.092   0.3847     H
O       0.0591   0.7914   0.9942     O
C       0.0625   0.8522   0.6391     C
H       0.0678   0.7372   0.7717     H
C       0.0768   0.4076   0.2453     C
O       0.0782    0.449   0.9606     O
C       0.0818   0.9746   0.9176     C
H       0.0821   0.0738   0.5649     H
C       0.1012   0.0748   0.8871     C
C       0.1072   0.0254   0.5824     C
O       0.1179   0.5454   0.1481     O
Tb     0.12201  0.65452   0.0321    Tb
C       0.1313    0.318    0.387     C
H       0.1338   0.2866   0.9315     H
C       0.1519   0.8468   0.9607     C
H       0.1528   0.2866   0.4315     H
C       0.1713   0.9492   0.9211     C
C       0.1775   0.4714      0.3     C
C       0.1776   0.4934   0.9289     C
C       0.1785   0.8852   0.6392     C
C       0.1867    0.318    0.887     C
C       0.2069    0.426   0.3709     C
C       0.2103   0.1478   0.8609     C
C       0.2191    0.426   0.8709     C
F       0.2209   0.8242   0.6724     F
C       0.2221   0.0508   0.5789     C
H       0.2253   0.5436   0.2901     H
C       0.2329   0.2568   0.8368     C
O       0.2342   0.8228   0.9628     O
O       0.2443   0.5952    0.945     O
C       0.2577   0.9812   0.6089     C
O       0.2677   0.2086   0.5058     O
C       0.2765   0.0188   0.8911     C
C       0.2933   0.1148   0.8608     C
C       0.2939   0.4714      0.8     C
C       0.3024   0.3034   0.7647     C
C       0.3051   0.1532   0.5393     C
O       0.3138   0.7464   0.1102     O
C       0.3158   0.4934   0.4289     C
H       0.3183   0.5436   0.7901     H
H       0.3302   0.8072   0.0908     H
H       0.3306   0.2628   0.7283     H
C       0.3308   0.4076   0.7453     C
H       0.3363   0.9988   0.6088     H
H       0.3375   0.0012   0.8912     H
O       0.3509   0.5952    0.445     O
O       0.3708    0.449   0.4606     O
F       0.3967   0.1758   0.8276     F
C       0.4046   0.4516   0.6645     C
O       0.4114   0.1772   0.5372     O
O       0.4275   0.5454   0.6481     O
O       0.4326   0.7464   0.6102     O
O        0.437   0.3886    0.621     O
Tb     0.46749  0.34548   0.4679    Tb
H        0.477   0.8072   0.5908     H
H        0.523   0.1928   0.4092     H
Tb     0.53251  0.65452   0.5321    Tb
O        0.563   0.6114    0.379     O
O       0.5674   0.2536   0.3898     O
O       0.5725   0.4546   0.3519     O
O       0.5886   0.8228   0.4628     O
C       0.5954   0.5484   0.3355     C
F       0.6033   0.8242   0.1724     F
O       0.6292    0.551   0.5394     O
O       0.6491   0.4048    0.555     O
H       0.6625   0.9988   0.1088     H
H       0.6637   0.0012   0.3912     H
C       0.6692   0.5924   0.2547     C
H       0.6694   0.7372   0.2717     H
H       0.6698   0.1928   0.9092     H
H       0.6817   0.4564   0.2099     H
C       0.6842   0.5066   0.5711     C
O       0.6862   0.2536   0.8898     O
C       0.6949   0.8468   0.4607     C
C       0.6976   0.6966   0.2353     C
C       0.7061   0.5286      0.2     C
C       0.7067   0.8852   0.1392     C
C       0.7235   0.9812   0.1089     C
O       0.7323   0.7914   0.4942     O
C       0.7423   0.0188   0.3911     C
O       0.7557   0.4048    0.055     O
O       0.7658   0.1772   0.0372     O
C       0.7671   0.7432   0.1632     C
H       0.7747   0.4564   0.7099     H
C       0.7779   0.9492   0.4211     C
F       0.7791   0.1758   0.3276     F
C       0.7809    0.574   0.1291     C
C       0.7897   0.8522   0.1391     C
C       0.7931    0.574   0.6291     C
C       0.8133    0.682    0.113     C
C       0.8215   0.1148   0.3608     C
C       0.8224   0.5066   0.0711     C
C       0.8225   0.5286      0.7     C
C       0.8287   0.0508   0.0789     C
H       0.8472   0.7134   0.5685     H
C       0.8481   0.1532   0.0393     C
H       0.8662   0.7134   0.0685     H
C       0.8687    0.682    0.613     C
Tb     0.87799  0.34548   0.9679    Tb
O       0.8821   0.4546   0.8519     O
C       0.8928   0.9746   0.4176     C
C       0.8988   0.9252   0.1129     C
H       0.9179   0.9262   0.4351     H
C       0.9182   0.0254   0.0824     C
O       0.9218    0.551   0.0394     O
C       0.9232   0.5924   0.7547     C
H       0.9322   0.2628   0.2283     H
C       0.9375   0.1478   0.3609     C
O       0.9409   0.2086   0.0058     O
H        0.948    0.908   0.6153     H
O       0.9516   0.3886    0.121     O
C        0.953   0.5484   0.8355     C
H         0.96    0.908   0.1153     H
C       0.9736   0.0748   0.3871     C
C       0.9761   0.7432   0.6632     C
H       0.9917   0.0738   0.0649     H
C        0.999   0.6966   0.7353     C
