data_I
_chemical_name_common  '/home/zhangsd/repos/MofS-CGCNN/ML/data/TSD/clean_cifs/IHIMAP_clean'
_cell_length_a  7.97600
_cell_length_b 12.00600
_cell_length_c 12.28400
_cell_angle_alpha 112.01000
_cell_angle_beta  90.05000
_cell_angle_gamma 100.58000
_space_group_name_H-M_alt      'P 1'


loop_
_space_group_symop_operation_xyz
  'x, y, z' 

loop_
_atom_site_label
_atom_site_fract_x
_atom_site_fract_y
_atom_site_fract_z
_atom_site_type_symbol
La     0.00888  0.85692  0.14682    La
O       0.0099   0.0791   0.1755     O
O       0.0172   0.1527   0.6498     O
H        0.043   0.1095   0.4151     H
O        0.051   0.6449   0.9894     O
H       0.0737   0.2486   0.4967     H
H       0.1171   0.4459   0.8369     H
C       0.1226   0.1756   0.4742     C
H       0.1301   0.7436   0.7883     H
C       0.1381   0.1431   0.5813     C
C       0.1444   0.9182    0.799     C
C       0.1803   0.6431    0.044     C
C       0.2146   0.8041    0.773     C
O       0.2286   0.7221   0.1496     O
O       0.2323   0.8986   0.0202     O
O       0.2335   0.0128   0.7913     O
H       0.2348   0.7709   0.6902     H
C       0.2399   0.4738   0.8534     C
O       0.2648   0.9862   0.2838     O
H       0.2674   0.2317   0.3611     H
H       0.2679   0.4867   0.0238     H
O        0.269   0.1037   0.5949     O
O       0.2728   0.2783   0.8555     O
H       0.2797   0.5255   0.8103     H
C       0.2842   0.5445    0.985     C
C       0.2866   0.1979   0.4193     C
C       0.3271   0.3671   0.8183     C
C       0.3557   0.0822   0.3612     C
C       0.3648   0.8602   0.9777     C
H        0.371   0.2579   0.4795     H
C       0.3847   0.8269    0.848     C
H       0.4045    0.583   0.9974     H
H       0.4328   0.7535   0.8183     H
O       0.4523   0.3605   0.7561     O
H       0.4655   0.8925   0.8376     H
O       0.4842   0.8502   0.0382     O
O       0.4888   0.9196   0.6162     O
La     0.49133  0.14293  0.75029    La
La     0.50867  0.85707  0.24971    La
O       0.5112   0.0804   0.3838     O
O       0.5158   0.1498   0.9618     O
H       0.5345   0.1075   0.1624     H
O       0.5477   0.6395   0.2439     O
H       0.5672   0.2465   0.1817     H
H       0.5955    0.417   0.0026     H
C       0.6153   0.1731    0.152     C
H        0.629   0.7421   0.5205     H
C       0.6352   0.1398   0.0223     C
C       0.6443   0.9178   0.6388     C
C       0.6729   0.6329   0.1817     C
C       0.7134   0.8021   0.5807     C
C       0.7158   0.4555    0.015     C
H       0.7203   0.4745   0.1897     H
O       0.7272   0.7217   0.1445     O
O        0.731   0.8963   0.4051     O
H       0.7321   0.5133   0.9762     H
H       0.7326   0.7683   0.6389     H
O       0.7352   0.0138   0.7162     O
C       0.7601   0.5262   0.1466     C
H       0.7652   0.2291   0.3098     H
O       0.7665   0.9872   0.2087     O
O       0.7677   0.1014   0.9798     O
O       0.7714   0.2779   0.8504     O
C       0.7854   0.1959    0.227     C
C       0.8197   0.3569    0.956     C
C       0.8556   0.0818    0.201     C
C       0.8619   0.8569   0.4187     C
H       0.8699   0.2564   0.2117     H
C       0.8774   0.8244   0.5258     C
H       0.8829   0.5541   0.1631     H
H       0.9263   0.7514   0.5033     H
O        0.949   0.3551   0.0106     O
H        0.957   0.8905   0.5849     H
O       0.9828   0.8473   0.3502     O
O       0.9901   0.9209   0.8245     O
La     0.99112  0.14308  0.85318    La
