data_I
_chemical_name_common  '/home/zhangsd/repos/MofS-CGCNN/ML/data/TSD/clean_cifs/IHIMAP01_clean'
_cell_length_a  7.97900
_cell_length_b 12.09500
_cell_length_c 12.29700
_cell_angle_alpha 111.68100
_cell_angle_beta  89.93200
_cell_angle_gamma 100.15800
_space_group_name_H-M_alt      'P 1'


loop_
_space_group_symop_operation_xyz
  'x, y, z' 

loop_
_atom_site_label
_atom_site_fract_x
_atom_site_fract_y
_atom_site_fract_z
_atom_site_type_symbol
O       0.0081    0.574   0.6728     O
La     0.00938  0.35459  0.64608    La
O       0.0148   0.6543     0.15     O
H       0.0375   0.5975   0.9161     H
O       0.0536   0.1465   0.4938     O
H       0.0606   0.7364   0.9907     H
C       0.1143   0.6663   0.9723     C
H       0.1222   0.9492   0.3474     H
C       0.1369   0.6419   0.0828     C
C       0.1436   0.4235   0.3019     C
C       0.1809    0.141   0.5471     C
C        0.216   0.3079   0.2755     C
O       0.2307   0.2196   0.6499     O
O       0.2317   0.3972   0.5202     O
O       0.2334   0.5154   0.2938     O
C       0.2449   0.9741   0.3641     C
H        0.261   0.7224   0.8563     H
H       0.2618   0.9852   0.5327     H
O       0.2635   0.4843   0.7826     O
O       0.2682   0.6065   0.0968     O
O       0.2722   0.7796   0.3567     O
C       0.2819    0.689   0.9145     C
C       0.2836   0.0422   0.4935     C
H       0.2861   0.0271   0.3229     H
C       0.3259   0.8653   0.3208     C
C       0.3539   0.5757   0.8565     C
C       0.3652   0.3606   0.4781     C
H       0.3656   0.7486   0.9738     H
C       0.3841   0.3303   0.3488     C
H       0.4041   0.0784    0.508     H
O       0.4458   0.8578   0.2569     O
O        0.487   0.3491   0.5377     O
La     0.49033  0.64508  0.25104    La
O       0.4924   0.4246   0.1191     O
O       0.5076   0.5754   0.8809     O
La     0.50967  0.35492  0.74896    La
O        0.513   0.6509   0.4623     O
O       0.5542   0.1422   0.7431     O
H       0.5959   0.9216    0.492     H
C       0.6159   0.6697   0.6512     C
H       0.6344   0.2514   0.0262     H
C       0.6348   0.6394   0.5219     C
C       0.6461   0.4243   0.1435     C
C       0.6741   0.1347   0.6792     C
H       0.7139   0.9729   0.6771     H
C       0.7164   0.9578   0.5065     C
C       0.7181    0.311   0.0855     C
O       0.7278   0.2204   0.6433     O
O       0.7318   0.3935   0.9032     O
O       0.7365   0.5157   0.2174     O
H       0.7382   0.0148   0.4673     H
H        0.739   0.2776   0.1437     H
C       0.7551   0.0259   0.6359     C
O       0.7666   0.4846   0.7062     O
O       0.7683   0.6028   0.4798     O
O       0.7693   0.7804   0.3501     O
C        0.784   0.6921   0.7245     C
C       0.8191    0.859   0.4529     C
C       0.8564   0.5765   0.6981     C
C       0.8631   0.3581   0.9172     C
H       0.8778   0.0508   0.6526     H
C       0.8857   0.3337   0.0277     C
H       0.9394   0.2636   0.0093     H
O       0.9464   0.8535   0.5062     O
H       0.9625   0.4025   0.0839     H
O       0.9852   0.3457     0.85     O
La     0.99062  0.64541  0.35392    La
O       0.9919    0.426   0.3272     O
