data_I
_chemical_name_common  '/home/zhangsd/repos/MofS-CGCNN/ML/data/TSD/clean_cifs/IJEVIE_clean'
_cell_length_a 10.14300
_cell_length_b 16.12700
_cell_length_c 22.93700
_cell_angle_alpha 79.01500
_cell_angle_beta  84.96300
_cell_angle_gamma 77.48400
_space_group_name_H-M_alt      'P 1'


loop_
_space_group_symop_operation_xyz
  'x, y, z' 

loop_
_atom_site_label
_atom_site_fract_x
_atom_site_fract_y
_atom_site_fract_z
_atom_site_type_symbol
C        0.002   0.8989   0.6377     C
C       0.0195   0.8544   0.5905     C
C        0.021   0.5769   0.6414     C
C       0.0333   0.6363   0.5894     C
O       0.0335   0.0625   0.1595     O
O       0.0338   0.4029   0.1162     O
H       0.0443    0.334   0.4301     H
H       0.0499   0.1695   0.4188     H
O       0.0546   0.0328   0.7779     O
C       0.0658    0.971   0.8209     C
C       0.0799   0.5724   0.8575     C
O       0.0886   0.5357   0.8136     O
H       0.0935   0.9597   0.6868     H
C       0.1057    0.932   0.6541     C
H       0.1103   0.6447   0.9488     H
C       0.1147   0.4422   0.3365     C
O       0.1202   0.4887   0.2851     O
H       0.1276   0.4961   0.7059     H
H       0.1296   0.8507   0.9149     H
C       0.1348   0.0866   0.3307     C
C       0.1353    0.534   0.6703     C
Cd     0.13597  0.44438  0.19551    Cd
C       0.1434   0.8454   0.5567     C
O       0.1499    0.075   0.2779     O
C       0.1579   0.6523   0.5658     C
O       0.1676   0.5869    0.164     O
C       0.1691    0.801   0.5043     C
C       0.1736   0.7133   0.5086     C
O       0.1827   0.8718   0.1566     O
C       0.1921   0.6337   0.9271     C
H       0.1958   0.9079   0.4479     H
C       0.1977   0.9356   0.8496     C
C       0.2017   0.5917    0.878     C
C       0.2021   0.8489   0.4506     C
Cd     0.20449  0.97191   0.2114    Cd
C       0.2052   0.8738    0.901     C
H        0.207   0.6198   0.4575     H
C       0.2084   0.6776   0.4562     C
O       0.2112   0.4203   0.3689     O
O       0.2117   0.8826   0.3007     O
C       0.2307   0.9232   0.6205     C
O       0.2341   0.6217   0.3447     O
O       0.2379   0.0855   0.3609     O
C       0.2443   0.7261   0.4031     C
C       0.2443   0.8121   0.4005     C
C       0.2488   0.8819   0.5734     C
C       0.2535    0.631   0.1624     C
C       0.2619    0.546   0.6477     C
H       0.2637   0.5985   0.0565     H
C       0.2725   0.6069   0.5953     C
C       0.2766   0.6865   0.1045     C
C       0.2775   0.6544   0.0533     C
C       0.2839   0.8691   0.3443     C
C       0.2866   0.8214   0.1509     C
C       0.2941   0.6798   0.3502     C
C       0.2975   0.7731   0.0995     C
C       0.2981   0.7014   0.9963     C
C       0.3059   0.6594   0.9436     C
H       0.3121   0.0068   0.7923     H
C       0.3143   0.8202   0.0416     C
C       0.3149   0.9659    0.827     C
C       0.3164    0.786   0.9911     C
O       0.3187   0.6311   0.2061     O
C       0.3227   0.8456   0.9322     C
Cd     0.32378  0.52314  0.28797    Cd
H       0.3244    0.877   0.0377     H
C       0.3255   0.5739   0.8459     C
H       0.3308   0.8771   0.5514     H
O       0.3315   0.4067   0.1494     O
H       0.3336   0.5438   0.8146     H
O       0.3409   0.0482   0.1357     O
O        0.344   0.9784    0.686     O
C       0.3507   0.9524   0.6371     C
H       0.3571   0.6166   0.5803     H
O       0.3765   0.4377   0.7224     O
O       0.3806   0.9038   0.3472     O
O       0.3828   0.8117   0.1823     O
C       0.3873   0.4969   0.6789     C
O       0.3883   0.7053   0.3184     O
Cd     0.42404  0.03628   0.3069    Cd
C       0.4267   0.6439   0.9096     C
O       0.4299   0.4342   0.2242     O
C       0.4321   0.4164   0.1738     C
C       0.4348   0.9353    0.856     C
C       0.4352   0.8765   0.9096     C
O       0.4365   0.9882     0.22     O
C       0.4377    0.602   0.8615     C
C       0.4405    0.032   0.1672     C
O       0.4528   0.9493   0.6028     O
H       0.4859   0.1419   0.0697     H
O       0.4955   0.5197   0.6596     O
H       0.4984   0.3379   0.0806     H
Cd      0.4988  0.68616  0.23099    Cd
Cd         0.5      0.0      0.5    Cd
Cd      0.5012  0.31384  0.76901    Cd
H       0.5016   0.6621   0.9194     H
O       0.5045   0.4803   0.3404     O
H       0.5141   0.8581   0.9303     H
O       0.5472   0.0507   0.3972     O
C       0.5595    0.968   0.8328     C
C       0.5623    0.398   0.1385     C
O       0.5635   0.0118     0.78     O
C       0.5648   0.1235   0.0904     C
C       0.5652   0.0647    0.144     C
C       0.5679   0.5836   0.8262     C
O       0.5701   0.5658   0.7758     O
C       0.5733   0.3561   0.0904     C
Cd     0.57596  0.96372   0.6931    Cd
O       0.6117   0.2947   0.6816     O
C       0.6127   0.5031   0.3211     C
O       0.6172   0.1883   0.8177     O
O       0.6194   0.0962   0.6528     O
O       0.6235   0.5623   0.2776     O
H       0.6429   0.3834   0.4197     H
C       0.6493   0.0476   0.3629     C
O        0.656   0.0216    0.314     O
O       0.6591   0.9518   0.8643     O
H       0.6664   0.4562   0.1854     H
O       0.6685   0.5933   0.8506     O
H       0.6692   0.1229   0.4486     H
C       0.6745   0.4261   0.1541     C
H       0.6756    0.123   0.9623     H
Cd     0.67622  0.47686  0.71203    Cd
C       0.6773   0.1544   0.0678     C
O       0.6813   0.3689   0.7939     O
C       0.6836    0.214   0.0089     C
C       0.6851   0.0341    0.173     C
C       0.6857   0.1798   0.9584     C
H       0.6879   0.9932   0.2077     H
C       0.6941   0.3406   0.0564     C
C       0.7019   0.2986   0.0037     C
C       0.7025   0.2269   0.9005     C
C       0.7059   0.3202   0.6498     C
C       0.7134   0.1786   0.8491     C
C       0.7161   0.1309   0.6557     C
C       0.7225   0.3456   0.9467     C
C       0.7234   0.3135   0.8955     C
C       0.7275   0.3931   0.4047     C
H       0.7363   0.4015   0.9435     H
C       0.7381    0.454   0.3523     C
C       0.7465    0.369   0.8376     C
C       0.7512   0.1181   0.4266     C
C       0.7557   0.1879   0.5995     C
C       0.7557   0.2739   0.5969     C
O       0.7621   0.9145   0.6391     O
O       0.7659   0.3783   0.6553     O
C       0.7693   0.0768   0.3795     C
O       0.7883   0.1174   0.6993     O
O       0.7888   0.5797   0.6311     O
C       0.7916   0.3224   0.5438     C
H        0.793   0.3802   0.5425     H
C       0.7948   0.1262    0.099     C
Cd     0.79551  0.02809   0.7886    Cd
C       0.7979   0.1511   0.5494     C
C       0.7983   0.4083    0.122     C
C       0.8023   0.0644   0.1504     C
H       0.8042   0.0921   0.5521     H
C       0.8079   0.3663   0.0729     C
O       0.8173   0.1282   0.8434     O
C       0.8264   0.2867   0.4914     C
C       0.8309    0.199   0.4957     C
O       0.8324   0.4131    0.836     O
C       0.8421   0.3477   0.4342     C
O       0.8501    0.925   0.7221     O
C       0.8566   0.1546   0.4433     C
Cd     0.86403  0.55562  0.80449    Cd
C       0.8647    0.466   0.3297     C
C       0.8652   0.9134   0.6693     C
H       0.8704   0.1493   0.0851     H
H       0.8724   0.5039   0.2941     H
O       0.8798   0.5113   0.7149     O
C       0.8853   0.5578   0.6635     C
H       0.8897   0.3553   0.0512     H
C       0.8943    0.068   0.3459     C
H       0.9065   0.0403   0.3132     H
O       0.9114   0.4643   0.1864     O
C       0.9201   0.4276   0.1425     C
C       0.9342    0.029   0.1791     C
O       0.9454   0.9672   0.2221     O
H       0.9501   0.8305   0.5812     H
H       0.9557    0.666   0.5699     H
O       0.9662   0.5971   0.8838     O
O       0.9665   0.9375   0.8405     O
C       0.9667   0.3637   0.4106     C
C        0.979   0.4231   0.3586     C
C       0.9805   0.1456   0.4095     C
C        0.998   0.1011   0.3623     C
