data_I
_chemical_name_common  '/home/zhangsd/repos/MofS-CGCNN/ML/data/TSD/clean_cifs/IJEXIF_clean'
_cell_length_a 16.37900
_cell_length_b 16.36100
_cell_length_c 28.99900
_cell_angle_alpha 90.00000
_cell_angle_beta  90.00000
_cell_angle_gamma 90.00000
_space_group_name_H-M_alt      'P 1'


loop_
_space_group_symop_operation_xyz
  'x, y, z' 

loop_
_atom_site_label
_atom_site_fract_x
_atom_site_fract_y
_atom_site_fract_z
_atom_site_type_symbol
O      0.00574  0.10692  0.70655     O
O      0.00574  0.39308  0.20655     O
O      0.01517  0.62773  0.31348     O
O      0.01517  0.87227  0.81348     O
H        0.019   0.6653   0.8447     H
H        0.019   0.8347   0.3447     H
O      0.01989  0.69942  0.86589     O
O      0.01989  0.80058  0.36589     O
H       0.0275   0.5016   0.2671     H
H       0.0275   0.9984   0.7671     H
O        0.039  0.67183   0.9704     O
O        0.039  0.82817   0.4704     O
Zn     0.04027  0.15991  0.57999    Zn
Zn     0.04027  0.34009  0.07999    Zn
Zn     0.04947   0.2225  0.16928    Zn
Zn     0.04947   0.2775  0.66928    Zn
C      0.05939  0.14204  0.72849     C
C      0.05939  0.35796  0.22849     C
O      0.07095  0.04939  0.57404     O
O      0.07095  0.45061  0.07404     O
C       0.0717  0.02215   0.7822     C
C       0.0717  0.47785   0.2822     C
H       0.0783   0.5694   0.0266     H
H       0.0783   0.9306   0.5266     H
C      0.07832  0.60017  0.33397     C
C      0.07832  0.89983  0.83397     C
O      0.08529  0.21506  0.72163     O
O      0.08529  0.28494  0.22163     O
C      0.10025  0.09785  0.76793     C
C      0.10025  0.40215  0.26793     C
C      0.10849   0.5185   0.3188     C
C      0.10849   0.9815   0.8188     C
C      0.11187  0.69515  0.97512     C
C      0.11187  0.80485  0.47512     C
O      0.11657  0.63683  0.36509     O
O      0.11657  0.86317  0.86509     O
C       0.1264   0.5927   0.0374     C
C       0.1264   0.9073   0.5374     C
O      0.12666   0.2387  0.56701     O
O      0.12666   0.2613  0.06701     O
Zn     0.12711  0.74667  0.88234    Zn
Zn     0.12711  0.75333  0.38234    Zn
O      0.13613  0.18309  0.13019     O
O      0.13613  0.31691  0.63019     O
C      0.13639  0.02418  0.59318     C
C      0.13639  0.47582  0.09318     C
O      0.14978  0.74145  0.94835     O
O      0.14978  0.75855  0.44835     O
C      0.15587  0.66251  0.01659     C
C      0.15587  0.83749  0.51659     C
C      0.15954  0.20638  0.09106     C
C      0.15954  0.29362  0.59106     C
C        0.166  0.13245  0.79061     C
C        0.166  0.36755  0.29061     C
C      0.16671  0.55636  0.07406     C
C      0.16671  0.94364  0.57406     C
O      0.17325  0.05999  0.62317     O
O      0.17325  0.44001  0.12317     O
C      0.17485  0.01764  0.84116     C
C      0.17485  0.48236  0.34116     C
O      0.17972  0.59221  0.87606     O
O      0.17972  0.90779  0.37606     O
H       0.1854   0.1832   0.7811     H
H       0.1854   0.3168   0.2811     H
H       0.1999   0.5092   0.3656     H
H       0.1999   0.9908   0.8656     H
C      0.20348  0.09312  0.82711     C
C      0.20348  0.40688  0.32711     C
O      0.21953  0.71053  0.84632     O
O      0.21953  0.78947  0.34632     O
C      0.22637  0.63272  0.85205     C
C      0.22637  0.86728  0.35205     C
C      0.22681  0.69836  0.03324     C
C      0.22681  0.80164  0.53324     C
C      0.23347  0.16516  0.07123     C
C      0.23347  0.33484  0.57123     C
H       0.2363   0.0706   0.1164     H
H       0.2363   0.4294   0.6164     H
C      0.23667  0.59348  0.09137     C
C      0.23667  0.90652  0.59137     C
H       0.2478   0.7447   0.0189     H
H       0.2478   0.7553   0.5189     H
H       0.2522   0.2447   0.0189     H
H       0.2522   0.2553   0.5189     H
C      0.26333  0.09348  0.09137     C
C      0.26333  0.40652  0.59137     C
H       0.2637   0.5706   0.1164     H
H       0.2637   0.9294   0.6164     H
C      0.26653  0.66516  0.07123     C
C      0.26653  0.83484  0.57123     C
C      0.27319  0.19836  0.03324     C
C      0.27319  0.30164  0.53324     C
C      0.27363  0.13272  0.85205     C
C      0.27363  0.36728  0.35205     C
O      0.28047  0.21053  0.84632     O
O      0.28047  0.28947  0.34632     O
C      0.29652  0.59312  0.82711     C
C      0.29652  0.90688  0.32711     C
H       0.3001   0.0092   0.3656     H
H       0.3001   0.4908   0.8656     H
H       0.3146   0.6832   0.7811     H
H       0.3146   0.8168   0.2811     H
O      0.32028  0.09221  0.87606     O
O      0.32028  0.40779  0.37606     O
C      0.32515  0.51764  0.84116     C
C      0.32515  0.98236  0.34116     C
O      0.32675  0.55999  0.62317     O
O      0.32675  0.94001  0.12317     O
C      0.33329  0.05636  0.07406     C
C      0.33329  0.44364  0.57406     C
C        0.334  0.63245  0.79061     C
C        0.334  0.86755  0.29061     C
C      0.34046  0.70638  0.09106     C
C      0.34046  0.79362  0.59106     C
C      0.34413  0.16251  0.01659     C
C      0.34413  0.33749  0.51659     C
O      0.35022  0.24145  0.94835     O
O      0.35022  0.25855  0.44835     O
C      0.36361  0.52418  0.59318     C
C      0.36361  0.97582  0.09318     C
O      0.36387  0.68309  0.13019     O
O      0.36387  0.81691  0.63019     O
Zn     0.37289  0.24667  0.88234    Zn
Zn     0.37289  0.25333  0.38234    Zn
O      0.37334   0.7387  0.56701     O
O      0.37334   0.7613  0.06701     O
C       0.3736   0.0927   0.0374     C
C       0.3736   0.4073   0.5374     C
O      0.38343  0.13683  0.36509     O
O      0.38343  0.36317  0.86509     O
C      0.38813  0.19515  0.97512     C
C      0.38813  0.30485  0.47512     C
C      0.39151   0.0185   0.3188     C
C      0.39151   0.4815   0.8188     C
C      0.39975  0.59785  0.76793     C
C      0.39975  0.90215  0.26793     C
O      0.41471  0.71506  0.72163     O
O      0.41471  0.78494  0.22163     O
C      0.42168  0.10017  0.33397     C
C      0.42168  0.39983  0.83397     C
H       0.4217   0.0694   0.0266     H
H       0.4217   0.4306   0.5266     H
C       0.4283  0.52215   0.7822     C
C       0.4283  0.97785   0.2822     C
O      0.42905  0.54939  0.57404     O
O      0.42905  0.95061  0.07404     O
C      0.44061  0.64204  0.72849     C
C      0.44061  0.85796  0.22849     C
Zn     0.45052   0.7225  0.16928    Zn
Zn     0.45052   0.7775  0.66928    Zn
Zn     0.45973  0.65991  0.57999    Zn
Zn     0.45973  0.84009  0.07999    Zn
O        0.461  0.17183   0.9704     O
O        0.461  0.32817   0.4704     O
H       0.4725   0.0016   0.2671     H
H       0.4725   0.4984   0.7671     H
O      0.48011  0.19942  0.86589     O
O      0.48011  0.30058  0.36589     O
H        0.481   0.1653   0.8447     H
H        0.481   0.3347   0.3447     H
O      0.48483  0.12773  0.31348     O
O      0.48483  0.37227  0.81348     O
O      0.49426  0.60692  0.70655     O
O      0.49426  0.89308  0.20655     O
O      0.50574  0.10692  0.79345     O
O      0.50574  0.39308  0.29345     O
O      0.51517  0.62773  0.18652     O
O      0.51517  0.87227  0.68652     O
H        0.519   0.6653   0.6553     H
H        0.519   0.8347   0.1553     H
O      0.51989  0.69942  0.63411     O
O      0.51989  0.80058  0.13411     O
H       0.5275   0.5016   0.2329     H
H       0.5275   0.9984   0.7329     H
O        0.539  0.67183   0.5296     O
O        0.539  0.82817   0.0296     O
Zn     0.54027  0.15991  0.92001    Zn
Zn     0.54027  0.34009  0.42001    Zn
Zn     0.54947   0.2225  0.33072    Zn
Zn     0.54947   0.2775  0.83072    Zn
C      0.55939  0.14204  0.77151     C
C      0.55939  0.35796  0.27151     C
O      0.57095  0.04939  0.92596     O
O      0.57095  0.45061  0.42596     O
C       0.5717  0.02215   0.7178     C
C       0.5717  0.47785   0.2178     C
H       0.5783   0.5694   0.4734     H
H       0.5783   0.9306   0.9734     H
C      0.57832  0.60017  0.16603     C
C      0.57832  0.89983  0.66603     C
O      0.58529  0.21506  0.77837     O
O      0.58529  0.28494  0.27837     O
C      0.60025  0.09785  0.73207     C
C      0.60025  0.40215  0.23207     C
C      0.60849   0.5185   0.1812     C
C      0.60849   0.9815   0.6812     C
C      0.61187  0.69515  0.52488     C
C      0.61187  0.80485  0.02488     C
O      0.61657  0.63683  0.13491     O
O      0.61657  0.86317  0.63491     O
C       0.6264   0.5927   0.4626     C
C       0.6264   0.9073   0.9626     C
O      0.62666   0.2387  0.93299     O
O      0.62666   0.2613  0.43299     O
Zn     0.62711  0.74667  0.61766    Zn
Zn     0.62711  0.75333  0.11766    Zn
O      0.63613  0.18309  0.36981     O
O      0.63613  0.31691  0.86981     O
C      0.63639  0.02418  0.90682     C
C      0.63639  0.47582  0.40682     C
O      0.64978  0.74145  0.55165     O
O      0.64978  0.75855  0.05165     O
C      0.65587  0.66251  0.48341     C
C      0.65587  0.83749  0.98341     C
C      0.65954  0.20638  0.40894     C
C      0.65954  0.29362  0.90894     C
C        0.666  0.13245  0.70939     C
C        0.666  0.36755  0.20939     C
C      0.66671  0.55636  0.42594     C
C      0.66671  0.94364  0.92594     C
O      0.67325  0.05999  0.87683     O
O      0.67325  0.44001  0.37683     O
C      0.67485  0.01764  0.65884     C
C      0.67485  0.48236  0.15884     C
O      0.67972  0.59221  0.62394     O
O      0.67972  0.90779  0.12394     O
H       0.6854   0.1832   0.7189     H
H       0.6854   0.3168   0.2189     H
H       0.6999   0.5092   0.1344     H
H       0.6999   0.9908   0.6344     H
C      0.70348  0.09312  0.67289     C
C      0.70348  0.40688  0.17289     C
O      0.71953  0.71053  0.65368     O
O      0.71953  0.78947  0.15368     O
C      0.72637  0.63272  0.64795     C
C      0.72637  0.86728  0.14795     C
C      0.72681  0.69836  0.46676     C
C      0.72681  0.80164  0.96676     C
C      0.73347  0.16516  0.42877     C
C      0.73347  0.33484  0.92877     C
H       0.7363   0.0706   0.3836     H
H       0.7363   0.4294   0.8836     H
C      0.73667  0.59348  0.40863     C
C      0.73667  0.90652  0.90863     C
H       0.7478   0.7447   0.4811     H
H       0.7478   0.7553   0.9811     H
H       0.7522   0.2447   0.4811     H
H       0.7522   0.2553   0.9811     H
C      0.76333  0.09348  0.40863     C
C      0.76333  0.40652  0.90863     C
H       0.7637   0.5706   0.3836     H
H       0.7637   0.9294   0.8836     H
C      0.76653  0.66516  0.42877     C
C      0.76653  0.83484  0.92877     C
C      0.77319  0.19836  0.46676     C
C      0.77319  0.30164  0.96676     C
C      0.77363  0.13272  0.64795     C
C      0.77363  0.36728  0.14795     C
O      0.78047  0.21053  0.65368     O
O      0.78047  0.28947  0.15368     O
C      0.79652  0.59312  0.67289     C
C      0.79652  0.90688  0.17289     C
H       0.8001   0.0092   0.1344     H
H       0.8001   0.4908   0.6344     H
H       0.8146   0.6832   0.7189     H
H       0.8146   0.8168   0.2189     H
O      0.82028  0.09221  0.62394     O
O      0.82028  0.40779  0.12394     O
C      0.82515  0.51764  0.65884     C
C      0.82515  0.98236  0.15884     C
O      0.82675  0.55999  0.87683     O
O      0.82675  0.94001  0.37683     O
C      0.83329  0.05636  0.42594     C
C      0.83329  0.44364  0.92594     C
C        0.834  0.63245  0.70939     C
C        0.834  0.86755  0.20939     C
C      0.84046  0.70638  0.40894     C
C      0.84046  0.79362  0.90894     C
C      0.84413  0.16251  0.48341     C
C      0.84413  0.33749  0.98341     C
O      0.85022  0.24145  0.55165     O
O      0.85022  0.25855  0.05165     O
C      0.86361  0.52418  0.90682     C
C      0.86361  0.97582  0.40682     C
O      0.86387  0.68309  0.36981     O
O      0.86387  0.81691  0.86981     O
Zn     0.87289  0.24667  0.61766    Zn
Zn     0.87289  0.25333  0.11766    Zn
O      0.87334   0.7387  0.93299     O
O      0.87334   0.7613  0.43299     O
C       0.8736   0.0927   0.4626     C
C       0.8736   0.4073   0.9626     C
O      0.88343  0.13683  0.13491     O
O      0.88343  0.36317  0.63491     O
C      0.88813  0.19515  0.52488     C
C      0.88813  0.30485  0.02488     C
C      0.89151   0.0185   0.1812     C
C      0.89151   0.4815   0.6812     C
C      0.89975  0.59785  0.73207     C
C      0.89975  0.90215  0.23207     C
O      0.91471  0.71506  0.77837     O
O      0.91471  0.78494  0.27837     O
C      0.92168  0.10017  0.16603     C
C      0.92168  0.39983  0.66603     C
H       0.9217   0.0694   0.4734     H
H       0.9217   0.4306   0.9734     H
C       0.9283  0.52215   0.7178     C
C       0.9283  0.97785   0.2178     C
O      0.92905  0.54939  0.92596     O
O      0.92905  0.95061  0.42596     O
C      0.94061  0.64204  0.77151     C
C      0.94061  0.85796  0.27151     C
Zn     0.95052   0.7225  0.33072    Zn
Zn     0.95052   0.7775  0.83072    Zn
Zn     0.95973  0.65991  0.92001    Zn
Zn     0.95973  0.84009  0.42001    Zn
O        0.961  0.17183   0.5296     O
O        0.961  0.32817   0.0296     O
H       0.9725   0.0016   0.2329     H
H       0.9725   0.4984   0.7329     H
O      0.98011  0.19942  0.63411     O
O      0.98011  0.30058  0.13411     O
H        0.981   0.1653   0.6553     H
H        0.981   0.3347   0.1553     H
O      0.98483  0.12773  0.18652     O
O      0.98483  0.37227  0.68652     O
O      0.99426  0.60692  0.79345     O
O      0.99426  0.89308  0.29345     O
