data_I
_chemical_name_common  '/home/zhangsd/repos/MofS-CGCNN/ML/data/TSD/clean_cifs/IKOKEA_clean'
_cell_length_a  9.22760
_cell_length_b  9.28610
_cell_length_c  9.37890
_cell_angle_alpha 85.21280
_cell_angle_beta  77.31190
_cell_angle_gamma 89.34720
_space_group_name_H-M_alt      'P 1'


loop_
_space_group_symop_operation_xyz
  'x, y, z' 

loop_
_atom_site_label
_atom_site_fract_x
_atom_site_fract_y
_atom_site_fract_z
_atom_site_type_symbol
O       0.0001   0.8553   0.8145     O
F       0.0154    0.105   0.9194     F
Al      0.1336   0.9347   0.9159    Al
P         0.17  0.13943    0.137     P
O       0.2272   0.7664   0.9332     O
O       0.2278   0.1194   0.2803     O
O       0.2315   0.2863   0.0597     O
O       0.2329   0.0236   0.0367     O
O        0.254   0.0126    0.746     O
O       0.3507   0.5249   0.8758     O
O       0.3611   0.1678   0.5172     O
O       0.3682   0.2552   0.7566     O
P       0.3755   0.1206  0.67611     P
Al      0.3768  0.34171   0.9144    Al
P       0.3791  0.68407  0.90472     P
Al      0.3956   0.1193   0.3395    Al
O       0.4598   0.6877   0.0381     O
O       0.4729    0.949    0.331     O
O       0.4883   0.7454   0.7667     O
O       0.5117   0.2546   0.2333     O
O       0.5271    0.051    0.669     O
O       0.5402   0.3123   0.9619     O
Al      0.6044   0.8807   0.6605    Al
P       0.6209  0.31593  0.09528     P
Al      0.6232  0.65829   0.0856    Al
P       0.6245   0.8794  0.32389     P
O       0.6318   0.7448   0.2434     O
O       0.6389   0.8322   0.4828     O
O       0.6493   0.4751   0.1242     O
O        0.746   0.9874    0.254     O
O       0.7671   0.9764   0.9633     O
O       0.7685   0.7137   0.9403     O
O       0.7722   0.8806   0.7197     O
O       0.7728   0.2336   0.0668     O
P         0.83  0.86057    0.863     P
Al      0.8664   0.0653   0.0841    Al
F       0.9846    0.895   0.0806     F
O       0.9999   0.1447   0.1855     O
