data_I
_chemical_name_common  '/home/zhangsd/repos/MofS-CGCNN/ML/data/TSD/clean_cifs/ILENOC_clean'
_cell_length_a 19.56900
_cell_length_b  9.70340
_cell_length_c 14.92700
_cell_angle_alpha 90.00000
_cell_angle_beta  119.09100
_cell_angle_gamma 90.00000
_space_group_name_H-M_alt      'P 1'


loop_
_space_group_symop_operation_xyz
  'x, y, z' 

loop_
_atom_site_label
_atom_site_fract_x
_atom_site_fract_y
_atom_site_fract_z
_atom_site_type_symbol
In         0.0      0.0      0.0    In
In         0.0      0.0      0.5    In
In         0.0      0.5      0.5    In
In     0.01224      0.0  0.76073    In
O       0.0178    0.353   0.4022     O
O       0.0178    0.647   0.4022     O
F       0.0532      0.0   0.1619     F
F       0.0619      0.0   0.6621     F
O        0.063   0.1609   0.3317     O
O        0.063   0.8391   0.3317     O
P      0.07748  0.23991   0.4257     P
P      0.07748  0.76009   0.4257     P
O       0.0786   0.1553   0.0143     O
O       0.0786   0.8447   0.0143     O
O       0.0822   0.1497   0.5106     O
O       0.0822   0.8503   0.5106     O
O       0.0896   0.1536   0.8527     O
O       0.0896   0.8464   0.8527     O
P      0.12654  0.20039  0.96368     P
P      0.12654  0.79961  0.96368     P
O       0.1283    0.359   0.9663     O
O       0.1283    0.641   0.9663     O
O        0.158    0.308   0.4679     O
O        0.158    0.692   0.4679     O
F       0.1633      0.5   0.8205     F
H       0.1896   0.2514    0.469     H
H       0.1896   0.7486    0.469     H
O       0.2097   0.1479   0.0278     O
O       0.2097   0.8521   0.0278     O
In     0.21794      0.5  0.98608    In
F       0.2343      0.0   0.8567     F
F       0.2657      0.5   0.1433     F
In     0.28206      0.0  0.01392    In
O       0.2903   0.3521   0.9722     O
O       0.2903   0.6479   0.9722     O
H       0.3104   0.2486    0.531     H
H       0.3104   0.7514    0.531     H
F       0.3367      0.0   0.1795     F
O        0.342    0.192   0.5321     O
O        0.342    0.808   0.5321     O
O       0.3717    0.141   0.0337     O
O       0.3717    0.859   0.0337     O
P      0.37346  0.29961  0.03632     P
P      0.37346  0.70039  0.03632     P
O       0.4104   0.3464   0.1473     O
O       0.4104   0.6536   0.1473     O
O       0.4178   0.3503   0.4894     O
O       0.4178   0.6497   0.4894     O
O       0.4214   0.3447   0.9857     O
O       0.4214   0.6553   0.9857     O
P      0.42252  0.26009   0.5743     P
P      0.42252  0.73991   0.5743     P
O        0.437   0.3391   0.6683     O
O        0.437   0.6609   0.6683     O
F       0.4381      0.5   0.3379     F
F       0.4468      0.5   0.8381     F
O       0.4822    0.147   0.5978     O
O       0.4822    0.853   0.5978     O
In     0.48776      0.5  0.23927    In
In         0.5      0.0      0.5    In
In         0.5      0.5      0.0    In
In         0.5      0.5      0.5    In
In     0.51224      0.5  0.76073    In
O       0.5178    0.147   0.4022     O
O       0.5178    0.853   0.4022     O
F       0.5532      0.5   0.1619     F
F       0.5619      0.5   0.6621     F
O        0.563   0.3391   0.3317     O
O        0.563   0.6609   0.3317     O
P      0.57748  0.26009   0.4257     P
P      0.57748  0.73991   0.4257     P
O       0.5786   0.3447   0.0143     O
O       0.5786   0.6553   0.0143     O
O       0.5822   0.3503   0.5106     O
O       0.5822   0.6497   0.5106     O
O       0.5896   0.3464   0.8527     O
O       0.5896   0.6536   0.8527     O
P      0.62654  0.29961  0.96368     P
P      0.62654  0.70039  0.96368     P
O       0.6283    0.141   0.9663     O
O       0.6283    0.859   0.9663     O
O        0.658    0.192   0.4679     O
O        0.658    0.808   0.4679     O
F       0.6633      0.0   0.8205     F
H       0.6896   0.2486    0.469     H
H       0.6896   0.7514    0.469     H
O       0.7097   0.3521   0.0278     O
O       0.7097   0.6479   0.0278     O
In     0.71794      0.0  0.98608    In
F       0.7343      0.5   0.8567     F
F       0.7657      0.0   0.1433     F
In     0.78206      0.5  0.01392    In
O       0.7903   0.1479   0.9722     O
O       0.7903   0.8521   0.9722     O
H       0.8104   0.2514    0.531     H
H       0.8104   0.7486    0.531     H
F       0.8367      0.5   0.1795     F
O        0.842    0.308   0.5321     O
O        0.842    0.692   0.5321     O
O       0.8717    0.359   0.0337     O
O       0.8717    0.641   0.0337     O
P      0.87346  0.20039  0.03632     P
P      0.87346  0.79961  0.03632     P
O       0.9104   0.1536   0.1473     O
O       0.9104   0.8464   0.1473     O
O       0.9178   0.1497   0.4894     O
O       0.9178   0.8503   0.4894     O
O       0.9214   0.1553   0.9857     O
O       0.9214   0.8447   0.9857     O
P      0.92252  0.23991   0.5743     P
P      0.92252  0.76009   0.5743     P
O        0.937   0.1609   0.6683     O
O        0.937   0.8391   0.6683     O
F       0.9381      0.0   0.3379     F
F       0.9468      0.0   0.8381     F
O       0.9822    0.353   0.5978     O
O       0.9822    0.647   0.5978     O
In     0.98776      0.0  0.23927    In
