data_I
_chemical_name_common  '/home/zhangsd/repos/MofS-CGCNN/ML/data/TSD/clean_cifs/ILIMOH_clean'
_cell_length_a 27.73710
_cell_length_b 27.73710
_cell_length_c  9.62250
_cell_angle_alpha 90.00000
_cell_angle_beta  90.00000
_cell_angle_gamma 120.00000
_space_group_name_H-M_alt      'P 1'


loop_
_space_group_symop_operation_xyz
  'x, y, z' 

loop_
_atom_site_label
_atom_site_fract_x
_atom_site_fract_y
_atom_site_fract_z
_atom_site_type_symbol
Ni         0.0      0.5      0.0    Ni
C       0.0069   0.7189   0.7837     C
H      0.00867  0.16363  0.49083     H
H      0.01023  0.39277  0.03047     H
H      0.01063  0.63297  0.41757     H
N      0.01327  0.44583  0.38933     N
N      0.01403  0.54457  0.82347     N
C       0.0169   0.7504   0.9009     C
H       0.0194   0.2172   0.9785     H
C      0.02377  0.47793  0.27533     C
C       0.0243   0.2384   0.0578     C
C      0.02733  0.84487  0.53107     C
H      0.02783  0.87227  0.72347     H
C      0.03233  0.40857  0.95227     C
H       0.0337    0.711   0.7509     H
C      0.03513  0.59917  0.65137     C
C       0.0429    0.301   0.2856     C
H      0.04303  0.82087  0.34887     H
N      0.04343  0.45917  0.91187     N
H      0.04433  0.34397  0.91577     H
C      0.04533  0.65977  0.45037     C
C      0.04893  0.86627  0.65787     C
H       0.0492   0.3231   0.3638     H
C      0.05223  0.37867  0.88297     C
N      0.05403  0.59587  0.77667     N
C      0.05863  0.83577  0.43497     C
H      0.05943  0.71587  0.30287     H
C      0.06683  0.64977  0.56757     C
C       0.0675   0.7693   0.9847     C
N      0.07007  0.55563  0.12823     N
C      0.07077  0.53453  0.25493     C
N       0.0708   0.7915     0.11     N
C       0.0716   0.2582   0.1326     C
C      0.07513  0.48007  0.79927     C
C      0.07523  0.70957  0.38107     C
N       0.0824   0.2899   0.2452     N
C      0.08373  0.40017  0.76577     C
H      0.08413  0.51557  0.77057     H
C      0.09493  0.45257  0.72447     C
H       0.0981   0.2492   0.1039     H
N      0.09923  0.32007  0.72267     N
C      0.10233  0.87887  0.68757     C
C      0.10263  0.36847  0.68197     C
H      0.10653  0.22457  0.77377     H
H      0.10877  0.54863  0.44043     H
C      0.10987  0.56433  0.35423     C
C      0.11047  0.60803  0.10163     C
N      0.11103  0.84777  0.46157     N
H      0.11117  0.62363  0.01553     H
N       0.1125   0.7659    0.944     N
H      0.11613  0.46887  0.64517     H
H      0.11803  0.89347  0.77377     H
C      0.11923  0.69097  0.60887     C
C      0.12083  0.30957  0.60867     C
C      0.12113  0.22347  0.68757     C
N       0.1221   0.8028   0.1568     N
N      0.12483  0.38737  0.55667     N
N      0.12583  0.74907  0.42147     N
H      0.12773  0.15557  0.72347     H
C      0.13043  0.26257  0.58827     C
C      0.13213  0.86957  0.58827     C
C      0.13373  0.18267  0.65787     C
H      0.13553  0.68607  0.68817     H
N      0.13613  0.34737  0.50987     N
C       0.1446   0.7875    0.058     C
C      0.14673  0.73827  0.53407     C
C      0.15067  0.61773  0.32453     C
C      0.15087  0.63933  0.19773     C
H       0.1511   0.9019   0.1039     H
N      0.15223  0.26327  0.46157     N
H       0.1542   0.4445   0.3178     H
H      0.15497  0.99133  0.49083     H
C      0.15513  0.18247  0.53107     C
H      0.15557  0.02783  0.27653     H
H      0.16363  0.15497  0.50917     H
C      0.16423  0.22287  0.43497     C
Ni     0.16667  0.33333  0.33333    Ni
Ni     0.16667  0.83333  0.33333    Ni
C       0.1691   0.4438   0.2317     C
H       0.1697   0.5117   0.1575     H
H      0.17777  0.63883  0.39013     H
C       0.1782   0.4842   0.1356     C
H      0.17837  0.67533  0.17583     H
H      0.17913  0.22217  0.34887     H
N       0.1811   0.4034   0.2051     N
H      0.18223  0.76477  0.56277     H
C      0.18247  0.02733  0.46893     C
C      0.18267  0.04893  0.34213     C
C       0.1866   0.9284   0.1326     C
C      0.18873  0.87917  0.60867     C
N       0.1972   0.3193   0.1568     N
H       0.1978   0.9806   0.9785     H
C       0.1996    0.484   0.0088     C
C       0.2012   0.7971   0.0784     C
C       0.2029   0.4041   0.0784     C
H       0.2056   0.5111   0.9432     H
N       0.2075   0.9176   0.2452     N
N       0.2085   0.2793     0.11     N
N      0.21123  0.86387  0.50987     N
C       0.2122   0.4432   0.9791     C
C       0.2125   0.3571    0.058     C
C       0.2141   0.9757   0.0578     C
H       0.2153   0.7732   0.8929     H
H       0.2172   0.1978   0.0215     H
N      0.22083  0.90077  0.72267     N
H      0.22217  0.04303  0.65113     H
N       0.2223   0.8189   0.2051     N
C      0.22287  0.05863  0.56503     C
C      0.22347  0.10233  0.31243     C
H      0.22457  0.11803  0.22623     H
H       0.2268   0.4421   0.8929     H
C       0.2307   0.2982   0.9847     C
C        0.231   0.7878   0.9791     C
N       0.2341   0.3466    0.944     N
H      0.23523  0.41747  0.56277     H
C       0.2384   0.2141   0.9422     C
H       0.2492   0.1511   0.8961     H
C       0.2496   0.2665   0.9009     C
N      0.25093  0.37677  0.42147     N
C       0.2581   0.9571   0.2856     C
C       0.2582   0.1866   0.8674     C
C      0.26173  0.40847  0.53407     C
N      0.26253  0.87517  0.55667     N
C      0.26257  0.13213  0.41173     C
N      0.26327  0.11103  0.53843     N
C      0.26583  0.89737  0.68197     C
C       0.2665   0.0169   0.0991     C
H       0.2739   0.9508   0.3638     H
C       0.2747   0.8309   0.2317     C
N       0.2793   0.0708     0.89     N
C       0.2811    0.288   0.7837     C
H      0.28413  0.34357  0.30287     H
C       0.2844   0.8004   0.0088     C
C        0.288   0.0069   0.2163     C
H        0.289   0.3227   0.7509     H
N       0.2899   0.2075   0.7548     N
H       0.2903   0.8458   0.3178     H
C      0.29043  0.36567  0.38107     C
C       0.2982   0.0675   0.0153     C
H      0.29963  0.95567  0.91577     H
C        0.301   0.2581   0.7144     C
H       0.3055   0.7944   0.9432     H
C        0.306   0.8218   0.1356     C
C      0.30903  0.42827  0.60887     C
C      0.30957  0.18873  0.39133     C
H      0.31393  0.44947  0.68817     H
C      0.31643  0.91627  0.76577     C
N       0.3193   0.1221   0.8432     N
N      0.32007  0.22083  0.27733     N
H       0.3227   0.0337   0.2491     H
H       0.3231   0.2739   0.6362     H
H      0.32467  0.50303  0.17583     H
C      0.32643  0.94777  0.88297     C
Ni     0.33333  0.16667  0.66667    Ni
C      0.34023  0.38557  0.45037     C
H        0.342   0.8303   0.1575     H
H      0.34357  0.05943  0.69713     H
H      0.34397  0.29963  0.08423     H
N       0.3466   0.1125    0.056     N
N      0.34737  0.21123  0.49013     N
C      0.35023  0.41707  0.56757     C
H      0.35273  0.88387  0.64517     H
C       0.3571   0.1446    0.942     C
C      0.35763  0.90507  0.72447     C
C      0.36067  0.51153  0.19773     C
H      0.36117  0.53893  0.39013     H
C      0.36567  0.07523  0.61893     C
H      0.36703  0.37767  0.41757     H
C      0.36847  0.26583  0.31803     C
C      0.37623  0.96767  0.95227     C
H      0.37637  0.48753  0.01553     H
N      0.37677  0.12583  0.57853     N
H      0.37767  0.01063  0.58243     H
C      0.37867  0.32643  0.11703     C
C      0.38227  0.53293  0.32453     C
H      0.38253  0.98977  0.03047     H
C      0.38557  0.04533  0.54963     C
N      0.38737  0.26253  0.44333     N
C      0.39197  0.50243  0.10163     C
H      0.39277  0.38253  0.96953     H
C      0.40017  0.31643  0.23423     C
C      0.40083  0.43597  0.65137     C
N       0.4034   0.2223   0.7949     N
C       0.4041   0.2012   0.9216     C
N      0.40413  0.45817  0.77667     N
C      0.40493  0.92487  0.79927     C
C      0.40847  0.14673  0.46593     C
C      0.40857  0.37623  0.04773     C
N      0.41573  0.95657  0.91187     N
C      0.41707  0.06683  0.43243     C
H      0.41747  0.18223  0.43723     H
C      0.42827  0.11923  0.39113     C
H      0.43143  0.91587  0.77057     H
N      0.43257  0.98673  0.38933     N
C      0.43567  0.54553  0.35423     C
C      0.43597  0.03513  0.34863     C
H      0.43987  0.89123  0.44043     H
H       0.4421   0.2153   0.1071     H
C       0.4432    0.231   0.0209     C
C       0.4438   0.2747   0.7683     C
N      0.44437  0.51443  0.12823     N
H       0.4445   0.2903   0.6822     H
N      0.44583  0.43257  0.61067     N
H      0.44947  0.13553  0.31183     H
H      0.45137  0.56013  0.44043     H
C      0.45257  0.35763  0.27553     C
C      0.45417  0.97623  0.27533     C
C      0.45447  0.89013  0.35423     C
N      0.45543  0.46947  0.82347     N
N      0.45817  0.05403  0.22333     N
N      0.45917  0.41573  0.08813     N
H      0.46107  0.82223  0.39013     H
C      0.46377  0.92923  0.25493     C
C      0.46547  0.53623  0.25493     C
C      0.46707  0.84933  0.32453     C
H      0.46887  0.35273  0.35483     H
N      0.46947  0.01403  0.17653     N
C      0.47793  0.45417  0.72467     C
C      0.48007  0.40493  0.20073     C
C        0.484   0.2844   0.9912     C
C       0.4842    0.306   0.8644     C
H      0.48443  0.56857  0.77057     H
N      0.48557  0.92993  0.12823     N
H      0.48753  0.11117  0.98447     H
H       0.4883    0.658   0.1575     H
C      0.48847  0.84913  0.19773     C
H       0.4889   0.6945   0.9432     H
H      0.49697  0.82163  0.17583     H
C      0.49757  0.88953  0.10163     C
Ni         0.5      0.0      0.0    Ni
Ni         0.5      0.5      0.0    Ni
C      0.50243  0.11047  0.89837     C
H      0.50303  0.17837  0.82417     H
H       0.5111   0.3055   0.0568     H
C      0.51153  0.15087  0.80227     C
H       0.5117    0.342   0.8425     H
H      0.51247  0.88883  0.01553     H
N      0.51443  0.07007  0.87177     N
H      0.51557  0.43143  0.22943     H
C       0.5158    0.694   0.1356     C
C        0.516   0.7156   0.0088     C
C      0.51993  0.59507  0.79927     C
C      0.52207  0.54583  0.27533     C
N      0.53053  0.98597  0.82347     N
H      0.53113  0.64727  0.64517     H
C      0.53293  0.15067  0.67547     C
C      0.53453  0.46377  0.74507     C
C      0.53623  0.07077  0.74507     C
H      0.53893  0.17777  0.60987     H
N      0.54083  0.58427  0.91187     N
N      0.54183  0.94597  0.77667     N
N      0.54457  0.53053  0.17653     N
C      0.54553  0.10987  0.64577     C
C      0.54583  0.02377  0.72467     C
C      0.54743  0.64237  0.72447     C
H      0.54863  0.43987  0.55957     H
H      0.55053  0.86447  0.68817     H
N      0.55417  0.56743  0.38933     N
H       0.5555   0.7097   0.3178     H
N      0.55563  0.48557  0.87177     N
C       0.5562   0.7253   0.2317     C
C       0.5568    0.769   0.9791     C
H       0.5579   0.7847   0.8929     H
H      0.56013  0.10877  0.55957     H
C      0.56403  0.96487  0.65137     C
C      0.56433  0.45447  0.64577     C
N      0.56743  0.01327  0.61067     N
H      0.56857  0.08413  0.22943     H
C      0.57173  0.88077  0.60887     C
H      0.58253  0.81777  0.56277     H
C      0.58293  0.93317  0.56757     C
N      0.58427  0.04343  0.08813     N
C      0.59143  0.62377  0.95227     C
C      0.59153  0.85327  0.53407     C
C      0.59507  0.07513  0.20073     C
N      0.59587  0.54183  0.22333     N
C       0.5959   0.7988   0.0784     C
N       0.5966   0.7777   0.2051     N
C      0.59917  0.56403  0.34863     C
C      0.59983  0.68357  0.76577     C
H      0.60723  0.61747  0.03047     H
C      0.60803  0.49757  0.89837     C
N      0.61263  0.73747  0.55667     N
C      0.61443  0.95467  0.45037     C
H      0.61747  0.01023  0.96953     H
C      0.61773  0.46707  0.67547     C
C      0.62133  0.67357  0.88297     C
H      0.62233  0.98937  0.41757     H
N      0.62323  0.87417  0.42147     N
H      0.62363  0.51247  0.98447     H
C      0.62377  0.03233  0.04773     C
C      0.63153  0.73417  0.68197     C
H      0.63297  0.62233  0.58243     H
C      0.63433  0.92477  0.38107     C
H      0.63883  0.46107  0.60987     H
C      0.63933  0.48847  0.80227     C
C      0.64237  0.09493  0.27553     C
C       0.6429   0.8554    0.058     C
H      0.64727  0.11613  0.35483     H
C      0.64977  0.58293  0.43243     C
N      0.65263  0.78877  0.50987     N
N       0.6534   0.8875    0.944     N
H      0.65603  0.70037  0.91577     H
H      0.65643  0.94057  0.30287     H
H        0.658   0.1697   0.8425     H
C      0.65977  0.61443  0.54963     C
Ni     0.66667  0.83333  0.33333    Ni
C      0.67357  0.05223  0.11703     C
H      0.67533  0.49697  0.82417     H
H       0.6769   0.7261   0.3638     H
H       0.6773   0.9663   0.7509     H
N      0.67993  0.77917  0.72267     N
N       0.6807   0.8779   0.1568     N
C      0.68357  0.08373  0.23423     C
H      0.68607  0.55053  0.31183     H
C      0.69043  0.81127  0.60867     C
C      0.69097  0.57173  0.39113     C
C        0.694   0.1782   0.8644     C
H       0.6945   0.2056   0.0568     H
C        0.699   0.7419   0.2856     C
H      0.70037  0.04433  0.08423     H
C       0.7018   0.9325   0.9847     C
C      0.70957  0.63433  0.61893     C
H       0.7097   0.1542   0.6822     H
N       0.7101   0.7925   0.2452     N
H        0.711   0.6773   0.2491     H
C        0.712   0.9931   0.7837     C
C       0.7156   0.1996   0.9912     C
H      0.71587  0.65643  0.69713     H
C       0.7189    0.712   0.2163     C
N       0.7207   0.9292     0.11     N
C       0.7253   0.1691   0.7683     C
H       0.7261   0.0492   0.6362     H
C       0.7335   0.9831   0.9009     C
C      0.73417  0.10263  0.31803     C
N      0.73673  0.88897  0.46157     N
C      0.73743  0.86787  0.58827     C
N      0.73747  0.12483  0.44333     N
C      0.73827  0.59153  0.46593     C
C       0.7418   0.8134   0.1326     C
C       0.7419   0.0429   0.7144     C
N      0.74907  0.62323  0.57853     N
C       0.7504   0.7335   0.0991     C
H       0.7508   0.8489   0.1039     H
C       0.7616   0.7859   0.0578     C
H      0.76477  0.58253  0.43723     H
N       0.7659   0.6534    0.056     N
C        0.769   0.2122   0.0209     C
C       0.7693   0.7018   0.0153     C
H       0.7732   0.5579   0.1071     H
H      0.77543  0.88197  0.77377     H
C      0.77653  0.89767  0.68757     C
C      0.77713  0.94137  0.43497     C
N       0.7777   0.1811   0.7949     N
H      0.77783  0.95697  0.34887     H
N      0.77917  0.09923  0.27733     N
H       0.7828   0.8022   0.9785     H
H       0.7847   0.2268   0.1071     H
C       0.7859   0.0243   0.9422     C
C       0.7875   0.6429    0.942     C
C       0.7878   0.5568   0.0209     C
N      0.78877  0.13613  0.49013     N
N       0.7915   0.7207     0.89     N
N       0.7925   0.0824   0.7548     N
H       0.7944   0.4889   0.0568     H
C       0.7971   0.5959   0.9216     C
C       0.7988   0.2029   0.9216     C
C       0.8004    0.516   0.9912     C
H       0.8022   0.0194   0.0215     H
N       0.8028   0.6807   0.8432     N
C      0.81127  0.12083  0.39133     C
C       0.8134   0.0716   0.8674     C
C      0.81733  0.95107  0.65787     C
C      0.81753  0.97267  0.53107     C
H      0.81777  0.23523  0.43723     H
N       0.8189   0.5966   0.7949     N
H      0.82087  0.77783  0.65113     H
H      0.82163  0.32467  0.82417     H
C       0.8218   0.5158   0.8644     C
H      0.82223  0.36117  0.60987     H
H       0.8303   0.4883   0.8425     H
C       0.8309   0.5562   0.7683     C
Ni     0.83333  0.16667  0.66667    Ni
Ni     0.83333  0.66667  0.66667    Ni
C      0.83577  0.77713  0.56503     C
H      0.83637  0.84503  0.49083     H
H      0.84443  0.97217  0.72347     H
C      0.84487  0.81753  0.46893     C
H      0.84503  0.00867  0.50917     H
H       0.8458   0.5555   0.6822     H
N      0.84777  0.73673  0.53843     N
H       0.8489   0.0981   0.8961     H
C      0.84913  0.36067  0.80227     C
C      0.84933  0.38227  0.67547     C
C      0.85327  0.26173  0.46593     C
C       0.8554   0.2125    0.942     C
N      0.86387  0.65263  0.49013     N
H      0.86447  0.31393  0.31183     H
C      0.86627  0.81733  0.34213     C
C      0.86787  0.13043  0.41173     C
C      0.86957  0.73743  0.41173     C
H      0.87227  0.84443  0.27653     H
N      0.87417  0.25093  0.57853     N
N      0.87517  0.61263  0.44333     N
N       0.8779   0.1972   0.8432     N
C      0.87887  0.77653  0.31243     C
C      0.87917  0.69043  0.39133     C
C      0.88077  0.30903  0.39113     C
H      0.88197  0.10653  0.22623     H
H      0.88387  0.53113  0.35483     H
N       0.8875   0.2341    0.056     N
H      0.88883  0.37637  0.98447     H
N      0.88897  0.15223  0.53843     N
C      0.88953  0.39197  0.89837     C
C      0.89013  0.43567  0.64577     C
H      0.89123  0.45137  0.55957     H
H      0.89347  0.77543  0.22623     H
C      0.89737  0.63153  0.31803     C
C      0.89767  0.12113  0.31243     C
N      0.90077  0.67993  0.27733     N
H       0.9019   0.7508   0.8961     H
C      0.90507  0.54743  0.27553     C
H      0.91587  0.48443  0.22943     H
C      0.91627  0.59983  0.23423     C
N       0.9176   0.7101   0.7548     N
C      0.92477  0.29043  0.61893     C
C      0.92487  0.51993  0.20073     C
C       0.9284   0.7418   0.8674     C
N       0.9292   0.2085     0.89     N
C      0.92923  0.46547  0.74507     C
N      0.92993  0.44437  0.87177     N
C       0.9325   0.2307   0.0153     C
C      0.93317  0.35023  0.43243     C
H      0.94057  0.28413  0.69713     H
C      0.94137  0.16423  0.56503     C
N      0.94597  0.40413  0.22333     N
C      0.94777  0.62133  0.11703     C
H       0.9508   0.6769   0.6362     H
C      0.95107  0.13373  0.34213     C
C      0.95467  0.34023  0.54963     C
H      0.95567  0.65603  0.08423     H
N      0.95657  0.54083  0.08813     N
H      0.95697  0.17913  0.65113     H
C       0.9571    0.699   0.7144     C
C      0.96487  0.40083  0.34863     C
H       0.9663    0.289   0.2491     H
C      0.96767  0.59143  0.04773     C
H      0.97217  0.12773  0.27653     H
C      0.97267  0.15513  0.46893     C
C       0.9757   0.7616   0.9422     C
C      0.97623  0.52207  0.72467     C
H       0.9806   0.7828   0.0215     H
C       0.9831   0.2496   0.0991     C
N      0.98597  0.45543  0.17653     N
N      0.98673  0.55417  0.61067     N
H      0.98937  0.36703  0.58243     H
H      0.98977  0.60723  0.96953     H
H      0.99133  0.83637  0.50917     H
C       0.9931   0.2811   0.2163     C
