data_I
_chemical_name_common  '/home/zhangsd/repos/MofS-CGCNN/ML/data/TSD/clean_cifs/ILIQEB_clean'
_cell_length_a  9.75000
_cell_length_b  9.88000
_cell_length_c  9.88000
_cell_angle_alpha 90.36000
_cell_angle_beta  92.73000
_cell_angle_gamma 117.33000
_space_group_name_H-M_alt      'P 1'


loop_
_space_group_symop_operation_xyz
  'x, y, z' 

loop_
_atom_site_label
_atom_site_fract_x
_atom_site_fract_y
_atom_site_fract_z
_atom_site_type_symbol
H       0.0031   0.6736   0.1604     H
C         0.01   0.6108   0.0925     C
H       0.0654   0.6585   0.4573     H
C       0.0807     0.56   0.4804     C
H        0.106   0.5086   0.4075     H
C        0.111   0.4483   0.0069     C
C       0.1197   0.5585   0.0989     C
H       0.1552   0.7665   0.6933     H
C       0.1983   0.6031   0.5995     C
H       0.2069      0.6   0.1703     H
O       0.2102    0.277   0.9481     O
C       0.2132   0.7117   0.6952     C
C       0.2347   0.3972   0.0119     C
C       0.2908   0.5325   0.6182     C
H        0.298   0.4573   0.5567     H
C       0.3179   0.7453   0.8058     C
H       0.3263   0.8202   0.8708     H
H       0.3277   0.1123   0.5178     H
H       0.3377   0.9873   0.3128     H
O       0.3603   0.4761   0.0791     O
C       0.3941   0.5716   0.7309     C
C       0.4011   0.9908   0.3918     C
C       0.4021   0.0647   0.5118     C
N       0.4079   0.6765   0.8246     N
O       0.4176   0.2215   0.7514     O
O       0.4356   0.8634   0.1421     O
Cd     0.44337  0.27475  0.97813    Cd
H       0.4571   0.5219   0.7421     H
C       0.4949   0.1493   0.7523     C
C       0.4984   0.9253    0.379     C
C       0.5016   0.0747    0.621     C
C       0.5051   0.8507   0.2477     C
H       0.5429   0.4781   0.2579     H
Cd     0.55663  0.72525  0.02187    Cd
O       0.5644   0.1366   0.8579     O
O       0.5824   0.7785   0.2486     O
N       0.5921   0.3235   0.1754     N
C       0.5979   0.9353   0.4882     C
C       0.5989   0.0092   0.6082     C
C       0.6059   0.4284   0.2691     C
O       0.6397   0.5239   0.9209     O
H       0.6623   0.0127   0.6872     H
H       0.6723   0.8877   0.4822     H
H       0.6737   0.1798   0.1292     H
C       0.6821   0.2547   0.1942     C
H        0.702   0.5427   0.4433     H
C       0.7092   0.4675   0.3818     C
C       0.7653   0.6028   0.9881     C
C       0.7868   0.2883   0.3048     C
O       0.7898    0.723   0.0519     O
H       0.7931      0.4   0.8297     H
C       0.8017   0.3969   0.4005     C
H       0.8448   0.2335   0.3067     H
C       0.8803   0.4415   0.9011     C
C        0.889   0.5517   0.9931     C
H        0.894   0.4914   0.5925     H
C       0.9193     0.44   0.5196     C
H       0.9346   0.3415   0.5427     H
C         0.99   0.3892   0.9075     C
H       0.9969   0.3264   0.8396     H
