data_I
_chemical_name_common  '/home/zhangsd/repos/MofS-CGCNN/ML/data/TSD/clean_cifs/ILOTOT_clean'
_cell_length_a 10.53050
_cell_length_b 13.84200
_cell_length_c 14.13610
_cell_angle_alpha 60.68590
_cell_angle_beta  82.60520
_cell_angle_gamma 74.75890
_space_group_name_H-M_alt      'P 1'


loop_
_space_group_symop_operation_xyz
  'x, y, z' 

loop_
_atom_site_label
_atom_site_fract_x
_atom_site_fract_y
_atom_site_fract_z
_atom_site_type_symbol
C       0.0019   0.3814   0.4422     C
C       0.0131  0.22862  0.97676     C
H       0.0149   0.0929    0.706     H
C       0.0198   0.1331   0.8728     C
C       0.0259  0.55849  0.75282     C
O       0.0273  0.46767  0.15646     O
H       0.0346   0.0036   0.1892     H
C       0.0416  0.02709  0.77582     C
H       0.0422     0.33    0.598     H
C       0.0481  0.42787  0.33726     C
H       0.0556   0.2431   0.0206     H
C       0.0749  0.36126  0.52768     C
H       0.0799   0.6367    0.544     H
C       0.0808  0.15372  0.93896     C
O       0.0955  0.05775   0.8413     O
C       0.1102  0.81148  0.15944     C
H       0.1116   0.9057   0.7274     H
C       0.1185  0.71784  0.05112     C
O       0.1301    0.629  0.94188     O
O       0.1399  0.57657  0.73206     O
C       0.1488  0.93806  0.76168     C
H       0.1509   0.8234   0.2062     H
H       0.1605   0.3722   0.7046     H
H       0.1682   0.1172   0.9586     H
C       0.1699  0.45571  0.31758     C
H       0.1756   0.1563   0.3858     H
C        0.178  0.73724  0.11972     C
H       0.1811   0.8771   0.8326     H
O       0.1856  0.37363   0.0181     O
C       0.1931  0.64579  0.00302     C
C       0.1956  0.38797  0.50766     C
H       0.2019   0.4872    0.247     H
H       0.2137     0.25   0.7146     H
O        0.221  0.04548  0.58364     O
H       0.2348   0.1599     0.14     H
C       0.2368  0.32113  0.69414     C
C       0.2438  0.43767  0.40026     C
Co        0.25  0.58283  0.83434    Co
C       0.2562  0.16207  0.40026     C
C       0.2632  0.98473  0.69414     C
H       0.2652   0.7001     0.14     H
O        0.279  0.37088  0.58364     O
H       0.2863   0.0354   0.7146     H
H       0.2981   0.2658    0.247     H
C       0.3044  0.10437  0.50766     C
C       0.3069  0.35119  0.00302     C
O       0.3144  0.60827   0.0181     O
H       0.3189   0.2903   0.8326     H
C        0.322  0.14304  0.11972     C
H       0.3244   0.4579   0.3858     H
C       0.3301  0.22671  0.31758     C
H       0.3318   0.9242   0.9586     H
H       0.3395   0.9232   0.7046     H
H       0.3491   0.9704   0.2062     H
C       0.3512  0.30026  0.76168     C
O       0.3601  0.69137  0.73206     O
O       0.3699  0.42912  0.94188     O
C       0.3815  0.23104  0.05112     C
H       0.3884   0.3669   0.7274     H
C       0.3898  0.02908  0.15944     C
O       0.4045  0.10095   0.8413     O
C       0.4192  0.90732  0.93896     C
H       0.4201   0.8193    0.544     H
C       0.4251  0.11106  0.52768     C
H       0.4444   0.7363   0.0206     H
C       0.4519  0.23487  0.33726     C
H       0.4578    0.072    0.598     H
C       0.4584  0.19709  0.77582     C
H       0.4654   0.8072   0.1892     H
O       0.4727  0.37587  0.15646     O
C       0.4741  0.68869  0.75282     C
C       0.4802   0.9941   0.8728     C
H       0.4851   0.2011    0.706     H
C       0.4869  0.79462  0.97676     C
C       0.4981   0.1764   0.4422     C
Co         0.5      0.5      0.0    Co
C       0.5019   0.8236   0.5578     C
C       0.5131  0.20538  0.02324     C
H       0.5149   0.7989    0.294     H
C       0.5198   0.0059   0.1272     C
C       0.5259  0.31131  0.24718     C
O       0.5273  0.62413  0.84354     O
H       0.5346   0.1928   0.8108     H
C       0.5416  0.80291  0.22418     C
H       0.5422    0.928    0.402     H
C       0.5481  0.76513  0.66274     C
H       0.5556   0.2637   0.9794     H
C       0.5749  0.88894  0.47232     C
H       0.5799   0.1807    0.456     H
C       0.5808  0.09268  0.06104     C
O       0.5955  0.89905   0.1587     O
C       0.6102  0.97092  0.84056     C
H       0.6116   0.6331   0.2726     H
C       0.6185  0.76896  0.94888     C
O       0.6301  0.57088  0.05812     O
O       0.6399  0.30863  0.26794     O
C       0.6488  0.69974  0.23832     C
H       0.6509   0.0296   0.7938     H
H       0.6605   0.0768   0.2954     H
H       0.6682   0.0758   0.0414     H
C       0.6699  0.77329  0.68242     C
H       0.6756   0.5421   0.6142     H
C        0.678  0.85696  0.88028     C
H       0.6811   0.7097   0.1674     H
O       0.6856  0.39173   0.9819     O
C       0.6931  0.64881  0.99698     C
C       0.6956  0.89563  0.49234     C
H       0.7019   0.7342    0.753     H
H       0.7137   0.9646   0.2854     H
O        0.721  0.62912  0.41636     O
H       0.7348   0.2999     0.86     H
C       0.7368  0.01527  0.30586     C
C       0.7438  0.83793  0.59974     C
Co        0.75  0.41717  0.16566    Co
C       0.7562  0.56233  0.59974     C
C       0.7632  0.67887  0.30586     C
H       0.7652   0.8401     0.86     H
O        0.779  0.95452  0.41636     O
H       0.7863     0.75   0.2854     H
H       0.7981   0.5128    0.753     H
C       0.8044  0.61203  0.49234     C
C       0.8069  0.35421  0.99698     C
O       0.8144  0.62637   0.9819     O
H       0.8189   0.1229   0.1674     H
C        0.822  0.26276  0.88028     C
H       0.8244   0.8437   0.6142     H
C       0.8301  0.54429  0.68242     C
H       0.8318   0.8828   0.0414     H
H       0.8395   0.6278   0.2954     H
H       0.8491   0.1766   0.7938     H
C       0.8512  0.06194  0.23832     C
O       0.8601  0.42343  0.26794     O
O       0.8699    0.371  0.05812     O
C       0.8815  0.28216  0.94888     C
H       0.8884   0.0943   0.2726     H
C       0.8898  0.18852  0.84056     C
O       0.9045  0.94225   0.1587     O
C       0.9192  0.84628  0.06104     C
H       0.9201   0.3633    0.456     H
C       0.9251  0.63874  0.47232     C
H       0.9444   0.7569   0.9794     H
C       0.9519  0.57213  0.66274     C
H       0.9578     0.67    0.402     H
C       0.9584  0.97291  0.22418     C
H       0.9654   0.9964   0.8108     H
O       0.9727  0.53233  0.84354     O
C       0.9741  0.44151  0.24718     C
C       0.9802   0.8669   0.1272     C
H       0.9851   0.9071    0.294     H
C       0.9869  0.77138  0.02324     C
C       0.9981   0.6186   0.5578     C
Co         1.0      0.5      0.0    Co
