data_I
_chemical_name_common  '/home/zhangsd/repos/MofS-CGCNN/ML/data/TSD/clean_cifs/IMAGAG_clean'
_cell_length_a  9.43400
_cell_length_b 16.59900
_cell_length_c 18.56200
_cell_angle_alpha 90.00000
_cell_angle_beta  97.73100
_cell_angle_gamma 90.00000
_space_group_name_H-M_alt      'P 1'


loop_
_space_group_symop_operation_xyz
  'x, y, z' 

loop_
_atom_site_label
_atom_site_fract_x
_atom_site_fract_y
_atom_site_fract_z
_atom_site_type_symbol
C       0.0203    0.206   0.4606     C
C       0.0203    0.794   0.9606     C
H       0.0214   0.2834   0.5908     H
H       0.0214   0.7166   0.0908     H
H       0.0388   0.0237   0.5185     H
H       0.0388   0.9763   0.0185     H
H       0.0461   0.4322    0.373     H
H       0.0461   0.5678    0.873     H
H       0.0532   0.4182   0.6262     H
H       0.0532   0.5818   0.1262     H
H       0.0555   0.3585   0.4982     H
H       0.0555   0.6415   0.9982     H
H       0.0602     0.43   0.2513     H
H       0.0602     0.57   0.7513     H
C       0.0709   0.0707   0.4986     C
C       0.0709   0.9293   0.9986     C
C       0.1559   0.2066   0.4394     C
C       0.1559   0.7934   0.9394     C
H       0.1572    0.011   0.3394     H
H       0.1572    0.989   0.8394     H
H       0.1659   0.0174   0.2171     H
H       0.1659   0.9826   0.7171     H
H       0.1897   0.2524   0.4184     H
H       0.1897   0.7476   0.9184     H
N       0.2011   0.0713  0.47926     N
N       0.2011   0.9287  0.97926     N
C       0.2396   0.1388   0.4498     C
C       0.2396   0.8612   0.9498     C
C       0.2408   0.0046   0.8218     C
C       0.2408   0.9954   0.3218     C
C       0.2448   0.0017   0.7479     C
C       0.2448   0.9983   0.2479     C
H       0.2617   0.0671   0.1086     H
H       0.2617   0.9329   0.6086     H
H       0.2965   0.0682   0.6174     H
H       0.2965   0.9318   0.1174     H
H       0.3256   0.2362   0.9495     H
H       0.3256   0.7638   0.4495     H
H         0.33   0.1406   0.4351     H
H         0.33   0.8594   0.9351     H
Zn      0.3382  0.03687  0.98321    Zn
Zn      0.3382  0.96313  0.48321    Zn
N       0.3468   0.0466  0.09931     N
N       0.3468   0.9534  0.59931     N
N       0.3505   0.0286   0.8688     N
N       0.3505   0.9714   0.3688     N
H       0.3554   0.2036   0.0748     H
H       0.3554   0.7964   0.5748     H
C       0.3632   0.0265   0.7195     C
C       0.3632   0.9735   0.2195     C
C       0.3688   0.0305   0.6386     C
C       0.3688   0.9695   0.1386     C
H       0.3901   0.3662   0.0058     H
H       0.3901   0.6338   0.5058     H
C       0.4236   0.2201    0.947     C
C       0.4236   0.7799    0.447     C
H       0.4286   0.2003   0.8982     H
H       0.4286   0.7997   0.3982     H
C       0.4474   0.1778   0.0741     C
C       0.4474   0.8222   0.5741     C
H       0.4487   0.1239   0.1737     H
H       0.4487   0.8761   0.6737     H
C       0.4596   0.1064   0.1249     C
C       0.4596   0.8936   0.6249     C
H       0.4613   0.0519   0.6309     H
H       0.4613   0.9481   0.1309     H
N       0.4617  0.15344  0.99941     N
N       0.4617  0.84656  0.49941     N
C       0.4668   0.0514   0.8411     C
C       0.4668   0.9486   0.3411     C
C       0.4769   0.0522   0.7679     C
C       0.4769   0.9478   0.2679     C
C       0.4798   0.3629   0.9905     C
C       0.4798   0.6371   0.4905     C
C       0.5203    0.294   0.9606     C
C       0.5203    0.706   0.4606     C
H       0.5214   0.2166   0.0908     H
H       0.5214   0.7834   0.5908     H
H       0.5388   0.4763   0.0185     H
H       0.5388   0.5237   0.5185     H
H       0.5461   0.0678    0.873     H
H       0.5461   0.9322    0.373     H
H       0.5532   0.0818   0.1262     H
H       0.5532   0.9182   0.6262     H
H       0.5555   0.1415   0.9982     H
H       0.5555   0.8585   0.4982     H
H       0.5602     0.07   0.7513     H
H       0.5602     0.93   0.2513     H
C       0.5709   0.4293   0.9986     C
C       0.5709   0.5707   0.4986     C
C       0.6559   0.2934   0.9394     C
C       0.6559   0.7066   0.4394     C
H       0.6572    0.489   0.8394     H
H       0.6572    0.511   0.3394     H
H       0.6659   0.4826   0.7171     H
H       0.6659   0.5174   0.2171     H
H       0.6897   0.2476   0.9184     H
H       0.6897   0.7524   0.4184     H
N       0.7011   0.4287  0.97926     N
N       0.7011   0.5713  0.47926     N
C       0.7396   0.3612   0.9498     C
C       0.7396   0.6388   0.4498     C
C       0.7408   0.4954   0.3218     C
C       0.7408   0.5046   0.8218     C
C       0.7448   0.4983   0.2479     C
C       0.7448   0.5017   0.7479     C
H       0.7617   0.4329   0.6086     H
H       0.7617   0.5671   0.1086     H
H       0.7965   0.4318   0.1174     H
H       0.7965   0.5682   0.6174     H
H       0.8256   0.2638   0.4495     H
H       0.8256   0.7362   0.9495     H
H         0.83   0.3594   0.9351     H
H         0.83   0.6406   0.4351     H
Zn      0.8382  0.46313  0.48321    Zn
Zn      0.8382  0.53687  0.98321    Zn
N       0.8468   0.4534  0.59931     N
N       0.8468   0.5466  0.09931     N
N       0.8505   0.4714   0.3688     N
N       0.8505   0.5286   0.8688     N
H       0.8554   0.2964   0.5748     H
H       0.8554   0.7036   0.0748     H
C       0.8632   0.4735   0.2195     C
C       0.8632   0.5265   0.7195     C
C       0.8688   0.4695   0.1386     C
C       0.8688   0.5305   0.6386     C
H       0.8901   0.1338   0.5058     H
H       0.8901   0.8662   0.0058     H
C       0.9236   0.2799    0.447     C
C       0.9236   0.7201    0.947     C
H       0.9286   0.2997   0.3982     H
H       0.9286   0.7003   0.8982     H
C       0.9474   0.3222   0.5741     C
C       0.9474   0.6778   0.0741     C
H       0.9487   0.3761   0.6737     H
H       0.9487   0.6239   0.1737     H
C       0.9596   0.3936   0.6249     C
C       0.9596   0.6064   0.1249     C
H       0.9613   0.4481   0.1309     H
H       0.9613   0.5519   0.6309     H
N       0.9617  0.34656  0.49941     N
N       0.9617  0.65344  0.99941     N
C       0.9668   0.4486   0.3411     C
C       0.9668   0.5514   0.8411     C
C       0.9769   0.4478   0.2679     C
C       0.9769   0.5522   0.7679     C
C       0.9798   0.1371   0.4905     C
C       0.9798   0.8629   0.9905     C
