data_I
_chemical_name_common  '/home/zhangsd/repos/MofS-CGCNN/ML/data/TSD/clean_cifs/INIXOT_clean'
_cell_length_a  9.44620
_cell_length_b  9.44620
_cell_length_c 15.75900
_cell_angle_alpha 90.00000
_cell_angle_beta  90.00000
_cell_angle_gamma 120.00000
_space_group_name_H-M_alt      'P 1'


loop_
_space_group_symop_operation_xyz
  'x, y, z' 

loop_
_atom_site_label
_atom_site_fract_x
_atom_site_fract_y
_atom_site_fract_z
_atom_site_type_symbol
O       0.0219   0.2119  0.93447     O
O       0.0219     0.81   0.2322     O
O       0.0656   0.3839  0.54846     O
O       0.0656   0.6817  0.61821     O
Mg     0.10329  0.55164  0.08333    Mg
O       0.1399   0.5145  0.95844     O
O       0.1399   0.6254  0.20823     O
B        0.151    0.302     0.75     B
B        0.151    0.849  0.41667     B
P      0.16996  0.38704  0.91915     P
P      0.16996  0.78292  0.24752     P
O       0.1802   0.4155  0.82087     O
O       0.1802   0.7647   0.3458     O
O         0.19   0.2119  0.56553     O
O         0.19   0.9781  0.60114     O
O       0.2119   0.0219  0.39886     O
O       0.2119     0.19   0.7678     O
P      0.21708  0.38704  0.58085     P
P      0.21708  0.83004  0.58582     P
O       0.2353   0.4155  0.67913     O
O       0.2353   0.8198  0.48754     O
B        0.302    0.151  0.58333     B
O       0.3183   0.3839  0.95154     O
O       0.3183   0.9344  0.21513     O
O       0.3746   0.5145  0.54156     O
O       0.3746   0.8601  0.62511     O
O       0.3839   0.0656  0.78487     O
O       0.3839   0.3183  0.38179     O
P      0.38704  0.16996  0.41418     P
P      0.38704  0.21708  0.75248     P
O       0.4155   0.1802  0.51246     O
O       0.4155   0.2353   0.6542     O
Mg     0.44836  0.55164  0.41667    Mg
Mg     0.44836  0.89671     0.75    Mg
O       0.4855   0.6254  0.29177     O
O       0.4855   0.8601  0.87489     O
O       0.5145   0.1399  0.37489     O
O       0.5145   0.3746  0.79177     O
Mg     0.55164  0.10329     0.25    Mg
Mg     0.55164  0.44836  0.91667    Mg
O       0.5845   0.7647   0.1542     O
O       0.5845   0.8198  0.01246     O
P      0.61296  0.78292  0.25248     P
P      0.61296  0.83004  0.91418     P
O       0.6161   0.6817  0.88179     O
O       0.6161   0.9344  0.28487     O
O       0.6254   0.1399  0.12511     O
O       0.6254   0.4855  0.04156     O
O       0.6817   0.0656  0.71513     O
O       0.6817   0.6161  0.45154     O
B        0.698    0.849  0.08333     B
O       0.7647   0.1802  0.98754     O
O       0.7647   0.5845  0.17913     O
P      0.78292  0.16996  0.08582     P
P      0.78292  0.61296  0.08085     P
O       0.7881     0.81   0.2678     O
O       0.7881   0.9781  0.89886     O
O         0.81   0.0219  0.10114     O
O         0.81   0.7881  0.06553     O
O       0.8198   0.2353   0.8458     O
O       0.8198   0.5845  0.32087     O
P      0.83004  0.21708  0.74752     P
P      0.83004  0.61296  0.41915     P
B        0.849    0.151  0.91667     B
B        0.849    0.698     0.25     B
O       0.8601   0.3746  0.70823     O
O       0.8601   0.4855  0.45844     O
Mg     0.89671  0.44836  0.58333    Mg
O       0.9344   0.3183  0.11821     O
O       0.9344   0.6161  0.04846     O
O       0.9781     0.19   0.7322     O
O       0.9781   0.7881  0.43447     O
