data_I
_chemical_name_common  '/home/zhangsd/repos/MofS-CGCNN/ML/data/TSD/clean_cifs/IQOHUT_clean'
_cell_length_a 11.28670
_cell_length_b 13.83570
_cell_length_c 14.86080
_cell_angle_alpha 85.20900
_cell_angle_beta  69.74200
_cell_angle_gamma 73.90900
_space_group_name_H-M_alt      'P 1'


loop_
_space_group_symop_operation_xyz
  'x, y, z' 

loop_
_atom_site_label
_atom_site_fract_x
_atom_site_fract_y
_atom_site_fract_z
_atom_site_type_symbol
H       0.0134   0.0538   0.1339     H
C       0.0261    0.845   0.2689     C
H       0.0417   0.9464   0.6143     H
C       0.0466   0.9217    0.312     C
H       0.0469   0.6496   0.2463     H
C       0.0566   0.9973   0.6427     C
C       0.0664   0.9964    0.001     C
C       0.0851   0.0285   0.0797     C
C       0.1003   0.1497   0.7267     C
H       0.1157   0.2007   0.7544     H
C       0.1254   0.6649   0.2119     C
H       0.1307   0.9185   0.3104     H
C       0.1382   0.7616   0.2155     C
H       0.1714   0.9353   0.8689     H
C       0.1782   0.9583   0.9234     C
C       0.1818   0.9928   0.6401     C
C       0.2042   0.0687   0.6812     C
C        0.209    0.023   0.0778     C
H        0.216   0.7692   0.7039     H
H       0.2183   0.0333    0.468     H
H        0.219   0.0448   0.1316     H
H       0.2223   0.5271   0.1553     H
C       0.2317   0.5917   0.1564     C
C       0.2596   0.7779   0.1656     C
H        0.274   0.8404   0.1688     H
H       0.2887   0.0658   0.6784     H
N       0.2899  0.91023  0.59249     N
C       0.2906   0.9809   0.4379     C
C       0.2937   0.7759   0.7081     C
C       0.2991   0.9548   0.9274     C
H       0.3047    0.025   0.3036     H
H       0.3105    0.668   0.8068     H
N       0.3161  0.98766  0.00245     N
C       0.3429   0.9759   0.3393     C
C       0.3458   0.9074   0.4932     C
N       0.3471   0.6089  0.10415     N
C         0.35   0.7157   0.7702     C
C       0.3536   0.8457   0.6526     C
C       0.3589   0.7011    0.111     C
H       0.3728   0.9281   0.8749     H
O       0.3874   0.3117  0.13453     O
H       0.3966   0.1976   0.2755     H
O       0.4047  0.17878  0.85768     O
H       0.4195   0.2254   0.6839     H
H       0.4389   0.7143   0.0768     H
O       0.4495  0.96758  0.14275     O
C       0.4518   0.8987  0.29181     C
C       0.4562   0.8299   0.4458     C
C       0.4649   0.7263  0.77792     C
C       0.4701   0.8546   0.6576     C
O       0.4712  0.59526  0.88929     O
C       0.4743   0.2044   0.2794     C
C        0.479   0.3353  0.15015     C
H       0.4886   0.0998   0.3812     H
C       0.4925   0.1737   0.6534     C
H        0.495   0.7809   0.4813     H
C       0.4968    0.105  0.81511     C
Co         0.5      0.0      0.0    Co
Co         0.5      0.5      0.0    Co
C       0.5032    0.895  0.18489     C
H        0.505   0.2191   0.5187     H
C       0.5075   0.8263   0.3466     C
H       0.5114   0.9002   0.6188     H
C        0.521   0.6647  0.84985     C
C       0.5257   0.7956   0.7206     C
O       0.5288  0.40474  0.11071     O
C       0.5299   0.1454   0.3424     C
C       0.5351   0.2737  0.22208     C
C       0.5438   0.1701   0.5542     C
C       0.5482   0.1013  0.70819     C
O       0.5505  0.03242  0.85725     O
H       0.5611   0.2857   0.9232     H
H       0.5805   0.7746   0.3161     H
O       0.5953  0.82122  0.14232     O
H       0.6034   0.8024   0.7245     H
O       0.6126   0.6883  0.86547     O
H       0.6272   0.0719   0.1251     H
C       0.6411   0.2989    0.889     C
C       0.6464   0.1543   0.3474     C
C         0.65   0.2843   0.2298     C
N       0.6529   0.3911  0.89585     N
C       0.6542   0.0926   0.5068     C
C       0.6571   0.0241   0.6607     C
N       0.6839  0.01234  0.99755     N
H       0.6895    0.332   0.1932     H
H       0.6953    0.975   0.6964     H
C       0.7009   0.0452   0.0726     C
C       0.7063   0.2241   0.2919     C
C       0.7094   0.0191   0.5621     C
N       0.7101  0.08977  0.40751     N
H       0.7113   0.9342   0.3216     H
H        0.726   0.1596   0.8312     H
C       0.7404   0.2221   0.8344     C
C       0.7683   0.4083   0.8436     C
H       0.7777   0.4729   0.8447     H
H        0.781   0.9552   0.8684     H
H       0.7817   0.9667    0.532     H
H        0.784   0.2308   0.2961     H
C        0.791    0.977   0.9222     C
C       0.7958   0.9313   0.3188     C
C       0.8182   0.0072   0.3599     C
C       0.8218   0.0417   0.0766     C
H       0.8286   0.0647   0.1311     H
C       0.8618   0.2384   0.7845     C
H       0.8693   0.0815   0.6896     H
C       0.8746   0.3351   0.7881     C
H       0.8843   0.7993   0.2456     H
C       0.8997   0.8503   0.2733     C
C       0.9149   0.9715   0.9203     C
C       0.9336   0.0036    0.999     C
C       0.9434   0.0027   0.3573     C
H       0.9531   0.3504   0.7537     H
C       0.9534   0.0783    0.688     C
H       0.9583   0.0536   0.3857     H
C       0.9739    0.155   0.7311     C
H       0.9866   0.9462   0.8661     H
