data_I
_chemical_name_common  '/home/zhangsd/repos/MofS-CGCNN/ML/data/TSD/clean_cifs/IQOJEF_clean'
_cell_length_a 14.22320
_cell_length_b 26.53950
_cell_length_c 19.46700
_cell_angle_alpha 90.00000
_cell_angle_beta  107.70100
_cell_angle_gamma 90.00000
_space_group_name_H-M_alt      'P 1'


loop_
_space_group_symop_operation_xyz
  'x, y, z' 

loop_
_atom_site_label
_atom_site_fract_x
_atom_site_fract_y
_atom_site_fract_z
_atom_site_type_symbol
C       0.0039  0.73811  0.94352     C
C       0.0039  0.76189  0.44352     C
C        0.009  0.52273  0.69166     C
C        0.009  0.97727  0.19166     C
C       0.0113  0.69093  0.97513     C
C       0.0113  0.80907  0.47513     C
C       0.0114  0.62888  0.34986     C
C       0.0114  0.87112  0.84986     C
Zn     0.01396  0.54144  0.84561    Zn
Zn     0.01396  0.95856  0.34561    Zn
C      0.02479    0.654  0.41434     C
C      0.02479    0.846  0.91434     C
C       0.0254  0.00995  0.93921     C
C       0.0254  0.49005  0.43921     C
N      0.02583  0.03037  0.38752     N
N      0.02583  0.46963  0.88752     N
C      0.02758  0.12907  0.44074     C
C      0.02758  0.37093  0.94074     C
C       0.0308  0.18041  0.47124     C
C       0.0308  0.31959  0.97124     C
C       0.0321  0.54438  0.07251     C
C       0.0321  0.95562  0.57251     C
H       0.0322   0.7439   0.9071     H
H       0.0322   0.7561   0.4071     H
C       0.0329  0.59147  0.04571     C
C       0.0329  0.90853  0.54571     C
N      0.03844  0.03256  0.76165     N
N      0.03844  0.46744  0.26165     N
C       0.0454  0.22357  0.03419     C
C       0.0454  0.27643  0.53419     C
H       0.0456   0.6657   0.9598     H
H       0.0456   0.8343   0.4598     H
H       0.0516    0.126   0.1827     H
H       0.0516    0.374   0.6827     H
N      0.05183  0.02014   0.8755     N
N      0.05183  0.47986   0.3755     N
N       0.0554  0.17569  0.06741     N
N       0.0554  0.32431  0.56741     N
C       0.0597  0.53086   0.5527     C
C       0.0597  0.96914   0.0527     C
H       0.0739   0.5204   0.0627     H
H       0.0739   0.9796   0.5627     H
H       0.0742   0.5988    0.018     H
H       0.0742   0.9012    0.518     H
H       0.0769   0.5181    0.704     H
H       0.0769   0.9819    0.204     H
C       0.0805  0.22004  0.44965     C
C       0.0805  0.27996  0.94965     C
H       0.0814   0.5913     0.29     H
H       0.0814   0.9087     0.79     H
C       0.0831  0.06593    0.374     C
C       0.0831  0.43407    0.874     C
C       0.0852   0.5209  0.49138     C
C       0.0852   0.9791  0.99138     C
C       0.0865  0.11445   0.3987     C
C       0.0865  0.38555   0.8987     C
C       0.0871  0.23327   0.9805     C
C       0.0871  0.26673   0.4805     C
C       0.0912    0.608  0.33362     C
C       0.0912    0.892  0.83362     C
O      0.09607  0.13139  0.68796     O
O      0.09607  0.36861  0.18796     O
H       0.0994   0.5515   0.5885     H
H       0.0994   0.9485   0.0885     H
O      0.09969  0.06306  0.62433     O
O      0.09969  0.43694  0.12433     O
H       0.1024   0.0814   0.0616     H
H       0.1024   0.4186   0.5616     H
H       0.1096   0.2145   0.4136     H
H       0.1096   0.2855   0.9136     H
C       0.1194  0.65807  0.46182     C
C       0.1194  0.84193  0.96182     C
H       0.1203   0.2077   0.9648     H
H       0.1203   0.2923   0.4648     H
H       0.1233   0.0575    0.346     H
H       0.1233   0.4425    0.846     H
H       0.1284   0.1377   0.3874     H
H       0.1284   0.3623   0.8874     H
O      0.12903  0.58445  0.90705     O
O      0.12903  0.91555  0.40705     O
H       0.1296   0.6755   0.5049     H
H       0.1296   0.8245   0.0049     H
C       0.1315  0.10638  0.64823     C
C       0.1315  0.39362  0.14823     C
C       0.1354  0.03511   0.8016     C
C       0.1354  0.46489   0.3016     C
H       0.1421   0.5348   0.4852     H
H       0.1421   0.9652   0.9852     H
C       0.1455  0.02827   0.8713     C
C       0.1455  0.47173   0.3713     C
C       0.1497  0.15194  0.08842     C
C       0.1497  0.34806  0.58842     C
C       0.1582  0.10131  0.08042     C
C       0.1582  0.39869  0.58042     C
O       0.1764  0.53996  0.82899     O
O       0.1764  0.96004  0.32899     O
C      0.18535  0.61172  0.38156     C
C      0.18535  0.88828  0.88156     C
H       0.1873   0.0408   0.7828     H
H       0.1873   0.4592   0.2828     H
C       0.1913   0.5752  0.87557     C
C       0.1913   0.9248  0.37557     C
C       0.1987  0.63654  0.44579     C
C       0.1987  0.86346  0.94579     C
H       0.2039   0.0289   0.9093     H
H       0.2039   0.4711   0.4093     H
C       0.2158    0.127  0.62551     C
C       0.2158    0.373  0.12551     C
H       0.2266   0.1929   0.6784     H
H       0.2266   0.3071   0.1784     H
H       0.2289   0.2143   0.1214     H
H       0.2289   0.2857   0.6214     H
H       0.2328   0.0676   0.5673     H
H       0.2328   0.4324   0.0673     H
H       0.2332   0.5604   0.1568     H
H       0.2332   0.9396   0.6568     H
C       0.2335  0.17967    0.116     C
C       0.2335  0.32033    0.616     C
C       0.2521  0.07996   0.1011     C
C       0.2521  0.42004   0.6011     C
C       0.2534  0.17402   0.6487     C
C       0.2534  0.32598   0.1487     C
C       0.2568  0.09967   0.5824     C
C       0.2568  0.40033   0.0824     C
H       0.2579   0.0454   0.0952     H
H       0.2579   0.4546   0.5952     H
H       0.2615   0.6389   0.4787     H
H       0.2615   0.8611   0.9787     H
H       0.2631   0.5505   0.0411     H
H       0.2631   0.9495   0.5411     H
O      0.26378  0.57544   0.3008     O
O      0.26378  0.92456   0.8008     O
H       0.2666   0.6454   0.9743     H
H       0.2666   0.8546   0.4743     H
C       0.2717  0.58694   0.3657     C
C       0.2717  0.91306   0.8657     C
C       0.2835  0.60463   0.8923     C
C       0.2835  0.89537   0.3923     C
C       0.2905  0.54753  0.14988     C
C       0.2905  0.95247  0.64988     C
H       0.2933   0.2064   0.8932     H
H       0.2933   0.2936   0.3932     H
C       0.3067  0.54242  0.08603     C
C       0.3067  0.95758  0.58603     C
C       0.3092  0.63976    0.947     C
C       0.3092  0.86024    0.447     C
H        0.313   0.2177   0.4513     H
H        0.313   0.2823   0.9513     H
C       0.3239  0.15705   0.1357     C
C       0.3239  0.34295   0.6357     C
H       0.3311   0.0103   0.4688     H
H       0.3311   0.4897   0.9688     H
C       0.3318  0.19348   0.6276     C
C       0.3318  0.30652   0.1276     C
H       0.3323    0.575   0.8146     H
H       0.3323    0.925   0.3146     H
C       0.3335  0.11917    0.561     C
C       0.3335  0.38083    0.061     C
C       0.3351  0.10735  0.12928     C
C       0.3351  0.39265  0.62928     C
C        0.348  0.21165   0.9334     C
C        0.348  0.28835   0.4334     C
C       0.3481  0.59811  0.85228     C
C       0.3481  0.90189  0.35228     C
O      0.34826  0.57774  0.41596     O
O      0.34826  0.92226  0.91596     O
H       0.3563    0.071   0.7649     H
H       0.3563    0.429   0.2649     H
H       0.3578    0.225   0.6439     H
H       0.3578    0.275   0.1439     H
C       0.3598  0.24288   0.4683     C
C       0.3598  0.25712   0.9683     C
H       0.3603   0.1002   0.5313     H
H       0.3603   0.3998   0.0313     H
H       0.3643   0.1483   0.8176     H
H       0.3643   0.3517   0.3176     H
C       0.3703  0.16607   0.5829     C
C       0.3703  0.33393   0.0829     C
N      0.37178  0.53072  0.20375     N
N      0.37178  0.96928  0.70375     N
C       0.3738  0.07275   0.8149     C
C       0.3738  0.42725   0.3149     C
C       0.3791  0.11966  0.84634     C
C       0.3791  0.38034  0.34634     C
H       0.3798   0.1769   0.1544     H
H       0.3798   0.3231   0.6544     H
N      0.39214  0.03012  0.85194     N
N      0.39214  0.46988  0.35194     N
Zn     0.39333  0.54182   0.3107    Zn
Zn     0.39333  0.95818   0.8107    Zn
C        0.395  0.66643   0.9625     C
C        0.395  0.83357   0.4625     C
C       0.3992  0.00618  0.48131     C
C       0.3992  0.49382  0.98131     C
N      0.39952  0.52316  0.09948     N
N      0.39952  0.97684  0.59948     N
C       0.4063  0.12404  0.92016     C
C       0.4063  0.37596  0.42016     C
H       0.4101   0.6896   0.0002     H
H       0.4101   0.8104   0.5002     H
H       0.4136   0.0302   0.3873     H
H       0.4136   0.4698   0.8873     H
C       0.4164  0.17321  0.95726     C
C       0.4164  0.32679  0.45726     C
C       0.4166  0.03448  0.92369     C
C       0.4166  0.46552  0.42369     C
C       0.4252  0.07954  0.95929     C
C       0.4252  0.42046  0.45929     C
H       0.4286   0.0051    0.951     H
H       0.4286   0.4949    0.451     H
C       0.4346  0.62473   0.8667     C
C       0.4346  0.87527   0.3667     C
C       0.4349  0.51658  0.17114     C
C       0.4349  0.98342  0.67114     C
C        0.437   0.0856    0.152     C
C        0.437   0.4144    0.652     C
C       0.4393  0.23372   0.5275     C
C       0.4393  0.26628   0.0275     C
H       0.4393   0.7333   0.4057     H
H       0.4393   0.7667   0.9057     H
H       0.4436   0.0803   0.0094     H
H       0.4436   0.4197   0.5094     H
C       0.4484  0.01804  0.43267     C
C       0.4484  0.48196  0.93267     C
O       0.4497   0.0426  0.14064     O
O       0.4497   0.4574  0.64064     O
N      0.45054  0.18595  0.56189     N
N      0.45054  0.31405  0.06189     N
C       0.4507  0.51185  0.04877     C
C       0.4507  0.98815  0.54877     C
C         0.46  0.65942  0.92263     C
C         0.46  0.84058  0.42263     C
H       0.4602   0.6563   0.4623     H
H       0.4602   0.8437   0.9623     H
H       0.4765   0.6195   0.8388     H
H       0.4765   0.8805   0.3388     H
O       0.4908  0.60946    0.317     O
O       0.4908  0.89054    0.817     O
C       0.4931  0.72797   0.4465     C
C       0.4931  0.77203   0.9465     C
C       0.4947  0.18196  0.01912     C
C       0.4947  0.31804  0.51912     C
H       0.4971   0.5035   0.1947     H
H       0.4971   0.9965   0.6947     H
H       0.5029   0.0035   0.3053     H
H       0.5029   0.4965   0.8053     H
C       0.5053  0.68196  0.48088     C
C       0.5053  0.81804  0.98088     C
C       0.5069  0.22797   0.0535     C
C       0.5069  0.27203   0.5535     C
O       0.5092  0.10946    0.183     O
O       0.5092  0.39054    0.683     O
H       0.5235   0.1195   0.6612     H
H       0.5235   0.3805   0.1612     H
H       0.5398   0.1563   0.0377     H
H       0.5398   0.3437   0.5377     H
C         0.54  0.15942  0.57737     C
C         0.54  0.34058  0.07737     C
C       0.5493  0.01185  0.45123     C
C       0.5493  0.48815  0.95123     C
N      0.54946  0.68595  0.93811     N
N      0.54946  0.81405  0.43811     N
O       0.5503   0.5426  0.35936     O
O       0.5503   0.9574  0.85936     O
C       0.5516  0.51804  0.06733     C
C       0.5516  0.98196  0.56733     C
H       0.5564   0.5803   0.4906     H
H       0.5564   0.9197   0.9906     H
H       0.5607   0.2333   0.0943     H
H       0.5607   0.2667   0.5943     H
C       0.5607  0.73372   0.9725     C
C       0.5607  0.76628   0.4725     C
C        0.563   0.5856    0.348     C
C        0.563   0.9144    0.848     C
C       0.5651  0.01658  0.32886     C
C       0.5651  0.48342  0.82886     C
C       0.5654  0.12473   0.6333     C
C       0.5654  0.37527   0.1333     C
H       0.5714   0.5051    0.549     H
H       0.5714   0.9949    0.049     H
C       0.5748  0.57954  0.54071     C
C       0.5748  0.92046  0.04071     C
C       0.5834  0.53448  0.57631     C
C       0.5834  0.96552  0.07631     C
C       0.5836  0.67321  0.54274     C
C       0.5836  0.82679  0.04274     C
H       0.5864   0.5302   0.1127     H
H       0.5864   0.9698   0.6127     H
H       0.5899   0.1896   0.4998     H
H       0.5899   0.3104   0.9998     H
C       0.5937  0.62404  0.57984     C
C       0.5937  0.87596  0.07984     C
N      0.60048  0.02316  0.40052     N
N      0.60048  0.47684  0.90052     N
C       0.6008  0.50618  0.01869     C
C       0.6008  0.99382  0.51869     C
C        0.605  0.16643   0.5375     C
C        0.605  0.33357   0.0375     C
Zn     0.60667  0.04182   0.1893    Zn
Zn     0.60667  0.45818   0.6893    Zn
N      0.60786  0.53012  0.64806     N
N      0.60786  0.96988  0.14806     N
H       0.6202   0.6769   0.3456     H
H       0.6202   0.8231   0.8456     H
C       0.6209  0.61966  0.65366     C
C       0.6209  0.88034  0.15366     C
C       0.6262  0.57275   0.6851     C
C       0.6262  0.92725   0.1851     C
N      0.62822  0.03072  0.29625     N
N      0.62822  0.46928  0.79625     N
C       0.6297  0.66607   0.9171     C
C       0.6297  0.83393   0.4171     C
H       0.6357   0.6483   0.6824     H
H       0.6357   0.8517   0.1824     H
H       0.6397   0.6002   0.9687     H
H       0.6397   0.8998   0.4687     H
C       0.6402  0.74288   0.0317     C
C       0.6402  0.75712   0.5317     C
H       0.6422    0.725   0.8561     H
H       0.6422    0.775   0.3561     H
H       0.6437    0.571   0.7351     H
H       0.6437    0.929   0.2351     H
O      0.65174  0.07774  0.08404     O
O      0.65174  0.42226  0.58404     O
C       0.6519  0.09811  0.64772     C
C       0.6519  0.40189  0.14772     C
C        0.652  0.71165   0.5666     C
C        0.652  0.78835   0.0666     C
C       0.6649  0.60735  0.37072     C
C       0.6649  0.89265  0.87072     C
C       0.6665  0.61917    0.939     C
C       0.6665  0.88083    0.439     C
H       0.6677    0.075   0.6854     H
H       0.6677    0.425   0.1854     H
C       0.6682  0.69348   0.8724     C
C       0.6682  0.80652   0.3724     C
H       0.6689   0.5103   0.0312     H
H       0.6689   0.9897   0.5312     H
C       0.6761  0.65705   0.3643     C
C       0.6761  0.84295   0.8643     C
H        0.687   0.7177   0.0487     H
H        0.687   0.7823   0.5487     H
C       0.6908  0.13976    0.553     C
C       0.6908  0.36024    0.053     C
C       0.6933  0.04242  0.41397     C
C       0.6933  0.45758  0.91397     C
H       0.7067   0.7064   0.6068     H
H       0.7067   0.7936   0.1068     H
C       0.7095  0.04753  0.35012     C
C       0.7095  0.45247  0.85012     C
C       0.7165  0.10463   0.6077     C
C       0.7165  0.39537   0.1077     C
C       0.7283  0.08694   0.1343     C
C       0.7283  0.41306   0.6343     C
H       0.7334   0.1454   0.5257     H
H       0.7334   0.3546   0.0257     H
O      0.73622  0.07544   0.1992     O
O      0.73622  0.42456   0.6992     O
H       0.7369   0.0505   0.4589     H
H       0.7369   0.4495   0.9589     H
H       0.7385   0.1389   0.0213     H
H       0.7385   0.3611   0.5213     H
H       0.7421   0.5454   0.4048     H
H       0.7421   0.9546   0.9048     H
C       0.7432  0.59967   0.9176     C
C       0.7432  0.90033   0.4176     C
C       0.7466  0.67402   0.8513     C
C       0.7466  0.82598   0.3513     C
C       0.7479  0.57996   0.3989     C
C       0.7479  0.92004   0.8989     C
C       0.7665  0.67967    0.384     C
C       0.7665  0.82033    0.884     C
H       0.7668   0.0604   0.3432     H
H       0.7668   0.4396   0.8432     H
H       0.7672   0.5676   0.9327     H
H       0.7672   0.9324   0.4327     H
H       0.7711   0.7143   0.3786     H
H       0.7711   0.7857   0.8786     H
H       0.7734   0.6929   0.8216     H
H       0.7734   0.8071   0.3216     H
C       0.7842    0.627  0.87449     C
C       0.7842    0.873  0.37449     C
H       0.7961   0.5289   0.5907     H
H       0.7961   0.9711   0.0907     H
C       0.8013  0.13654  0.05421     C
C       0.8013  0.36346  0.55421     C
C       0.8087   0.0752  0.62443     C
C       0.8087   0.4248  0.12443     C
H       0.8127   0.5408   0.7172     H
H       0.8127   0.9592   0.2172     H
C      0.81465  0.11172  0.11844     C
C      0.81465  0.38828  0.61844     C
O       0.8236  0.03996  0.67101     O
O       0.8236  0.46004  0.17101     O
C       0.8418  0.60131  0.41958     C
C       0.8418  0.89869  0.91958     C
C       0.8503  0.65194  0.41158     C
C       0.8503  0.84806  0.91158     C
C       0.8545  0.52827   0.6287     C
C       0.8545  0.97173   0.1287     C
H       0.8579   0.0348   0.0148     H
H       0.8579   0.4652   0.5148     H
C       0.8646  0.53511   0.6984     C
C       0.8646  0.96489   0.1984     C
C       0.8685  0.60638  0.85177     C
C       0.8685  0.89362  0.35177     C
H       0.8704   0.1755   0.9951     H
H       0.8704   0.3245   0.4951     H
O      0.87097  0.08445  0.59295     O
O      0.87097  0.41555  0.09295     O
H       0.8716   0.6377   0.1126     H
H       0.8716   0.8623   0.6126     H
H       0.8767   0.5575    0.154     H
H       0.8767   0.9425    0.654     H
H       0.8797   0.7077   0.5352     H
H       0.8797   0.7923   0.0352     H
C       0.8806  0.15807  0.03818     C
C       0.8806  0.34193  0.53818     C
H       0.8904   0.7145   0.0864     H
H       0.8904   0.7855   0.5864     H
H       0.8976   0.5814   0.4384     H
H       0.8976   0.9186   0.9384     H
O      0.90031  0.56306  0.87567     O
O      0.90031  0.93694  0.37567     O
H       0.9006   0.0515   0.9115     H
H       0.9006   0.4485   0.4115     H
O      0.90393  0.63139  0.81204     O
O      0.90393  0.86861  0.31204     O
C       0.9088    0.108  0.16638     C
C       0.9088    0.392  0.66638     C
C       0.9129  0.73327   0.5195     C
C       0.9129  0.76673   0.0195     C
C       0.9135  0.61445   0.1013     C
C       0.9135  0.88555   0.6013     C
C       0.9148   0.0209  0.00862     C
C       0.9148   0.4791  0.50862     C
C       0.9169  0.56593    0.126     C
C       0.9169  0.93407    0.626     C
H       0.9186   0.0913     0.21     H
H       0.9186   0.4087     0.71     H
C       0.9195  0.72004  0.05035     C
C       0.9195  0.77996  0.55035     C
H       0.9231   0.0181    0.796     H
H       0.9231   0.4819    0.296     H
H       0.9258   0.0988    0.482     H
H       0.9258   0.4012    0.982     H
H       0.9261   0.0204   0.4373     H
H       0.9261   0.4796   0.9373     H
C       0.9403  0.03086   0.9473     C
C       0.9403  0.46914   0.4473     C
N       0.9446  0.67569  0.43259     N
N       0.9446  0.82431  0.93259     N
N      0.94817  0.52014   0.6245     N
N      0.94817  0.97986   0.1245     N
H       0.9484    0.626   0.3173     H
H       0.9484    0.874   0.8173     H
H       0.9544   0.1657   0.5402     H
H       0.9544   0.3343   0.0402     H
C       0.9546  0.72357  0.46581     C
C       0.9546  0.77643  0.96581     C
N      0.96156  0.53256  0.73835     N
N      0.96156  0.96744  0.23835     N
C       0.9671  0.09147  0.45429     C
C       0.9671  0.40853  0.95429     C
H       0.9678   0.2439   0.5929     H
H       0.9678   0.2561   0.0929     H
C       0.9679  0.04438  0.42749     C
C       0.9679  0.45562  0.92749     C
C       0.9692  0.68041  0.02876     C
C       0.9692  0.81959  0.52876     C
C      0.97242  0.62907  0.05926     C
C      0.97242  0.87093  0.55926     C
N      0.97417  0.53037  0.11248     N
N      0.97417  0.96963  0.61248     N
C       0.9746  0.50995  0.56079     C
C       0.9746  0.99005  0.06079     C
C      0.97521    0.154  0.08566     C
C      0.97521    0.346  0.58566     C
Zn     0.98604  0.04144  0.65439    Zn
Zn     0.98604  0.45856  0.15439    Zn
C       0.9886  0.12888  0.15014     C
C       0.9886  0.37112  0.65014     C
C       0.9887  0.19093  0.52487     C
C       0.9887  0.30907  0.02487     C
C        0.991  0.02273  0.80834     C
C        0.991  0.47727  0.30834     C
C       0.9961  0.23811  0.55648     C
C       0.9961  0.26189  0.05648     C
