data_I
_chemical_name_common  '/home/zhangsd/repos/MofS-CGCNN/ML/data/TSD/clean_cifs/IQOJAB_clean'
_cell_length_a 16.35830
_cell_length_b 18.13360
_cell_length_c 22.59150
_cell_angle_alpha 90.00000
_cell_angle_beta  114.10500
_cell_angle_gamma 90.00000
_space_group_name_H-M_alt      'P 1'


loop_
_space_group_symop_operation_xyz
  'x, y, z' 

loop_
_atom_site_label
_atom_site_fract_x
_atom_site_fract_y
_atom_site_fract_z
_atom_site_type_symbol
C       0.0018  0.65896  0.48501     C
C       0.0018  0.84104  0.98501     C
C       0.0021  0.22213  0.47025     C
C       0.0021  0.27787  0.97025     C
H       0.0024   0.6357    0.699     H
H       0.0024   0.8643    0.199     H
N      0.00948  0.07779  0.87732     N
N      0.00948  0.42221  0.37732     N
H       0.0104   0.0137    0.286     H
H       0.0104   0.4863    0.786     H
C       0.0147  0.14279  0.38662     C
C       0.0147  0.35721  0.88662     C
C       0.0147  0.58001  0.15232     C
C       0.0147  0.91999  0.65232     C
H       0.0309   0.6144   0.4868     H
H       0.0309   0.8856   0.9868     H
C       0.0319  0.05427  0.31306     C
C       0.0319  0.44573  0.81306     C
N      0.03624  0.67104  0.08152     N
N      0.03624  0.82896  0.58152     N
C       0.0383  0.12133  0.84193     C
C       0.0383  0.37867  0.34193     C
C       0.0406  0.71081  0.53331     C
C       0.0406  0.78919  0.03331     C
H       0.0509   0.0252   0.9603     H
H       0.0509   0.4748   0.4603     H
H        0.066   0.5555   0.1549     H
H        0.066   0.9445   0.6549     H
C       0.0695  0.05647  0.93567     C
C       0.0695  0.44353  0.43567     C
C       0.0802  0.17286  0.06632     C
C       0.0802  0.32714  0.56632     C
C        0.082  0.20615  0.52284     C
C        0.082  0.29385  0.02284     C
O      0.09126   0.0498  0.10125     O
O      0.09126   0.4502  0.60125     O
H       0.0948   0.7008   0.5679     H
H       0.0948   0.7992   0.0679     H
C       0.0949  0.17587  0.39256     C
C       0.0949  0.32413  0.89256     C
H        0.109   0.1603   0.5261     H
H        0.109   0.3397   0.0261     H
C       0.1111  0.08846  0.31818     C
C       0.1111  0.41154  0.81818     C
O      0.11141  0.02288  0.22944     O
O      0.11141  0.47712  0.72944     O
H       0.1164   0.2167   0.4194     H
H       0.1164   0.2833   0.9194     H
Zn     0.11957  0.54263  0.65947    Zn
Zn     0.11957  0.95737  0.15947    Zn
C       0.1208  0.24097   0.0702     C
C       0.1208  0.25903   0.5702     C
C       0.1252   0.1457  0.86342     C
C       0.1252   0.3543  0.36342     C
C       0.1262  0.11295  0.11382     C
C       0.1262  0.38705  0.61382     C
C       0.1311  0.66509  0.10947     C
C       0.1311  0.83491  0.60947     C
H       0.1423   0.1759   0.8372     H
H       0.1423   0.3241   0.3372     H
C       0.1424  0.14872  0.35916     C
C       0.1424  0.35128  0.85916     C
H       0.1426   0.6406   0.0264     H
H       0.1426   0.8594   0.5264     H
H       0.1521   0.6918   0.2011     H
H       0.1521   0.8082   0.7011     H
C       0.1572   0.0625  0.27721     C
C       0.1572   0.4375  0.77721     C
C       0.1576   0.0789  0.96073     C
C       0.1576   0.4211  0.46073     C
H       0.1748   0.2488    0.605     H
H       0.1748   0.2512    0.105     H
C       0.1751   0.6474  0.07067     C
C       0.1751   0.8526  0.57067     C
C       0.1809   0.6779  0.17485     C
C       0.1809   0.8221  0.67485     C
O      0.18144  0.61787  0.73143     O
O      0.18144  0.88213  0.23143     O
O      0.18708  0.58475  0.61018     O
O      0.18708  0.91525  0.11018     O
C       0.1879    0.125  0.92491     C
C       0.1879    0.375  0.42491     C
H        0.196    0.171   0.3641     H
H        0.196    0.329   0.8641     H
H       0.1968   0.0631   0.0017     H
H       0.1968   0.4369   0.5017     H
O      0.19695  0.12976  0.16212     O
O      0.19695  0.37024  0.66212     O
H       0.2078   0.7272   0.8039     H
H       0.2078   0.7728   0.3039     H
O      0.23702  0.08259  0.29105     O
O      0.23702  0.41741  0.79105     O
H         0.24   0.6898   0.5632     H
H         0.24   0.8102   0.0632     H
C       0.2557  0.55377  0.60991     C
C       0.2557  0.94623  0.10991     C
C        0.262  0.60433  0.76728     C
C        0.262  0.89567  0.26728     C
C       0.2668  0.71753  0.83201     C
C       0.2668  0.78247  0.33201     C
C       0.2674   0.6397  0.09723     C
C       0.2674   0.8603  0.59723     C
C       0.2728   0.6701  0.20132     C
C       0.2728   0.8299  0.70132     C
Zn     0.27845  0.05203  0.22021    Zn
Zn     0.27845  0.44797  0.72021    Zn
H        0.281   0.6943   0.3899     H
H        0.281   0.8057   0.8899     H
C        0.282  0.15012     0.95     C
C        0.282  0.34988     0.45     C
C        0.284  0.66488  0.55498     C
C        0.284  0.83512  0.05498     C
H        0.286   0.1716   0.8631     H
H        0.286   0.3284   0.3631     H
O       0.2887  0.00611  0.13851     O
O       0.2887  0.49389  0.63851     O
H       0.2961   0.6276   0.0705     H
H       0.2961   0.8724   0.5705     H
C        0.303   0.5918  0.57422     C
C        0.303   0.9082  0.07422     C
H       0.3053   0.6788   0.2454     H
H       0.3053   0.8212   0.7454     H
O      0.30623  0.55048  0.76087     O
O      0.30623  0.94952  0.26087     O
H       0.3091   0.1435   0.0455     H
H       0.3091   0.3565   0.5455     H
C       0.3099  0.65644  0.82191     C
C       0.3099  0.84356  0.32191     C
C       0.3108  0.73526   0.3838     C
C       0.3108  0.76474   0.8838     C
H       0.3158     0.75   0.0114     H
H       0.3158     0.75   0.5114     H
C       0.3175  0.64968  0.16317     C
C       0.3175  0.85032  0.66317     C
C       0.3208   0.1708  0.90748     C
C       0.3208   0.3292  0.40748     C
C       0.3293  0.70103  0.52384     C
C       0.3293  0.79897  0.02384     C
C       0.3347  0.15363  0.01648     C
C       0.3347  0.34637  0.51648     C
C       0.3699   0.5562  0.56208     C
C       0.3699   0.9438  0.06208     C
H       0.3845   0.5076   0.5754     H
H       0.3845   0.9924   0.0754     H
C       0.3947    0.665  0.51103     C
C       0.3947    0.835  0.01103     C
C       0.3979   0.6431  0.86469     C
C       0.3979   0.8569  0.36469     C
C       0.3984  0.74864  0.42633     C
C       0.3984  0.75136  0.92633     C
N      0.40294  0.09757  0.25444     N
N      0.40294  0.40243  0.75444     N
H       0.4084   0.1316   0.3385     H
H       0.4084   0.3684   0.8385     H
C       0.4102   0.1899  0.93099     C
C       0.4102   0.3101  0.43099     C
C       0.4147   0.5919  0.53065     C
C       0.4147   0.9081  0.03065     C
C       0.4152  0.63653   0.1921     C
C       0.4152  0.86347   0.6921     C
H       0.4244   0.0777   0.1767     H
H       0.4244   0.4223   0.6767     H
C       0.4247   0.1719  0.04001     C
C       0.4247   0.3281  0.54001     C
H       0.4271   0.6093   0.2822     H
H       0.4271   0.8907   0.7822     H
H       0.4276   0.6021   0.8585     H
H       0.4276   0.8979   0.3585     H
H        0.435   0.2043   0.9024     H
H        0.435   0.2957   0.4024     H
C       0.4421     0.69  0.91646     C
C       0.4421     0.81  0.41646     C
C       0.4425   0.1253  0.31452     C
C       0.4425   0.3747  0.81452     C
N       0.4431  0.70208  0.48015     N
N       0.4431  0.79792  0.98015     N
H       0.4436   0.6639   0.1159     H
H       0.4436   0.8361   0.6159     H
C       0.4519   0.0938  0.21943     C
C       0.4519   0.4062  0.71943     C
C       0.4585   0.6126  0.25603     C
C       0.4585   0.8874  0.75603     C
H       0.4587   0.5671   0.5224     H
H       0.4587   0.9329   0.0224     H
H       0.4589   0.1736   0.0845     H
H       0.4589   0.3264   0.5845     H
C       0.4636   0.1877  0.99748     C
C       0.4636   0.3123  0.49748     C
C       0.4683   0.6449  0.15782     C
C       0.4683   0.8551  0.65782     C
H       0.4989   0.1803   0.5554     H
H       0.4989   0.3197   0.0554     H
H       0.5011   0.6803   0.9446     H
H       0.5011   0.8197   0.4446     H
C       0.5317   0.1449  0.34218     C
C       0.5317   0.3551  0.84218     C
C       0.5364   0.6877  0.50252     C
C       0.5364   0.8123  0.00252     C
H       0.5411   0.6736   0.4155     H
H       0.5411   0.8264   0.9155     H
H       0.5413   0.0671   0.9776     H
H       0.5413   0.4329   0.4776     H
C       0.5415   0.1126  0.24397     C
C       0.5415   0.3874  0.74397     C
C       0.5481   0.5938  0.28057     C
C       0.5481   0.9062  0.78057     C
H       0.5564   0.1639   0.3841     H
H       0.5564   0.3361   0.8841     H
N       0.5569  0.20208  0.01985     N
N       0.5569  0.29792  0.51985     N
C       0.5575   0.6253  0.18548     C
C       0.5575   0.8747  0.68548     C
C       0.5579     0.19  0.58354     C
C       0.5579     0.31  0.08354     C
H        0.565   0.7043   0.5976     H
H        0.565   0.7957   0.0976     H
H       0.5724   0.1021   0.6415     H
H       0.5724   0.3979   0.1415     H
H       0.5729   0.1093   0.2178     H
H       0.5729   0.3907   0.7178     H
C       0.5753   0.6719  0.45999     C
C       0.5753   0.8281  0.95999     C
H       0.5756   0.5777   0.3233     H
H       0.5756   0.9223   0.8233     H
C       0.5848  0.13653   0.3079     C
C       0.5848  0.36347   0.8079     C
C       0.5853   0.0919  0.96935     C
C       0.5853   0.4081  0.46935     C
C       0.5898   0.6899  0.56901     C
C       0.5898   0.8101  0.06901     C
H       0.5916   0.6316   0.1615     H
H       0.5916   0.8684   0.6615     H
N      0.59706  0.59757  0.24556     N
N      0.59706  0.90243  0.74556     N
C       0.6016  0.24864  0.07367     C
C       0.6016  0.25136  0.57367     C
C       0.6021   0.1431  0.63531     C
C       0.6021   0.3569  0.13531     C
C       0.6053    0.165  0.98897     C
C       0.6053    0.335  0.48897     C
H       0.6155   0.0076   0.9246     H
H       0.6155   0.4924   0.4246     H
C       0.6301   0.0562  0.93792     C
C       0.6301   0.4438  0.43792     C
C       0.6653  0.65363  0.48352     C
C       0.6653  0.84637  0.98352     C
C       0.6707  0.20103  0.97616     C
C       0.6707  0.29897  0.47616     C
C       0.6792   0.6708  0.59252     C
C       0.6792   0.8292  0.09252     C
C       0.6825  0.14968  0.33683     C
C       0.6825  0.35032  0.83683     C
H       0.6842     0.25   0.4886     H
H       0.6842     0.25   0.9886     H
C       0.6892  0.23526   0.1162     C
C       0.6892  0.26474   0.6162     C
C       0.6901  0.15644  0.67809     C
C       0.6901  0.34356  0.17809     C
H       0.6909   0.6435   0.4545     H
H       0.6909   0.8565   0.9545     H
O      0.69377  0.05048  0.73913     O
O      0.69377  0.44952  0.23913     O
H       0.6947   0.1788   0.2546     H
H       0.6947   0.3212   0.7546     H
C        0.697   0.0918  0.92578     C
C        0.697   0.4082  0.42578     C
H       0.7039   0.1276   0.4295     H
H       0.7039   0.3724   0.9295     H
O       0.7113  0.50611  0.36149     O
O       0.7113  0.99389  0.86149     O
H        0.714   0.6716   0.6369     H
H        0.714   0.8284   0.1369     H
C        0.716  0.16488  0.94502     C
C        0.716  0.33512  0.44502     C
C        0.718  0.65012     0.55     C
C        0.718  0.84988     0.05     C
H        0.719   0.1943   0.1101     H
H        0.719   0.3057   0.6101     H
Zn     0.72155  0.55203  0.27979    Zn
Zn     0.72155  0.94797  0.77979    Zn
C       0.7272   0.1701  0.29868     C
C       0.7272   0.3299  0.79868     C
C       0.7326   0.1397  0.40277     C
C       0.7326   0.3603  0.90277     C
C       0.7332  0.21753  0.66799     C
C       0.7332  0.28247  0.16799     C
C        0.738  0.10433  0.73272     C
C        0.738  0.39567  0.23272     C
C       0.7443  0.05377  0.89009     C
C       0.7443  0.44623  0.39009     C
H         0.76   0.1898   0.9368     H
H         0.76   0.3102   0.4368     H
O      0.76298  0.58259  0.20895     O
O      0.76298  0.91741  0.70895     O
H       0.7922   0.2272   0.6961     H
H       0.7922   0.2728   0.1961     H
O      0.80305  0.62976  0.33788     O
O      0.80305  0.87024  0.83788     O
H       0.8032   0.5631   0.4983     H
H       0.8032   0.9369   0.9983     H
H        0.804    0.671   0.1359     H
H        0.804    0.829   0.6359     H
C       0.8121    0.625  0.57509     C
C       0.8121    0.875  0.07509     C
O      0.81292  0.08475  0.88982     O
O      0.81292  0.41525  0.38982     O
O      0.81856  0.11787  0.76857     O
O      0.81856  0.38213  0.26857     O
C       0.8191   0.1779  0.32515     C
C       0.8191   0.3221  0.82515     C
C       0.8249   0.1474  0.42933     C
C       0.8249   0.3526  0.92933     C
H       0.8252   0.7488    0.895     H
H       0.8252   0.7512    0.395     H
C       0.8424   0.5789  0.53927     C
C       0.8424   0.9211  0.03927     C
C       0.8428   0.5625  0.22279     C
C       0.8428   0.9375  0.72279     C
H       0.8479   0.1918   0.2989     H
H       0.8479   0.3082   0.7989     H
H       0.8574   0.1406   0.4736     H
H       0.8574   0.3594   0.9736     H
C       0.8576  0.64872  0.14084     C
C       0.8576  0.85128  0.64084     C
H       0.8577   0.6759   0.6628     H
H       0.8577   0.8241   0.1628     H
C       0.8689  0.16509  0.39053     C
C       0.8689  0.33491  0.89053     C
C       0.8738  0.61295  0.38618     C
C       0.8738  0.88705  0.88618     C
C       0.8748   0.6457  0.63658     C
C       0.8748   0.8543  0.13658     C
C       0.8792  0.74097   0.4298     C
C       0.8792  0.75903   0.9298     C
Zn     0.88043  0.04263  0.84053    Zn
Zn     0.88043  0.45737  0.34053    Zn
H       0.8836   0.7167   0.0806     H
H       0.8836   0.7833   0.5806     H
O      0.88859  0.52288  0.27056     O
O      0.88859  0.97712  0.77056     O
C       0.8889  0.58846  0.18182     C
C       0.8889  0.91154  0.68182     C
H        0.891   0.6603   0.9739     H
H        0.891   0.8397   0.4739     H
C       0.9051  0.67587  0.10744     C
C       0.9051  0.82413  0.60744     C
H       0.9052   0.2008   0.9321     H
H       0.9052   0.2992   0.4321     H
O      0.90874   0.5498  0.39875     O
O      0.90874   0.9502  0.89875     O
C        0.918  0.70615  0.97716     C
C        0.918  0.79385  0.47716     C
C       0.9198  0.67286  0.43368     C
C       0.9198  0.82714  0.93368     C
C       0.9305  0.55647  0.56433     C
C       0.9305  0.94353  0.06433     C
H        0.934   0.0555   0.3451     H
H        0.934   0.4445   0.8451     H
H       0.9491   0.5252   0.5397     H
H       0.9491   0.9748   0.0397     H
C       0.9594  0.21081  0.96669     C
C       0.9594  0.28919  0.46669     C
C       0.9617  0.62133  0.65807     C
C       0.9617  0.87867  0.15807     C
N      0.96376  0.17104  0.41848     N
N      0.96376  0.32896  0.91848     N
C       0.9681  0.55427  0.18694     C
C       0.9681  0.94573  0.68694     C
H       0.9691   0.1144   0.0132     H
H       0.9691   0.3856   0.5132     H
C       0.9853  0.08001  0.34768     C
C       0.9853  0.41999  0.84768     C
C       0.9853  0.64279  0.11338     C
C       0.9853  0.85721  0.61338     C
H       0.9896   0.5137    0.214     H
H       0.9896   0.9863    0.714     H
N      0.99052  0.57779  0.62268     N
N      0.99052  0.92221  0.12268     N
H       0.9976   0.1357    0.801     H
H       0.9976   0.3643    0.301     H
C       0.9979  0.72213  0.02975     C
C       0.9979  0.77787  0.52975     C
C       0.9982  0.15896  0.01499     C
C       0.9982  0.34104  0.51499     C
