data_I
_chemical_name_common  '/home/zhangsd/repos/MofS-CGCNN/ML/data/TSD/clean_cifs/IREKUN_clean'
_cell_length_a 10.86100
_cell_length_b  6.39140
_cell_length_c 17.00300
_cell_angle_alpha 90.00000
_cell_angle_beta  105.82800
_cell_angle_gamma 90.00000
_space_group_name_H-M_alt      'P 1'


loop_
_space_group_symop_operation_xyz
  'x, y, z' 

loop_
_atom_site_label
_atom_site_fract_x
_atom_site_fract_y
_atom_site_fract_z
_atom_site_type_symbol
C       0.0187   0.5064    0.631     C
C       0.0187   0.9936    0.131     C
H       0.0253   0.2387   0.6946     H
H       0.0253   0.2613   0.1946     H
C       0.0364   0.6527    0.062     C
C       0.0364   0.8473    0.562     C
H       0.0506   0.5309   0.4124     H
H       0.0506   0.9691   0.9124     H
C       0.0637    0.131   0.1953     C
C       0.0637    0.369   0.6953     C
C       0.0761   0.6977   0.6311     C
C       0.0761   0.8023   0.1311     C
C       0.0864   0.0689   0.4608     C
C       0.0864   0.4311   0.9608     C
C       0.1235   0.5837   0.0199     C
C       0.1235   0.9163   0.5199     C
H       0.1461    0.118    0.435     H
H       0.1461    0.382    0.935     H
C       0.1655   0.0756   0.2604     C
C       0.1655   0.4244   0.7604     C
C       0.1756   0.7442   0.1984     C
C       0.1756   0.7558   0.6984     C
H       0.1966   0.1709   0.3024     H
H       0.1966   0.3291   0.8024     H
H       0.2119    0.612   0.1996     H
H       0.2119    0.888   0.6996     H
C        0.222   0.6196   0.7641     C
C        0.222   0.8804   0.2641     C
C       0.2566   0.6701    0.036     C
C       0.2566   0.8299    0.536     C
O        0.276   0.6392   0.5346     O
O        0.276   0.8608   0.0346     O
C       0.3306   0.6846   0.8353     C
C       0.3306   0.8154   0.3353     C
O       0.3445   0.5323   0.0499     O
O       0.3445   0.9677   0.5499     O
H       0.3531   0.1906   0.9554     H
H       0.3531   0.3094   0.4554     H
O       0.3597   0.6279   0.3446     O
O       0.3597   0.8721   0.8446     O
O       0.3825   0.5393   0.8808     O
O       0.3825   0.9607   0.3808     O
O       0.4449   0.1906   0.9833     O
O       0.4449   0.3094   0.4833     O
Zn     0.46915  0.50192  0.58438    Zn
Zn     0.46915  0.99808  0.08438    Zn
Zn         0.5      0.0      0.5    Zn
Zn         0.5      0.5      0.0    Zn
Zn     0.53085  0.00192  0.91562    Zn
Zn     0.53085  0.49808  0.41562    Zn
O       0.5551   0.6906   0.5167     O
O       0.5551   0.8094   0.0167     O
O       0.6175   0.0393   0.6192     O
O       0.6175   0.4607   0.1192     O
O       0.6403   0.1279   0.1554     O
O       0.6403   0.3721   0.6554     O
H       0.6469   0.6906   0.5446     H
H       0.6469   0.8094   0.0446     H
O       0.6555   0.0323   0.4501     O
O       0.6555   0.4677   0.9501     O
C       0.6694   0.1846   0.6647     C
C       0.6694   0.3154   0.1647     C
O        0.724   0.1392   0.9654     O
O        0.724   0.3608   0.4654     O
C       0.7434   0.1701    0.464     C
C       0.7434   0.3299    0.964     C
C        0.778   0.1196   0.7359     C
C        0.778   0.3804   0.2359     C
H       0.7881    0.112   0.3004     H
H       0.7881    0.388   0.8004     H
H       0.8034   0.6709   0.1976     H
H       0.8034   0.8291   0.6976     H
C       0.8244   0.2442   0.3016     C
C       0.8244   0.2558   0.8016     C
C       0.8345   0.5756   0.2396     C
C       0.8345   0.9244   0.7396     C
H       0.8539    0.618    0.065     H
H       0.8539    0.882    0.565     H
C       0.8765   0.0837   0.4801     C
C       0.8765   0.4163   0.9801     C
C       0.9136   0.5689   0.0392     C
C       0.9136   0.9311   0.5392     C
C       0.9239   0.1977   0.8689     C
C       0.9239   0.3023   0.3689     C
C       0.9363    0.631   0.3047     C
C       0.9363    0.869   0.8047     C
H       0.9494   0.0309   0.0876     H
H       0.9494   0.4691   0.5876     H
C       0.9636   0.1527    0.438     C
C       0.9636   0.3473    0.938     C
H       0.9747   0.7387   0.8054     H
H       0.9747   0.7613   0.3054     H
C       0.9813   0.0064    0.869     C
C       0.9813   0.4936    0.369     C
