data_I
_chemical_name_common  '/home/zhangsd/repos/MofS-CGCNN/ML/data/TSD/clean_cifs/IRELAU_clean'
_cell_length_a 12.20600
_cell_length_b 17.83300
_cell_length_c 15.30900
_cell_angle_alpha 90.00000
_cell_angle_beta  111.22900
_cell_angle_gamma 90.00000
_space_group_name_H-M_alt      'P 1'


loop_
_space_group_symop_operation_xyz
  'x, y, z' 

loop_
_atom_site_label
_atom_site_fract_x
_atom_site_fract_y
_atom_site_fract_z
_atom_site_type_symbol
O       0.0044   0.5671   0.9069     O
O       0.0044   0.9329   0.4069     O
C       0.0124   0.2366   0.4811     C
C       0.0124   0.2634   0.9811     C
H       0.0186   0.6785   0.6091     H
H       0.0186   0.8215   0.1091     H
C       0.0316   0.1297   0.5838     C
C       0.0316   0.3703   0.0838     C
C       0.0319   0.6724   0.9993     C
C       0.0319   0.8276   0.4993     C
Zn     0.03388  0.01338   0.7059    Zn
Zn     0.03388  0.48662   0.2059    Zn
H       0.0416   0.0496   0.9724     H
H       0.0416   0.4504   0.4724     H
C       0.0495   0.7227   0.5955     C
C       0.0495   0.7773   0.0955     C
H       0.0803   0.0606   0.1318     H
H       0.0803   0.4394   0.6318     H
O       0.0841   0.0489   0.8307     O
O       0.0841   0.4511   0.3307     O
H        0.086   0.2469   0.0205     H
H        0.086   0.2531   0.5205     H
C      0.11463   0.0666  0.01231     C
C      0.11463   0.4334  0.51231     C
O       0.1193  0.15778   0.6393     O
O       0.1193  0.34222   0.1393     O
C       0.1378   0.0732  0.10781     C
C       0.1378   0.4268  0.60781     C
C       0.1398   0.6484   0.0565     C
C       0.1398   0.8516   0.5565     C
C       0.1562   0.7468   0.6518     C
C       0.1562   0.7532   0.1518     C
H       0.1701    0.604   0.0428     H
H       0.1701    0.896   0.5428     H
C       0.1761   0.0795   0.8782     C
C       0.1761   0.4205   0.3782     C
O       0.1783  0.54406    0.218     O
O       0.1783  0.95594    0.718     O
H       0.1983    0.719   0.7046     H
H       0.1983    0.781   0.2046     H
C       0.2006   0.0854  0.97644     C
C       0.2006   0.4146  0.47644     C
C       0.2039   0.6887    0.133     C
C       0.2039   0.8113    0.633     C
C       0.2469   0.0985  0.16746     C
C       0.2469   0.4015  0.66746     C
O       0.2489   0.1052   0.8491     O
O       0.2489   0.3948   0.3491     O
H       0.2624   0.1029   0.2314     H
H       0.2624   0.3971   0.7314     H
Zn     0.26397  0.12312  0.72924    Zn
Zn     0.26397  0.37688  0.22924    Zn
C       0.2723   0.5333   0.2112     C
C       0.2723   0.9667   0.7112     C
C       0.3097  0.11078  0.03609     C
C       0.3097  0.38922  0.53609     C
O        0.312  0.02837   0.6988     O
O        0.312  0.47163   0.1988     O
C       0.3232   0.6678   0.1935     C
C       0.3232   0.8322   0.6935     C
C       0.3329  0.11735  0.13159     C
C       0.3329  0.38265  0.63159     C
O         0.35   0.2111    0.624     O
O         0.35   0.2889    0.124     O
C       0.3548   0.5966   0.2262     C
C       0.3548   0.9034   0.7262     C
H       0.3672   0.1234   0.0121     H
H       0.3672   0.3766   0.5121     H
O       0.3772   0.1991   0.7672     O
O       0.3772   0.3009   0.2672     O
H       0.3863   0.7315   0.6905     H
H       0.3863   0.7685   0.1905     H
C       0.3952   0.2297   0.7037     C
C       0.3952   0.2703   0.2037     C
C       0.4066   0.7207   0.2154     C
C       0.4066   0.7793   0.7154     C
C       0.4489   0.1365   0.1927     C
C       0.4489   0.3635   0.6927     C
C       0.4688    0.583   0.2821     C
C       0.4688    0.917   0.7821     C
C       0.4817   0.2078   0.2283     C
C       0.4817   0.2922   0.7283     C
H       0.4901   0.5344   0.3035     H
H       0.4901   0.9656   0.8035     H
H       0.5099   0.0344   0.1965     H
H       0.5099   0.4656   0.6965     H
C       0.5183   0.7078   0.2717     C
C       0.5183   0.7922   0.7717     C
C       0.5312    0.083   0.2179     C
C       0.5312    0.417   0.7179     C
C       0.5511   0.6365   0.3073     C
C       0.5511   0.8635   0.8073     C
C       0.5934   0.2207   0.2846     C
C       0.5934   0.2793   0.7846     C
C       0.6048   0.7297   0.7963     C
C       0.6048   0.7703   0.2963     C
H       0.6137   0.2315   0.8095     H
H       0.6137   0.2685   0.3095     H
O       0.6228   0.6991   0.7328     O
O       0.6228   0.8009   0.2328     O
H       0.6328   0.6234   0.4879     H
H       0.6328   0.8766   0.9879     H
C       0.6452   0.0966   0.2738     C
C       0.6452   0.4034   0.7738     C
O         0.65   0.7111    0.876     O
O         0.65   0.7889    0.376     O
C       0.6671  0.61735  0.36841     C
C       0.6671  0.88265  0.86841     C
C       0.6768   0.1678   0.3065     C
C       0.6768   0.3322   0.8065     C
O        0.688  0.52837   0.8012     O
O        0.688  0.97163   0.3012     O
C       0.6903  0.61078  0.46391     C
C       0.6903  0.88922  0.96391     C
C       0.7277   0.0333   0.2888     C
C       0.7277   0.4667   0.7888     C
Zn     0.73603  0.62312  0.77076    Zn
Zn     0.73603  0.87688  0.27076    Zn
H       0.7376   0.6029   0.2686     H
H       0.7376   0.8971   0.7686     H
O       0.7511   0.6052   0.6509     O
O       0.7511   0.8948   0.1509     O
C       0.7531   0.5985  0.33254     C
C       0.7531   0.9015  0.83254     C
C       0.7961   0.1887    0.367     C
C       0.7961   0.3113    0.867     C
C       0.7994   0.5854  0.52356     C
C       0.7994   0.9146  0.02356     C
H       0.8017    0.219   0.7954     H
H       0.8017    0.281   0.2954     H
O       0.8217  0.04406    0.282     O
O       0.8217  0.45594    0.782     O
C       0.8239   0.5795   0.6218     C
C       0.8239   0.9205   0.1218     C
H       0.8299    0.104   0.4572     H
H       0.8299    0.396   0.9572     H
C       0.8438   0.2468   0.8482     C
C       0.8438   0.2532   0.3482     C
C       0.8602   0.1484   0.4435     C
C       0.8602   0.3516   0.9435     C
C       0.8622   0.5732  0.39219     C
C       0.8622   0.9268  0.89219     C
O       0.8807  0.65778   0.8607     O
O       0.8807  0.84222   0.3607     O
C      0.88537   0.5666  0.48769     C
C      0.88537   0.9334  0.98769     C
H        0.914   0.7469   0.4795     H
H        0.914   0.7531   0.9795     H
O       0.9159   0.5489   0.6693     O
O       0.9159   0.9511   0.1693     O
H       0.9197   0.5606   0.3682     H
H       0.9197   0.9394   0.8682     H
C       0.9505   0.2227   0.9045     C
C       0.9505   0.2773   0.4045     C
H       0.9584   0.5496   0.5276     H
H       0.9584   0.9504   0.0276     H
Zn     0.96612  0.51338   0.7941    Zn
Zn     0.96612  0.98662   0.2941    Zn
C       0.9681   0.1724   0.5007     C
C       0.9681   0.3276   0.0007     C
C       0.9684   0.6297   0.9162     C
C       0.9684   0.8703   0.4162     C
H       0.9814   0.1785   0.8909     H
H       0.9814   0.3215   0.3909     H
C       0.9876   0.7366   0.0189     C
C       0.9876   0.7634   0.5189     C
O       0.9956   0.0671   0.5931     O
O       0.9956   0.4329   0.0931     O
