data_I
_chemical_name_common  '/home/zhangsd/repos/MofS-CGCNN/ML/data/TSD/clean_cifs/IRISAD_clean'
_cell_length_a 11.68960
_cell_length_b 11.68960
_cell_length_c  9.23570
_cell_angle_alpha 90.00000
_cell_angle_beta  90.00000
_cell_angle_gamma 90.00000
_space_group_name_H-M_alt      'P 1'


loop_
_space_group_symop_operation_xyz
  'x, y, z' 

loop_
_atom_site_label
_atom_site_fract_x
_atom_site_fract_y
_atom_site_fract_z
_atom_site_type_symbol
C          0.0    0.019    0.077     C
O          0.0   0.0464     0.82     O
O          0.0   0.1262    0.091     O
Bi         0.0     0.25    0.875    Bi
O          0.0   0.3738    0.091     O
O          0.0   0.4536     0.82     O
C          0.0    0.481    0.077     C
C          0.0    0.519    0.923     C
O          0.0   0.5464     0.18     O
O          0.0   0.6262    0.909     O
Bi         0.0     0.75    0.125    Bi
O          0.0   0.8738    0.909     O
O          0.0   0.9536     0.18     O
C          0.0    0.981    0.923     C
O       0.1238     0.25    0.659     O
O       0.1238     0.75    0.341     O
O       0.2036     0.25     0.93     O
O       0.2036     0.75     0.07     O
C        0.231     0.25    0.673     C
C        0.231     0.75    0.327     C
C        0.269     0.25    0.827     C
C        0.269     0.75    0.173     C
O       0.2964     0.25     0.57     O
O       0.2964     0.75     0.43     O
O       0.3762     0.25    0.841     O
O       0.3762     0.75    0.159     O
C          0.5    0.019    0.423     C
O          0.5   0.0464     0.68     O
O          0.5   0.1262    0.409     O
Bi         0.5     0.25    0.625    Bi
O          0.5   0.3738    0.409     O
O          0.5   0.4536     0.68     O
C          0.5    0.481    0.423     C
C          0.5    0.519    0.577     C
O          0.5   0.5464     0.32     O
O          0.5   0.6262    0.591     O
Bi         0.5     0.75    0.375    Bi
O          0.5   0.8738    0.591     O
O          0.5   0.9536     0.32     O
C          0.5    0.981    0.577     C
O       0.6238     0.25    0.841     O
O       0.6238     0.75    0.159     O
O       0.7036     0.25     0.57     O
O       0.7036     0.75     0.43     O
C        0.731     0.25    0.827     C
C        0.731     0.75    0.173     C
C        0.769     0.25    0.673     C
C        0.769     0.75    0.327     C
O       0.7964     0.25     0.93     O
O       0.7964     0.75     0.07     O
O       0.8762     0.25    0.659     O
O       0.8762     0.75    0.341     O
