data_I
_chemical_name_common  '/home/zhangsd/repos/MofS-CGCNN/ML/data/TSD/clean_cifs/IRORUE_clean'
_cell_length_a 22.75910
_cell_length_b 11.13120
_cell_length_c 11.68100
_cell_angle_alpha 90.00000
_cell_angle_beta  111.65200
_cell_angle_gamma 90.00000
_space_group_name_H-M_alt      'P 1'


loop_
_space_group_symop_operation_xyz
  'x, y, z' 

loop_
_atom_site_label
_atom_site_fract_x
_atom_site_fract_y
_atom_site_fract_z
_atom_site_type_symbol
H       0.0162   0.2401    0.527     H
H       0.0162   0.7599    0.027     H
C      0.02125   0.0055   0.0552     C
C      0.02125   0.9945   0.5552     C
H       0.0261    0.092    0.069     H
H       0.0261    0.908    0.569     H
C       0.0445    0.217   0.6042     C
C       0.0445    0.783   0.1042     C
C      0.05323   0.0963   0.6358     C
C      0.05323   0.9037   0.1358     C
H       0.0721   0.3832   0.6659     H
H       0.0721   0.6168   0.1659     H
C       0.0784   0.3028   0.6886     C
C       0.0784   0.6972   0.1886     C
O      0.07934  0.32585  0.16745     O
O      0.07934  0.67415  0.66745     O
C      0.09528   0.0702   0.7505     C
C      0.09528   0.9298   0.2505     C
H       0.1022   0.0093   0.2765     H
H       0.1022   0.9907   0.7765     H
N      0.11944  0.27613   0.8004     N
N      0.11944  0.72387   0.3004     N
C      0.12745   0.1605    0.828     C
C      0.12745   0.8395    0.328     C
C      0.13062  0.34989  0.25196     C
C      0.13062  0.65011  0.75196     C
H       0.1423   0.2397   0.4602     H
H       0.1423   0.7603   0.9602     H
O      0.14952  0.45198  0.29076     O
O      0.14952  0.54802  0.79076     O
H       0.1568   0.1391   0.9048     H
H       0.1568   0.8609   0.4048     H
C      0.16964  0.20425  0.42758     C
C      0.16964  0.79575  0.92758     C
C      0.17189   0.2449  0.31661     C
C      0.17189   0.7551  0.81661     C
Mn     0.17979  0.41617  0.93719    Mn
Mn     0.17979  0.58383  0.43719    Mn
O      0.19571  0.31974  0.10498     O
O      0.19571  0.68026  0.60498     O
H       0.2064   0.0845   0.5629     H
H       0.2064   0.9155   0.0629     H
C      0.20844  0.11073  0.48884     C
C      0.20844  0.88927  0.98884     C
C      0.21248  0.18617  0.27041     C
C      0.21248  0.81383  0.77041     C
C      0.21758  0.22035  0.14971     C
C      0.21758  0.77965  0.64971     C
H       0.2234   0.4463   0.6931     H
H       0.2234   0.5537   0.1931     H
O      0.24219  0.14498  0.10231     O
O      0.24219  0.85502  0.60231     O
N      0.24905  0.05573  0.44659     N
N      0.24905  0.94427  0.94659     N
C      0.24975  0.09261  0.33856     C
C      0.24975  0.90739  0.83856     C
C      0.25025  0.40739  0.66144     C
C      0.25025  0.59261  0.16144     C
N      0.25095  0.44427  0.55341     N
N      0.25095  0.55573  0.05341     N
O      0.25781  0.35502  0.89769     O
O      0.25781  0.64498  0.39769     O
H       0.2766   0.0537   0.3069     H
H       0.2766   0.9463   0.8069     H
C      0.28242  0.27965  0.85029     C
C      0.28242  0.72035  0.35029     C
C      0.28752  0.31383  0.72959     C
C      0.28752  0.68617  0.22959     C
C      0.29156  0.38927  0.51116     C
C      0.29156  0.61073  0.01116     C
H       0.2936   0.4155   0.4371     H
H       0.2936   0.5845   0.9371     H
O      0.30429  0.18026  0.89502     O
O      0.30429  0.81974  0.39502     O
Mn     0.32021  0.08383  0.06281    Mn
Mn     0.32021  0.91617  0.56281    Mn
C      0.32811   0.2551  0.68339     C
C      0.32811   0.7449  0.18339     C
C      0.33036  0.29575  0.57242     C
C      0.33036  0.70425  0.07242     C
H       0.3432   0.3609   0.0952     H
H       0.3432   0.6391   0.5952     H
O      0.35048  0.04802  0.70924     O
O      0.35048  0.95198  0.20924     O
H       0.3577   0.2603   0.5398     H
H       0.3577   0.7397   0.0398     H
C      0.36938  0.15011  0.74804     C
C      0.36938  0.84989  0.24804     C
C      0.37255   0.3395    0.172     C
C      0.37255   0.6605    0.672     C
N      0.38056  0.22387   0.1996     N
N      0.38056  0.77613   0.6996     N
H       0.3978   0.4907   0.7235     H
H       0.3978   0.5093   0.2235     H
C      0.40472   0.4298   0.2495     C
C      0.40472   0.5702   0.7495     C
O      0.42066  0.17415  0.83255     O
O      0.42066  0.82585  0.33255     O
C       0.4216   0.1972   0.3114     C
C       0.4216   0.8028   0.8114     C
H       0.4279   0.1168   0.3341     H
H       0.4279   0.8832   0.8341     H
C      0.44677   0.4037   0.3642     C
C      0.44677   0.5963   0.8642     C
C       0.4555    0.283   0.3958     C
C       0.4555    0.717   0.8958     C
H       0.4739    0.408    0.931     H
H       0.4739    0.592    0.431     H
C      0.47875   0.4945   0.9448     C
C      0.47875   0.5055   0.4448     C
H       0.4838   0.2599    0.473     H
H       0.4838   0.7401    0.973     H
H       0.5162   0.2599    0.027     H
H       0.5162   0.7401    0.527     H
C      0.52125   0.4945   0.5552     C
C      0.52125   0.5055   0.0552     C
H       0.5261    0.408    0.569     H
H       0.5261    0.592    0.069     H
C       0.5445    0.283   0.1042     C
C       0.5445    0.717   0.6042     C
C      0.55323   0.4037   0.1358     C
C      0.55323   0.5963   0.6358     C
H       0.5721   0.1168   0.1659     H
H       0.5721   0.8832   0.6659     H
C       0.5784   0.1972   0.1886     C
C       0.5784   0.8028   0.6886     C
O      0.57934  0.17415  0.66745     O
O      0.57934  0.82585  0.16745     O
C      0.59528   0.4298   0.2505     C
C      0.59528   0.5702   0.7505     C
H       0.6022   0.4907   0.7765     H
H       0.6022   0.5093   0.2765     H
N      0.61944  0.22387   0.3004     N
N      0.61944  0.77613   0.8004     N
C      0.62745   0.3395    0.328     C
C      0.62745   0.6605    0.828     C
C      0.63062  0.15011  0.75196     C
C      0.63062  0.84989  0.25196     C
H       0.6423   0.2603   0.9602     H
H       0.6423   0.7397   0.4602     H
O      0.64952  0.04802  0.79076     O
O      0.64952  0.95198  0.29076     O
H       0.6568   0.3609   0.4048     H
H       0.6568   0.6391   0.9048     H
C      0.66964  0.29575  0.92758     C
C      0.66964  0.70425  0.42758     C
C      0.67189   0.2551  0.81661     C
C      0.67189   0.7449  0.31661     C
Mn     0.67979  0.08383  0.43719    Mn
Mn     0.67979  0.91617  0.93719    Mn
O      0.69571  0.18026  0.60498     O
O      0.69571  0.81974  0.10498     O
H       0.7064   0.4155   0.0629     H
H       0.7064   0.5845   0.5629     H
C      0.70844  0.38927  0.98884     C
C      0.70844  0.61073  0.48884     C
C      0.71248  0.31383  0.77041     C
C      0.71248  0.68617  0.27041     C
C      0.71758  0.27965  0.64971     C
C      0.71758  0.72035  0.14971     C
H       0.7234   0.0537   0.1931     H
H       0.7234   0.9463   0.6931     H
O      0.74219  0.35502  0.60231     O
O      0.74219  0.64498  0.10231     O
N      0.74905  0.44427  0.94659     N
N      0.74905  0.55573  0.44659     N
C      0.74975  0.40739  0.83856     C
C      0.74975  0.59261  0.33856     C
C      0.75025  0.09261  0.16144     C
C      0.75025  0.90739  0.66144     C
N      0.75095  0.05573  0.05341     N
N      0.75095  0.94427  0.55341     N
O      0.75781  0.14498  0.39769     O
O      0.75781  0.85502  0.89769     O
H       0.7766   0.4463   0.8069     H
H       0.7766   0.5537   0.3069     H
C      0.78242  0.22035  0.35029     C
C      0.78242  0.77965  0.85029     C
C      0.78752  0.18617  0.22959     C
C      0.78752  0.81383  0.72959     C
C      0.79156  0.11073  0.01116     C
C      0.79156  0.88927  0.51116     C
H       0.7936   0.0845   0.9371     H
H       0.7936   0.9155   0.4371     H
O      0.80429  0.31974  0.39502     O
O      0.80429  0.68026  0.89502     O
Mn     0.82021  0.41617  0.56281    Mn
Mn     0.82021  0.58383  0.06281    Mn
C      0.82811   0.2449  0.18339     C
C      0.82811   0.7551  0.68339     C
C      0.83036  0.20425  0.07242     C
C      0.83036  0.79575  0.57242     C
H       0.8432   0.1391   0.5952     H
H       0.8432   0.8609   0.0952     H
O      0.85048  0.45198  0.20924     O
O      0.85048  0.54802  0.70924     O
H       0.8577   0.2397   0.0398     H
H       0.8577   0.7603   0.5398     H
C      0.86938  0.34989  0.24804     C
C      0.86938  0.65011  0.74804     C
C      0.87255   0.1605    0.672     C
C      0.87255   0.8395    0.172     C
N      0.88056  0.27613   0.6996     N
N      0.88056  0.72387   0.1996     N
H       0.8978   0.0093   0.2235     H
H       0.8978   0.9907   0.7235     H
C      0.90472   0.0702   0.7495     C
C      0.90472   0.9298   0.2495     C
O      0.92066  0.32585  0.33255     O
O      0.92066  0.67415  0.83255     O
C       0.9216   0.3028   0.8114     C
C       0.9216   0.6972   0.3114     C
H       0.9279   0.3832   0.8341     H
H       0.9279   0.6168   0.3341     H
C      0.94677   0.0963   0.8642     C
C      0.94677   0.9037   0.3642     C
C       0.9555    0.217   0.8958     C
C       0.9555    0.783   0.3958     C
H       0.9739    0.092    0.431     H
H       0.9739    0.908    0.931     H
C      0.97875   0.0055   0.4448     C
C      0.97875   0.9945   0.9448     C
H       0.9838   0.2401    0.973     H
H       0.9838   0.7599    0.473     H
