data_I
_chemical_name_common  '/home/zhangsd/repos/MofS-CGCNN/ML/data/TSD/clean_cifs/ISISUZ_clean'
_cell_length_a  8.40700
_cell_length_b 10.28000
_cell_length_c 17.65500
_cell_angle_alpha 90.00000
_cell_angle_beta  102.80000
_cell_angle_gamma 90.00000
_space_group_name_H-M_alt      'P 1'


loop_
_space_group_symop_operation_xyz
  'x, y, z' 

loop_
_atom_site_label
_atom_site_fract_x
_atom_site_fract_y
_atom_site_fract_z
_atom_site_type_symbol
C       0.0152   0.7937    0.984     C
O       0.0302   0.7855  0.05625     O
H       0.0358    0.228   0.1694     H
C       0.0375   0.2687   0.5948     C
C       0.0377   0.2304   0.5196     C
H       0.0642   0.6105   0.3419     H
C       0.0649   0.6346   0.3927     C
C       0.0663   0.7057   0.5406     C
H       0.0694   0.7286   0.5918     H
C       0.0767   0.3047   0.0697     C
O       0.0799   0.8915  0.95817     O
C       0.0876   0.2953   0.1491     C
H        0.107   0.2286   0.6366     H
O       0.1199   0.2968  0.31307     O
H         0.14    0.155    0.408     H
C       0.1411   0.1151   0.5091     C
H       0.1429   0.4106   0.9841     H
C       0.1527   0.4049   0.0375     C
C       0.1651   0.6083    0.524     C
N       0.1666   0.5729    0.451     N
Cu     0.17434  0.94282  0.06807    Cu
N       0.1748    0.101   0.4387     N
C       0.1769   0.3877   0.1976     C
H       0.1867   0.0489   0.3005     H
O       0.1875   0.0408  0.56322     O
C       0.1937   0.3789   0.2839     C
O       0.2094    0.964  0.17664     O
H       0.2335   0.5652   0.5649     H
C       0.2435   0.4962   0.0876     C
C       0.2464   0.9871   0.3335     C
C       0.2536   0.4871   0.1665     C
C       0.2565   0.9962   0.4124     C
H       0.2665   0.0652   0.9351     H
O       0.2906    0.464  0.32336     O
C       0.3063   0.8789   0.2161     C
O       0.3125   0.5408  0.93678     O
H       0.3133   0.5489   0.1995     H
C       0.3231   0.8877   0.3024     C
N       0.3252    0.601   0.0613     N
Cu     0.32566  0.44282  0.43193    Cu
N       0.3334   0.0729    0.049     N
C       0.3349   0.1083    0.976     C
C       0.3473   0.9049   0.4625     C
H       0.3571   0.9106   0.5159     H
C       0.3589   0.6151   0.9909     C
H         0.36    0.655    0.092     H
O       0.3801   0.7968  0.18693     O
H        0.393   0.7286   0.8634     H
C       0.4124   0.7953   0.3509     C
O       0.4201   0.3915  0.54183     O
C       0.4233   0.8047   0.4303     C
H       0.4306   0.2286   0.9082     H
C       0.4337   0.2057   0.9594     C
C       0.4351   0.1346   0.1073     C
H       0.4358   0.1105   0.1581     H
C       0.4623   0.7304   0.9804     C
C       0.4625   0.7687   0.9052     C
H       0.4642    0.728   0.3306     H
O       0.4698   0.2855  0.44375     O
C       0.4848   0.2937    0.516     C
C       0.5152   0.7063    0.484     C
O       0.5302   0.7145  0.55625     O
H       0.5358    0.272   0.6694     H
C       0.5375   0.2313   0.0948     C
C       0.5377   0.2696   0.0196     C
H       0.5642   0.8895   0.8419     H
C       0.5649   0.8654   0.8927     C
C       0.5663   0.7943   0.0406     C
H       0.5694   0.7714   0.0918     H
C       0.5767   0.1953   0.5697     C
O       0.5799   0.6085  0.45817     O
C       0.5876   0.2047   0.6491     C
H        0.607   0.2714   0.1366     H
O       0.6199   0.2032  0.81307     O
H         0.64    0.345    0.908     H
C       0.6411   0.3849   0.0091     C
H       0.6429   0.0894   0.4841     H
C       0.6527   0.0951   0.5375     C
C       0.6651   0.8917    0.024     C
N       0.6666   0.9271    0.951     N
Cu     0.67434  0.55718  0.56807    Cu
N       0.6748    0.399   0.9387     N
C       0.6769   0.1123   0.6976     C
H       0.6867   0.4511   0.8005     H
O       0.6875   0.4592  0.06322     O
C       0.6937   0.1211   0.7839     C
O       0.7094    0.536  0.67664     O
H       0.7335   0.9348   0.0649     H
C       0.7435   0.0038   0.5876     C
C       0.7464   0.5129   0.8335     C
C       0.7536   0.0129   0.6665     C
C       0.7565   0.5038   0.9124     C
H       0.7665   0.4348   0.4351     H
O       0.7906    0.036  0.82336     O
C       0.8063   0.6211   0.7161     C
O       0.8125   0.9592  0.43678     O
H       0.8133   0.9511   0.6995     H
C       0.8231   0.6123   0.8024     C
N       0.8252    0.899   0.5613     N
Cu     0.82566  0.05718  0.93193    Cu
N       0.8334   0.4271    0.549     N
C       0.8349   0.3917    0.476     C
C       0.8473   0.5951   0.9625     C
H       0.8571   0.5894   0.0159     H
C       0.8589   0.8849   0.4909     C
H         0.86    0.845    0.592     H
O       0.8801   0.7032  0.68693     O
H        0.893   0.7714   0.3634     H
C       0.9124   0.7047   0.8509     C
O       0.9201   0.1085  0.04183     O
C       0.9233   0.6953   0.9303     C
H       0.9306   0.2714   0.4082     H
C       0.9337   0.2943   0.4594     C
C       0.9351   0.3654   0.6073     C
H       0.9358   0.3895   0.6581     H
C       0.9623   0.7696   0.4804     C
C       0.9625   0.7313   0.4052     C
H       0.9642    0.772   0.8306     H
O       0.9698   0.2145  0.94375     O
C       0.9848   0.2063    0.016     C
