data_I
_chemical_name_common  '/home/zhangsd/repos/MofS-CGCNN/ML/data/TSD/clean_cifs/ISIYOZ01_clean'
_cell_length_a 18.12660
_cell_length_b 13.36110
_cell_length_c  8.57910
_cell_angle_alpha 90.00000
_cell_angle_beta  90.00000
_cell_angle_gamma 90.00000
_space_group_name_H-M_alt      'P 1'


loop_
_space_group_symop_operation_xyz
  'x, y, z' 

loop_
_atom_site_label
_atom_site_fract_x
_atom_site_fract_y
_atom_site_fract_z
_atom_site_type_symbol
O       0.0029   0.5375   0.3435     O
O        0.003   0.0299   0.3304     O
O       0.0045   0.2195    0.144     O
O       0.0053   0.7101   0.1442     O
C       0.0086   0.2516   0.5228     C
C       0.0097   0.0081   0.9692     C
C       0.0106   0.7463   0.5213     C
C       0.0127   0.5001   0.9776     C
H        0.025   0.4988    0.551     H
H       0.0272   0.7391   0.9465     H
H       0.0274   0.9978   0.5434     H
H       0.0275   0.2545   0.9486     H
O       0.0631   0.2008   0.4794     O
O       0.0643   0.0491   0.0072     O
H        0.066   0.3686   0.2583     H
H        0.067   0.8694   0.1892     H
O       0.0706   0.5334    0.017     O
O        0.073   0.7098    0.474     O
Er     0.10093  0.12532    0.253    Er
Er     0.10632  0.62462  0.25275    Er
C       0.1171     0.87   0.2127     C
C       0.1172   0.3706    0.265     C
O       0.1478   0.9595   0.2484     O
O        0.148   0.7942    0.209     O
O       0.1481   0.4595   0.2919     O
O       0.1484   0.2955   0.2479     O
O       0.2001   0.1142   0.4208     O
O       0.2037   0.1348   0.0859     O
O       0.2059   0.6305   0.4221     O
H        0.206   0.0606   0.9054     H
O       0.2079   0.6174   0.0697     O
H       0.2147   0.1962   0.5829     H
C       0.2324   0.1053    0.967     C
C       0.2356   0.1439   0.5266     C
C       0.2644   0.6439   0.0266     C
C       0.2676   0.6053    0.467     C
H       0.2853   0.6962   0.0829     H
O       0.2921   0.1174   0.5697     O
H        0.294   0.5606   0.4054     H
O       0.2941   0.1305   0.9221     O
O       0.2963   0.6348   0.5859     O
O       0.2999   0.6142   0.9208     O
O       0.3516   0.7955   0.7479     O
O       0.3519   0.9595   0.7919     O
O        0.352   0.2942    0.709     O
O       0.3522   0.4595   0.7484     O
C       0.3828   0.8706    0.765     C
C       0.3829     0.37   0.7127     C
Er     0.39368  0.12462  0.75275    Er
Er     0.39907  0.62532    0.753    Er
O        0.427   0.2098    0.974     O
O       0.4294   0.0334    0.517     O
H        0.433   0.3694   0.6892     H
H        0.434   0.8686   0.7583     H
O       0.4357   0.5491   0.5072     O
O       0.4369   0.7008   0.9794     O
H       0.4725   0.7545   0.4486     H
H       0.4726   0.4978   0.0434     H
H       0.4728   0.2391   0.4465     H
H        0.475   0.9988    0.051     H
C       0.4873   0.0001   0.4776     C
C       0.4894   0.2463   0.0213     C
C       0.4903   0.5081   0.4692     C
C       0.4914   0.7516   0.0228     C
O       0.4947   0.2101   0.6442     O
O       0.4955   0.7195    0.644     O
O        0.497   0.5299   0.8304     O
O       0.4971   0.0375   0.8435     O
O       0.5029   0.9625   0.3435     O
O        0.503   0.4701   0.3304     O
O       0.5045   0.2805    0.144     O
O       0.5053   0.7899   0.1442     O
C       0.5086   0.2484   0.5228     C
C       0.5097   0.4919   0.9692     C
C       0.5106   0.7537   0.5213     C
C       0.5127   0.9999   0.9776     C
H        0.525   0.0012    0.551     H
H       0.5272   0.7609   0.9465     H
H       0.5274   0.5022   0.5434     H
H       0.5275   0.2455   0.9486     H
O       0.5631   0.2992   0.4794     O
O       0.5643   0.4509   0.0072     O
H        0.566   0.1314   0.2583     H
H        0.567   0.6306   0.1892     H
O       0.5706   0.9666    0.017     O
O        0.573   0.7902    0.474     O
Er     0.60093  0.37468    0.253    Er
Er     0.60632  0.87538  0.25275    Er
C       0.6171     0.63   0.2127     C
C       0.6172   0.1294    0.265     C
O       0.6478   0.5405   0.2484     O
O        0.648   0.7058    0.209     O
O       0.6481   0.0405   0.2919     O
O       0.6484   0.2045   0.2479     O
O       0.7001   0.3858   0.4208     O
O       0.7037   0.3652   0.0859     O
O       0.7059   0.8695   0.4221     O
H        0.706   0.4394   0.9054     H
O       0.7079   0.8826   0.0697     O
H       0.7147   0.3038   0.5829     H
C       0.7324   0.3947    0.967     C
C       0.7356   0.3561   0.5266     C
C       0.7644   0.8561   0.0266     C
C       0.7676   0.8947    0.467     C
H       0.7853   0.8038   0.0829     H
O       0.7921   0.3826   0.5697     O
H        0.794   0.9394   0.4054     H
O       0.7941   0.3695   0.9221     O
O       0.7963   0.8652   0.5859     O
O       0.7999   0.8858   0.9208     O
O       0.8516   0.7045   0.7479     O
O       0.8519   0.5405   0.7919     O
O        0.852   0.2058    0.709     O
O       0.8522   0.0405   0.7484     O
C       0.8828   0.6294    0.765     C
C       0.8829     0.13   0.7127     C
Er     0.89368  0.37538  0.75275    Er
Er     0.89907  0.87468    0.753    Er
O        0.927   0.2902    0.974     O
O       0.9294   0.4666    0.517     O
H        0.933   0.1306   0.6892     H
H        0.934   0.6314   0.7583     H
O       0.9357   0.9509   0.5072     O
O       0.9369   0.7992   0.9794     O
H       0.9725   0.7455   0.4486     H
H       0.9726   0.0022   0.0434     H
H       0.9728   0.2609   0.4465     H
H        0.975   0.5012    0.051     H
C       0.9873   0.4999   0.4776     C
C       0.9894   0.2537   0.0213     C
C       0.9903   0.9919   0.4692     C
C       0.9914   0.7484   0.0228     C
O       0.9947   0.2899   0.6442     O
O       0.9955   0.7805    0.644     O
O        0.997   0.9701   0.8304     O
O       0.9971   0.4625   0.8435     O
