data_I
_chemical_name_common  '/home/zhangsd/repos/MofS-CGCNN/ML/data/TSD/clean_cifs/ITIPOS_clean'
_cell_length_a 17.69430
_cell_length_b 17.69430
_cell_length_c 13.29210
_cell_angle_alpha 90.00000
_cell_angle_beta  90.00000
_cell_angle_gamma 120.00000
_space_group_name_H-M_alt      'P 1'


loop_
_space_group_symop_operation_xyz
  'x, y, z' 

loop_
_atom_site_label
_atom_site_fract_x
_atom_site_fract_y
_atom_site_fract_z
_atom_site_type_symbol
O       0.0146   0.5706   0.4117     O
O       0.0151   0.5664   0.7005     O
C       0.0226   0.4824   0.2782     C
C       0.0238   0.4775   0.8352     C
H       0.0613   0.3336   0.8518     H
H       0.0958   0.3496   0.7382     H
N       0.0971   0.4963   0.7932     N
N       0.0993   0.5059    0.315     N
C        0.113   0.3641   0.8088     C
Cu     0.13309  0.57526  0.68047    Cu
Cu     0.13363  0.58025  0.43051    Cu
H       0.1344   0.4203   0.2636     H
H       0.1507   0.5159   0.1242     H
H       0.1553    0.346   0.8267     H
C       0.1553    0.465   0.8243     C
C       0.1624   0.4848   0.2729     C
H       0.1712   0.4798   0.8967     H
O      0.17244  0.63846   0.5575     O
H        0.178    0.685    0.559     H
H       0.1907   0.8447   0.8267     H
O       0.1985   0.6995   0.7774     O
C        0.199   0.5313   0.1711     C
O       0.2026   0.7038   0.3336     O
H        0.231   0.5946   0.1816     H
O       0.2367   0.5611   0.4255     O
O       0.2375    0.559   0.6855     O
C       0.2376   0.5116   0.7591     C
C       0.2377   0.5159   0.3506     C
H       0.2385   0.5129   0.1431     H
C       0.2511    0.887   0.8088     C
H       0.2538   0.9042   0.7382     H
H       0.2723   0.9387   0.8518     H
C        0.274   0.7624   0.7591     C
H       0.2744   0.7615   0.1431     H
C       0.2782   0.7623   0.3506     C
H       0.2859   0.8656   0.2636     H
O       0.2962   0.4988   0.3336     O
O       0.3005    0.499   0.7774     O
H       0.3086   0.8288   0.8967     H
C       0.3097   0.8447   0.8243     C
H        0.315    0.493    0.559     H
O       0.3215   0.7625   0.6855     O
C       0.3224   0.8376   0.2729     C
O       0.3244   0.7633   0.4255     O
C       0.3323    0.801   0.1711     C
Ca     0.33333  0.66667   0.5563    Ca
H       0.3336   0.2723   0.3518     H
H        0.346   0.1907   0.3267     H
H       0.3496   0.2538   0.2382     H
O      0.36154  0.53398   0.5575     O
H       0.3636    0.769   0.1816     H
C       0.3641   0.2511   0.3088     C
H       0.3652   0.8493   0.1242     H
N       0.3992   0.9029   0.7932     N
H       0.4054   0.6364   0.1816     H
N       0.4066   0.9007    0.315     N
Cu     0.41975  0.55338  0.43051    Cu
H       0.4203   0.2859   0.7636     H
Cu     0.42474  0.55783  0.68047    Cu
O       0.4294    0.444   0.4117     O
O       0.4336   0.4487   0.7005     O
O       0.4389   0.6756   0.4255     O
O        0.441   0.6785   0.6855     O
Cu     0.44217  0.86691  0.68047    Cu
O        0.444   0.0146   0.9117     O
Cu     0.44662  0.86637  0.43051    Cu
O       0.4487   0.0151   0.2005     O
C       0.4537   0.9762   0.8352     C
C       0.4598   0.9774   0.2782     C
C        0.465   0.3097   0.3243     C
O      0.46602  0.82756   0.5575     O
C       0.4687   0.6677   0.1711     C
C       0.4775   0.4537   0.3352     C
H       0.4798   0.3086   0.3967     H
C       0.4824   0.4598   0.7782     C
H       0.4841   0.6348   0.1242     H
C       0.4841   0.7218   0.3506     C
C       0.4848   0.3224   0.7729     C
H       0.4871   0.7256   0.1431     H
C       0.4884    0.726   0.7591     C
H        0.493    0.178    0.059     H
N       0.4941   0.5934    0.315     N
N       0.4963   0.3992   0.2932     N
O       0.4988   0.2026   0.8336     O
O        0.499   0.1985   0.2774     O
O        0.501   0.8015   0.7774     O
O       0.5012   0.7974   0.3336     O
N       0.5037   0.6008   0.7932     N
N       0.5059   0.4066    0.815     N
H        0.507    0.822    0.559     H
C       0.5116    0.274   0.2591     C
H       0.5129   0.2744   0.6431     H
C       0.5152   0.6776   0.2729     C
C       0.5159   0.2782   0.8506     C
H       0.5159   0.3652   0.6242     H
C       0.5176   0.5402   0.2782     C
H       0.5202   0.6914   0.8967     H
C       0.5225   0.5463   0.8352     C
C       0.5313   0.3323   0.6711     C
O      0.53398  0.17244   0.0575     O
C        0.535   0.6903   0.8243     C
C       0.5402   0.0226   0.7782     C
C       0.5463   0.0238   0.3352     C
O       0.5513   0.9849   0.7005     O
Cu     0.55338  0.13363  0.93051    Cu
O        0.556   0.9854   0.4117     O
Cu     0.55783  0.13309  0.18047    Cu
O        0.559   0.3215   0.1855     O
O       0.5611   0.3244   0.9255     O
O       0.5664   0.5513   0.2005     O
O       0.5706    0.556   0.9117     O
Cu     0.57526  0.44217  0.18047    Cu
H       0.5797   0.7141   0.2636     H
Cu     0.58025  0.44662  0.93051    Cu
N       0.5934   0.0993    0.815     N
H       0.5946   0.3636   0.6816     H
N       0.6008   0.0971   0.2932     N
H       0.6348   0.1507   0.6242     H
C       0.6359   0.7489   0.8088     C
H       0.6364    0.231   0.6816     H
O      0.63846  0.46602   0.0575     O
H       0.6504   0.7462   0.7382     H
H        0.654   0.8093   0.8267     H
H       0.6664   0.7277   0.8518     H
Ca     0.66667  0.33333   0.0563    Ca
C       0.6677    0.199   0.6711     C
O       0.6756   0.2367   0.9255     O
C       0.6776   0.1624   0.7729     C
O       0.6785   0.2375   0.1855     O
H        0.685    0.507    0.059     H
C       0.6903   0.1553   0.3243     C
H       0.6914   0.1712   0.3967     H
O       0.6995    0.501   0.2774     O
O       0.7038   0.5012   0.8336     O
H       0.7141   0.1344   0.7636     H
C       0.7218   0.2377   0.8506     C
H       0.7256   0.2385   0.6431     H
C        0.726   0.2376   0.2591     C
H       0.7277   0.0613   0.3518     H
H       0.7462   0.0958   0.2382     H
C       0.7489    0.113   0.3088     C
H       0.7615   0.4871   0.6431     H
C       0.7623   0.4841   0.8506     C
C       0.7624   0.4884   0.2591     C
O       0.7625    0.441   0.1855     O
O       0.7633   0.4389   0.9255     O
H        0.769   0.4054   0.6816     H
O       0.7974   0.2962   0.8336     O
C        0.801   0.4687   0.6711     C
O       0.8015   0.3005   0.2774     O
H       0.8093   0.1553   0.3267     H
H        0.822    0.315    0.059     H
O      0.82756  0.36154   0.0575     O
H       0.8288   0.5202   0.3967     H
C       0.8376   0.5152   0.7729     C
C       0.8447    0.535   0.3243     C
H       0.8447    0.654   0.3267     H
H       0.8493   0.4841   0.6242     H
H       0.8656   0.5797   0.7636     H
Cu     0.86637  0.41975  0.93051    Cu
Cu     0.86691  0.42474  0.18047    Cu
C        0.887   0.6359   0.3088     C
N       0.9007   0.4941    0.815     N
N       0.9029   0.5037   0.2932     N
H       0.9042   0.6504   0.2382     H
H       0.9387   0.6664   0.3518     H
C       0.9762   0.5225   0.3352     C
C       0.9774   0.5176   0.7782     C
O       0.9849   0.4336   0.2005     O
O       0.9854   0.4294   0.9117     O
