data_I
_chemical_name_common  '/home/zhangsd/repos/MofS-CGCNN/ML/data/TSD/clean_cifs/IVEQEG_clean'
_cell_length_a 18.94700
_cell_length_b  6.91500
_cell_length_c 11.29500
_cell_angle_alpha 90.00000
_cell_angle_beta  90.45000
_cell_angle_gamma 90.00000
_space_group_name_H-M_alt      'P 1'


loop_
_space_group_symop_operation_xyz
  'x, y, z' 

loop_
_atom_site_label
_atom_site_fract_x
_atom_site_fract_y
_atom_site_fract_z
_atom_site_type_symbol
N        0.026      0.5    0.622     N
C        0.031    0.324    0.545     C
C        0.031    0.676    0.545     C
C        0.069      0.5    0.738     C
O        0.089      0.5     0.27     O
P         0.16      0.5    0.695     P
P        0.168      0.5    0.295     P
O        0.178    0.325     0.38     O
O        0.178    0.675     0.38     O
C        0.183    0.299    0.054     C
C        0.183    0.701    0.054     C
C        0.186    0.142    0.966     C
O        0.186    0.338    0.635     O
O        0.186    0.662    0.635     O
C        0.186    0.858    0.966     C
O          0.2      0.5    0.807     O
O        0.215      0.0    0.541     O
N        0.248    0.154    0.885     N
N        0.248    0.846    0.885     N
C        0.249      0.5    0.206     C
Al        0.25     0.25      0.5    Al
Al        0.25     0.75      0.5    Al
C        0.251      0.0    0.794     C
N        0.252    0.346    0.115     N
N        0.252    0.654    0.115     N
O        0.285      0.5    0.459     O
O          0.3      0.0    0.193     O
O        0.314    0.162    0.365     O
C        0.314    0.358    0.034     C
C        0.314    0.642    0.034     C
O        0.314    0.838    0.365     O
C        0.317    0.201    0.946     C
C        0.317    0.799    0.946     C
O        0.322    0.175     0.62     O
O        0.322    0.825     0.62     O
P        0.332      0.0    0.705     P
P         0.34      0.0    0.305     P
O        0.411      0.0     0.73     O
C        0.431      0.0    0.262     C
C        0.469    0.176    0.455     C
C        0.469    0.824    0.455     C
N        0.474      0.0    0.378     N
N        0.526      0.0    0.622     N
C        0.531    0.176    0.545     C
C        0.531    0.824    0.545     C
C        0.569      0.0    0.738     C
O        0.589      0.0     0.27     O
P         0.66      0.0    0.695     P
P        0.668      0.0    0.295     P
O        0.678    0.175     0.38     O
O        0.678    0.825     0.38     O
C        0.683    0.201    0.054     C
C        0.683    0.799    0.054     C
O        0.686    0.162    0.635     O
C        0.686    0.358    0.966     C
C        0.686    0.642    0.966     C
O        0.686    0.838    0.635     O
O          0.7      0.0    0.807     O
O        0.715      0.5    0.541     O
N        0.748    0.346    0.885     N
N        0.748    0.654    0.885     N
C        0.749      0.0    0.206     C
Al        0.75     0.25      0.5    Al
Al        0.75     0.75      0.5    Al
C        0.751      0.5    0.794     C
N        0.752    0.154    0.115     N
N        0.752    0.846    0.115     N
O        0.785      0.0    0.459     O
O          0.8      0.5    0.193     O
C        0.814    0.142    0.034     C
O        0.814    0.338    0.365     O
O        0.814    0.662    0.365     O
C        0.814    0.858    0.034     C
C        0.817    0.299    0.946     C
C        0.817    0.701    0.946     C
O        0.822    0.325     0.62     O
O        0.822    0.675     0.62     O
P        0.832      0.5    0.705     P
P         0.84      0.5    0.305     P
O        0.911      0.5     0.73     O
C        0.931      0.5    0.262     C
C        0.969    0.324    0.455     C
C        0.969    0.676    0.455     C
N        0.974      0.5    0.378     N
