data_I
_chemical_name_common  '/home/zhangsd/repos/MofS-CGCNN/ML/data/TSD/clean_cifs/IWIPIO_clean'
_cell_length_a 14.44400
_cell_length_b 12.52540
_cell_length_c 13.30740
_cell_angle_alpha 90.00000
_cell_angle_beta  90.00000
_cell_angle_gamma 90.00000
_space_group_name_H-M_alt      'P 1'


loop_
_space_group_symop_operation_xyz
  'x, y, z' 

loop_
_atom_site_label
_atom_site_fract_x
_atom_site_fract_y
_atom_site_fract_z
_atom_site_type_symbol
C       0.0119   0.0349   0.2097     C
C       0.0119   0.9651   0.7097     C
C       0.0266   0.4656    0.503     C
N       0.0266   0.5344    0.003     N
C       0.0426   0.1265   0.5135     C
C       0.0426   0.8735   0.0135     C
Cu     0.05157  0.03144  0.06814    Cu
Cu     0.05157  0.96856  0.56814    Cu
N       0.0707   0.2119   0.5194     N
N       0.0707   0.7881   0.0194     N
Cu     0.11798  0.35596  0.52119    Cu
Cu     0.11798  0.64404  0.02119    Cu
N       0.1777   0.0874     0.05     N
N       0.1777   0.9126     0.55     N
C        0.246   0.3879   0.5404     C
C        0.246   0.6121   0.0404     C
C        0.254   0.1121   0.0404     C
C        0.254   0.8879   0.5404     C
N       0.3223   0.4126     0.55     N
N       0.3223   0.5874     0.05     N
Cu     0.38202  0.14404  0.02119    Cu
Cu     0.38202  0.85596  0.52119    Cu
N       0.4293   0.2881   0.0194     N
N       0.4293   0.7119   0.5194     N
Cu     0.44843  0.46856  0.56814    Cu
Cu     0.44843  0.53144  0.06814    Cu
C       0.4574   0.3735   0.0135     C
C       0.4574   0.6265   0.5135     C
C       0.4734   0.0344    0.003     C
N       0.4734   0.9656    0.503     N
C       0.4881   0.4651   0.7097     C
C       0.4881   0.5349   0.2097     C
C       0.5119   0.4651   0.7903     C
C       0.5119   0.5349   0.2903     C
C       0.5266   0.0344    0.497     C
N       0.5266   0.9656    0.997     N
C       0.5426   0.3735   0.4865     C
C       0.5426   0.6265   0.9865     C
Cu     0.55157  0.46856  0.93186    Cu
Cu     0.55157  0.53144  0.43186    Cu
N       0.5707   0.2881   0.4806     N
N       0.5707   0.7119   0.9806     N
Cu     0.61798  0.14404  0.47881    Cu
Cu     0.61798  0.85596  0.97881    Cu
N       0.6777   0.4126     0.95     N
N       0.6777   0.5874     0.45     N
C        0.746   0.1121   0.4596     C
C        0.746   0.8879   0.9596     C
C        0.754   0.3879   0.9596     C
C        0.754   0.6121   0.4596     C
N       0.8223   0.0874     0.45     N
N       0.8223   0.9126     0.95     N
Cu     0.88202  0.35596  0.97881    Cu
Cu     0.88202  0.64404  0.47881    Cu
N       0.9293   0.2119   0.9806     N
N       0.9293   0.7881   0.4806     N
Cu     0.94843  0.03144  0.43186    Cu
Cu     0.94843  0.96856  0.93186    Cu
C       0.9574   0.1265   0.9865     C
C       0.9574   0.8735   0.4865     C
C       0.9734   0.4656    0.997     C
N       0.9734   0.5344    0.497     N
C       0.9881   0.0349   0.2903     C
C       0.9881   0.9651   0.7903     C
