data_I
_chemical_name_common  '/home/zhangsd/repos/MofS-CGCNN/ML/data/TSD/clean_cifs/IWOSAP_clean'
_cell_length_a  7.61120
_cell_length_b 11.92700
_cell_length_c 12.13000
_cell_angle_alpha 67.60200
_cell_angle_beta  89.92000
_cell_angle_gamma 80.49800
_space_group_name_H-M_alt      'P 1'


loop_
_space_group_symop_operation_xyz
  'x, y, z' 

loop_
_atom_site_label
_atom_site_fract_x
_atom_site_fract_y
_atom_site_fract_z
_atom_site_type_symbol
Ho     0.00753  0.14517  0.64519    Ho
O       0.0108   0.9341   0.6712     O
H       0.0189   0.8935   0.9233     H
O         0.02   0.8452   0.1608     O
O       0.0375   0.3497   0.4945     O
H       0.0574   0.7524   0.0031     H
H       0.1064    0.561   0.3493     H
C        0.107    0.828   0.9786     C
H       0.1345   0.2529   0.2807     H
C        0.137   0.8572   0.0905     C
C        0.148    0.074   0.2994     C
C        0.178   0.3562   0.5488     C
O       0.2188   0.1065    0.516     O
C        0.224   0.1904   0.2707     C
O       0.2311    0.273   0.6509     O
C        0.234   0.5319   0.3591     C
O       0.2364   0.9769    0.288     O
H       0.2445    0.783   0.8519     H
H       0.2534   0.2204   0.1877     H
O       0.2602   0.0235   0.7732     O
H       0.2648   0.4831   0.3113     H
O       0.2735    0.725   0.3591     O
C        0.274   0.8118   0.9131     C
O       0.2827   0.8886   0.1001     O
H       0.2863   0.5092   0.5349     H
C        0.294    0.455   0.4917     C
C        0.331    0.636   0.3231     C
C         0.36   0.9273   0.8536     C
H       0.3626   0.7476   0.9695     H
C        0.365   0.1393   0.4796     C
C        0.395     0.17   0.3516     C
H       0.4179   0.4155   0.4981     H
H       0.4466   0.2447   0.3219     H
O        0.461   0.6453   0.2621     O
H        0.482   0.1044   0.3444     H
O       0.4847   0.0702    0.116     O
O       0.4856   0.1483   0.5398     O
Ho     0.49254  0.85507   0.2538    Ho
Ho     0.50746  0.14493   0.7462    Ho
O       0.5144   0.8517   0.4602     O
O       0.5153   0.9298    0.884     O
H        0.518   0.8956   0.6556     H
O        0.539   0.3547   0.7379     O
H       0.5534   0.7553   0.6781     H
H       0.5821   0.5845   0.5019     H
C        0.605     0.83   0.6484     C
C        0.635   0.8607   0.5204     C
H       0.6374   0.2524   0.0305     H
C         0.64   0.0727   0.1464     C
C        0.669    0.364   0.6769     C
C        0.706    0.545   0.5083     C
H       0.7137   0.4908   0.4651     H
O       0.7173   0.1114   0.8999     O
C        0.726   0.1882   0.0869     C
O       0.7265    0.275   0.6409     O
H       0.7352   0.5169   0.6887     H
O       0.7398   0.9765   0.2268     O
H       0.7466   0.7796   0.8123     H
H       0.7555    0.217   0.1481     H
O       0.7636   0.0231    0.712     O
C        0.766   0.4681   0.6409     C
O       0.7689    0.727   0.3491     O
C        0.776   0.8096   0.7293     C
O       0.7812   0.8935    0.484     O
C        0.822   0.6438   0.4512     C
C        0.852    0.926   0.7006     C
C        0.863   0.1428   0.9095     C
H       0.8655   0.7471   0.7193     H
C        0.893    0.172   0.0214     C
H       0.8936    0.439   0.6507     H
H       0.9426   0.2476   0.9969     H
O       0.9625   0.6503   0.5055     O
O         0.98   0.1548   0.8392     O
H       0.9811   0.1065   0.0767     H
O       0.9892   0.0659   0.3288     O
Ho     0.99247  0.85483  0.35481    Ho
