data_I
_chemical_name_common  '/home/zhangsd/repos/MofS-CGCNN/ML/data/TSD/clean_cifs/IXURID_clean'
_cell_length_a 10.90280
_cell_length_b 10.94530
_cell_length_c 15.85330
_cell_angle_alpha 88.15900
_cell_angle_beta  80.54200
_cell_angle_gamma 85.31400
_space_group_name_H-M_alt      'P 1'


loop_
_space_group_symop_operation_xyz
  'x, y, z' 

loop_
_atom_site_label
_atom_site_fract_x
_atom_site_fract_y
_atom_site_fract_z
_atom_site_type_symbol
H       0.0484   0.1693   0.7031     H
H       0.0578   0.8104   0.8113     H
C       0.0671   0.8368   0.6839     C
C       0.0692   0.1661   0.3175     C
H       0.0782    0.161   0.5565     H
O       0.1026   0.1605  0.38969     O
C       0.1126   0.8228   0.7609     C
H       0.1229   0.8593   0.5567     H
C       0.1283   0.1667   0.6714     C
H       0.1331   0.1946   0.8314     H
O       0.1402    0.174  0.24778     O
C       0.1474   0.1631   0.5835     C
C       0.1514   0.8521   0.6089     C
H       0.1796   0.2436   0.9387     H
H       0.1945   0.2689   0.0806     H
N       0.2234   0.1319   0.8001     N
C        0.233   0.1664   0.7112     C
C       0.2382   0.8271   0.7634     C
C       0.2441    0.202   0.9625     C
C       0.2556   0.2174   0.0486     C
N       0.2595   0.1624  0.53515     N
H       0.2673   0.8189   0.8154     H
H         0.27   0.5518   0.4321     H
H       0.2739   0.7612    0.433     H
C       0.2753   0.8565   0.6112     C
O       0.2781    0.342  0.37625     O
Zn     0.28242  0.15772   0.4063    Zn
C       0.2854   0.5952   0.3806     C
C       0.2877   0.7211    0.381     C
O       0.2995   0.9738  0.37872     O
C       0.3031   0.3954   0.3064     C
C       0.3053   0.5333   0.3055     C
C       0.3098   0.7875   0.3071     C
C        0.312   0.9246   0.3079     C
C       0.3207   0.8436   0.6884     C
O       0.3259   0.9793  0.23655     O
O        0.327   0.3449  0.23506     O
C        0.327   0.6007   0.2312     C
N       0.3275   0.0931   0.8338     N
Zn      0.3297  0.16287  0.21524    Zn
H       0.3302   0.8683   0.5607     H
C       0.3307   0.7256   0.2314     C
C       0.3325   0.1238   0.9147     C
H       0.3396   0.5608   0.1792     H
N       0.3407   0.1681  0.08718     N
H       0.3474   0.7689   0.1799     H
C        0.349   0.1668   0.6636     C
C       0.3568   0.1625    0.577     C
H       0.3882   0.0503   0.8043     H
C       0.4135   0.0585   0.9577     C
H       0.4197   0.1697    0.689     H
C       0.4218   0.0822   0.0397     C
H        0.436   0.1595   0.5443     H
C       0.4581   0.8471   0.6906     C
O       0.4696   0.1554  0.37947     O
H       0.4838   0.0394   0.0651     H
O       0.4912   0.8518  0.76264     O
O       0.5088   0.1482  0.23736     O
H       0.5162   0.9606   0.9349     H
O       0.5304   0.8446  0.62053     O
C       0.5419   0.1529   0.3094     C
H        0.564   0.8405   0.4557     H
C       0.5782   0.9178   0.9603     C
H       0.5803   0.8303    0.311     H
C       0.5865   0.9415   0.0423     C
H       0.6118   0.9497   0.1957     H
C       0.6432   0.8375    0.423     C
C        0.651   0.8332   0.3364     C
H       0.6526   0.2311   0.8201     H
N       0.6593   0.8319  0.91282     N
H       0.6604   0.4392   0.8208     H
C       0.6675   0.8762   0.0853     C
C       0.6693   0.2744   0.7686     C
H       0.6698   0.1317   0.4393     H
Zn      0.6703  0.83713  0.78476    Zn
N       0.6725   0.9069   0.1662     N
C        0.673   0.3993   0.7688     C
O        0.673   0.6551  0.76494     O
O       0.6741   0.0207  0.76345     O
C       0.6793   0.1564   0.3116     C
C        0.688   0.0754   0.6921     C
C       0.6902   0.2125   0.6929     C
C       0.6947   0.4667   0.6945     C
C       0.6969   0.6046   0.6936     C
O       0.7005   0.0262  0.62128     O
C       0.7123   0.2789    0.619     C
C       0.7146   0.4048   0.6194     C
Zn     0.71758  0.84228   0.5937    Zn
O       0.7219    0.658  0.62375     O
C       0.7247   0.1435   0.3888     C
H       0.7261   0.2388    0.567     H
H         0.73   0.4482   0.5679     H
H       0.7327   0.1811   0.1846     H
N       0.7405   0.8376  0.46485     N
C       0.7444   0.7826   0.9514     C
C       0.7559    0.798   0.0375     C
C       0.7618   0.1729   0.2366     C
C        0.767   0.8336   0.2888     C
N       0.7766   0.8681   0.1999     N
H       0.8055   0.7311   0.9194     H
H       0.8204   0.7564   0.0613     H
C       0.8486   0.1479   0.3911     C
C       0.8526   0.8369   0.4165     C
O       0.8598    0.826  0.75222     O
H       0.8669   0.8054   0.1686     H
C       0.8717   0.8333   0.3286     C
H       0.8771   0.1407   0.4433     H
C       0.8874   0.1772   0.2391     C
O       0.8974   0.8395  0.61031     O
H       0.9218    0.839   0.4435     H
C       0.9308   0.8339   0.6825     C
C       0.9329   0.1632   0.3161     C
H       0.9422   0.1896   0.1887     H
H       0.9516   0.8307   0.2969     H
