data_I
_chemical_name_common  '/home/zhangsd/repos/MofS-CGCNN/ML/data/TSD/clean_cifs/IYAJID_clean'
_cell_length_a 18.41480
_cell_length_b 29.55740
_cell_length_c 16.31550
_cell_angle_alpha 90.00000
_cell_angle_beta  119.26900
_cell_angle_gamma 90.00000
_space_group_name_H-M_alt      'P 1'


loop_
_space_group_symop_operation_xyz
  'x, y, z' 

loop_
_atom_site_label
_atom_site_fract_x
_atom_site_fract_y
_atom_site_fract_z
_atom_site_type_symbol
Cd         0.0  0.13254     0.25    Cd
Na         0.0  0.34186     0.75    Na
Na         0.0  0.65814     0.25    Na
Cd         0.0  0.86746     0.75    Cd
C       0.0041  0.03374   0.0613     C
C       0.0041  0.96626   0.5613     C
C       0.0078  0.07014   0.1275     C
C       0.0078  0.92986   0.6275     C
O       0.0259  0.31821   0.5095     O
O       0.0259  0.68179   0.0095     O
H       0.0292   0.4994   0.9376     H
H       0.0292   0.5006   0.4376     H
C       0.0367  0.31626   0.9789     C
C       0.0367  0.68374   0.4789     C
H       0.0383   0.4445   0.8437     H
H       0.0383   0.5555   0.3437     H
O      0.04112  0.33803   0.9159     O
O      0.04112  0.66197   0.4159     O
O       0.0481  0.19354   0.3666     O
O       0.0481  0.80646   0.8666     O
H       0.0511   0.2588   0.1094     H
H       0.0511   0.7412   0.6094     H
O       0.0561  0.07734   0.3656     O
O       0.0561  0.92266   0.8656     O
O       0.0609  0.43044   0.5327     O
O       0.0609  0.56956   0.0327     O
C       0.0651   0.0059   0.4827     C
C       0.0651   0.9941   0.9827     C
C       0.0691  0.02751   0.0429     C
C       0.0691  0.97249   0.5429     C
O       0.0728  0.09182   0.1726     O
O       0.0728  0.90818   0.6726     O
C        0.075   0.4988   0.9281     C
C        0.075   0.5012   0.4281     C
C       0.0803  0.46595   0.8715     C
C       0.0803  0.53405   0.3715     C
O      0.09089  0.40361   0.7496     O
O      0.09089  0.59639   0.2496     O
Cd     0.09561  0.36937  0.63057    Cd
Cd     0.09561  0.63063  0.13057    Cd
C       0.1009  0.25914   0.1077     C
C       0.1009  0.74086   0.6077     C
C       0.1083  0.28662   0.0449     C
C       0.1083  0.71338   0.5449     C
H       0.1094   0.0099   0.4712     H
H       0.1094   0.9901   0.9712     H
H       0.1156   0.2614   0.4716     H
H       0.1156   0.7386   0.9716     H
H       0.1157   0.0461   0.0714     H
H       0.1157   0.9539   0.5714     H
C       0.1176  0.19154   0.3713     C
C       0.1176  0.80846   0.8713     C
O       0.1201  0.29523   0.7639     O
O       0.1201  0.70477   0.2639     O
C       0.1281  0.43241   0.5305     C
C       0.1281  0.56759   0.0305     C
O        0.133  0.16394   0.3231     O
O        0.133  0.83606   0.8231     O
C       0.1364  0.46928   0.4708     C
C       0.1364  0.53072   0.9708     C
C       0.1478  0.46458   0.8554     C
C       0.1478  0.53542   0.3554     C
C       0.1524  0.43011   0.7907     C
C       0.1524  0.56989   0.2907     C
H       0.1593   0.2133   0.2107     H
H       0.1593   0.7867   0.7107     H
C       0.1657  0.23189   0.1686     C
C       0.1657  0.76811   0.6686     C
C       0.1697  0.25673   0.4831     C
C       0.1697  0.74327   0.9831     C
C       0.1828  0.28716   0.0437     C
C       0.1828  0.71284   0.5437     C
C        0.186  0.22205   0.4374     C
C        0.186  0.77795   0.9374     C
O       0.1863  0.40501   0.5733     O
O       0.1863  0.59499   0.0733     O
H       0.1889   0.3059   0.0016     H
H       0.1889   0.6941   0.5016     H
C       0.1893  0.29872   0.7681     C
C       0.1893  0.70128   0.2681     C
H       0.2017   0.2392   0.8967     H
H       0.2017   0.7608   0.3967     H
C        0.204  0.47028   0.4566     C
C        0.204  0.52972   0.9566     C
Na     0.20422  0.11398  0.27482    Na
Na     0.20422  0.88602  0.77482    Na
O      0.20589  0.32704   0.7215     O
O      0.20589  0.67296   0.2215     O
C       0.2096   0.4968   0.8989     C
C       0.2096   0.5032   0.3989     C
O       0.2137  0.42987   0.7782     O
O       0.2137  0.57013   0.2782     O
H       0.2208   0.3073   0.5757     H
H       0.2208   0.6927   0.0757     H
C       0.2325  0.28428   0.5451     C
C       0.2325  0.71572   0.0451     C
C       0.2406  0.23207   0.1672     C
C       0.2406  0.76793   0.6672     C
H       0.2445   0.0036   0.1105     H
H       0.2445   0.9964   0.6105     H
H       0.2461   0.4489   0.4856     H
H       0.2461   0.5511   0.9856     H
C       0.2484  0.26006   0.1047     C
C       0.2484  0.73994   0.6047     C
C       0.2516  0.23994   0.8953     C
C       0.2516  0.76006   0.3953     C
H       0.2539   0.0511   0.5144     H
H       0.2539   0.9489   0.0144     H
H       0.2555   0.4964   0.8895     H
H       0.2555   0.5036   0.3895     H
C       0.2594  0.26793   0.8328     C
C       0.2594  0.73207   0.3328     C
C       0.2675  0.21572   0.4549     C
C       0.2675  0.78428   0.9549     C
H       0.2792   0.1927   0.4243     H
H       0.2792   0.8073   0.9243     H
O       0.2863  0.07013   0.2218     O
O       0.2863  0.92987   0.7218     O
C       0.2904   0.0032   0.1011     C
C       0.2904   0.9968   0.6011     C
O      0.29411  0.17296   0.2785     O
O      0.29411  0.82704   0.7785     O
Na     0.29578  0.38602  0.72518    Na
Na     0.29578  0.61398  0.22518    Na
C        0.296  0.02972   0.5434     C
C        0.296  0.97028   0.0434     C
H       0.2983   0.2608   0.1033     H
H       0.2983   0.7392   0.6033     H
C       0.3107  0.20128   0.2319     C
C       0.3107  0.79872   0.7319     C
H       0.3111   0.1941   0.9984     H
H       0.3111   0.8059   0.4984     H
O       0.3137  0.09499   0.4267     O
O       0.3137  0.90501   0.9267     O
C        0.314  0.27795   0.5626     C
C        0.314  0.72205   0.0626     C
C       0.3172  0.21284   0.9563     C
C       0.3172  0.78716   0.4563     C
C       0.3303  0.24327   0.5169     C
C       0.3303  0.75673   0.0169     C
C       0.3343  0.26811   0.8314     C
C       0.3343  0.73189   0.3314     C
H       0.3407   0.2867   0.7893     H
H       0.3407   0.7133   0.2893     H
C       0.3476  0.06989   0.2093     C
C       0.3476  0.93011   0.7093     C
C       0.3522  0.03542   0.1446     C
C       0.3522  0.96458   0.6446     C
C       0.3636  0.03072   0.5292     C
C       0.3636  0.96928   0.0292     C
O        0.367  0.33606   0.6769     O
O        0.367  0.66394   0.1769     O
C       0.3719  0.06759   0.4695     C
C       0.3719  0.93241   0.9695     C
O       0.3799  0.20477   0.2361     O
O       0.3799  0.79523   0.7361     O
C       0.3824  0.30846   0.6287     C
C       0.3824  0.69154   0.1287     C
H       0.3843   0.4539   0.9286     H
H       0.3843   0.5461   0.4286     H
H       0.3844   0.2386   0.5284     H
H       0.3844   0.7614   0.0284     H
H       0.3906   0.4901   0.5288     H
H       0.3906   0.5099   0.0288     H
C       0.3917  0.21338   0.9551     C
C       0.3917  0.78662   0.4551     C
C       0.3991  0.24086   0.8923     C
C       0.3991  0.75914   0.3923     C
Cd     0.40439  0.13063  0.36943    Cd
Cd     0.40439  0.86937  0.86943    Cd
O      0.40911  0.09639   0.2504     O
O      0.40911  0.90361   0.7504     O
C       0.4197  0.03405   0.1285     C
C       0.4197  0.96595   0.6285     C
C        0.425   0.0012   0.0719     C
C        0.425   0.9988   0.5719     C
O       0.4272  0.40818   0.8274     O
O       0.4272  0.59182   0.3274     O
C       0.4309  0.47249   0.9571     C
C       0.4309  0.52751   0.4571     C
C       0.4349   0.4941   0.5173     C
C       0.4349   0.5059   0.0173     C
O       0.4391  0.06956   0.4673     O
O       0.4391  0.93044   0.9673     O
O       0.4439  0.42266   0.6344     O
O       0.4439  0.57734   0.1344     O
H       0.4489   0.2412   0.8906     H
H       0.4489   0.7588   0.3906     H
O       0.4519  0.30646   0.6334     O
O       0.4519  0.69354   0.1334     O
O      0.45888  0.16197   0.0841     O
O      0.45888  0.83803   0.5841     O
H       0.4617   0.0555   0.1563     H
H       0.4617   0.9445   0.6563     H
C       0.4633  0.18374   0.0211     C
C       0.4633  0.81626   0.5211     C
H       0.4708   0.0006   0.0624     H
H       0.4708   0.9994   0.5624     H
O       0.4741  0.18179   0.4905     O
O       0.4741  0.81821   0.9905     O
C       0.4922  0.42986   0.8725     C
C       0.4922  0.57014   0.3725     C
C       0.4959  0.46626   0.9387     C
C       0.4959  0.53374   0.4387     C
Na         0.5  0.15814     0.25    Na
Cd         0.5  0.36746     0.75    Cd
Cd         0.5  0.63254     0.25    Cd
Na         0.5  0.84186     0.75    Na
C       0.5041  0.46626   0.5613     C
C       0.5041  0.53374   0.0613     C
C       0.5078  0.42986   0.6275     C
C       0.5078  0.57014   0.1275     C
O       0.5259  0.18179   0.0095     O
O       0.5259  0.81821   0.5095     O
H       0.5292   0.0006   0.4376     H
H       0.5292   0.9994   0.9376     H
C       0.5367  0.18374   0.4789     C
C       0.5367  0.81626   0.9789     C
H       0.5383   0.0555   0.3437     H
H       0.5383   0.9445   0.8437     H
O      0.54112  0.16197   0.4159     O
O      0.54112  0.83803   0.9159     O
O       0.5481  0.30646   0.8666     O
O       0.5481  0.69354   0.3666     O
H       0.5511   0.2412   0.6094     H
H       0.5511   0.7588   0.1094     H
O       0.5561  0.42266   0.8656     O
O       0.5561  0.57734   0.3656     O
O       0.5609  0.06956   0.0327     O
O       0.5609  0.93044   0.5327     O
C       0.5651   0.4941   0.9827     C
C       0.5651   0.5059   0.4827     C
C       0.5691  0.47249   0.5429     C
C       0.5691  0.52751   0.0429     C
O       0.5728  0.40818   0.6726     O
O       0.5728  0.59182   0.1726     O
C        0.575   0.0012   0.4281     C
C        0.575   0.9988   0.9281     C
C       0.5803  0.03405   0.3715     C
C       0.5803  0.96595   0.8715     C
O      0.59089  0.09639   0.2496     O
O      0.59089  0.90361   0.7496     O
Cd     0.59561  0.13063  0.13057    Cd
Cd     0.59561  0.86937  0.63057    Cd
C       0.6009  0.24086   0.6077     C
C       0.6009  0.75914   0.1077     C
C       0.6083  0.21338   0.5449     C
C       0.6083  0.78662   0.0449     C
H       0.6094   0.4901   0.9712     H
H       0.6094   0.5099   0.4712     H
H       0.6156   0.2386   0.9716     H
H       0.6156   0.7614   0.4716     H
H       0.6157   0.4539   0.5714     H
H       0.6157   0.5461   0.0714     H
C       0.6176  0.30846   0.8713     C
C       0.6176  0.69154   0.3713     C
O       0.6201  0.20477   0.2639     O
O       0.6201  0.79523   0.7639     O
C       0.6281  0.06759   0.0305     C
C       0.6281  0.93241   0.5305     C
O        0.633  0.33606   0.8231     O
O        0.633  0.66394   0.3231     O
C       0.6364  0.03072   0.9708     C
C       0.6364  0.96928   0.4708     C
C       0.6478  0.03542   0.3554     C
C       0.6478  0.96458   0.8554     C
C       0.6524  0.06989   0.2907     C
C       0.6524  0.93011   0.7907     C
H       0.6593   0.2867   0.7107     H
H       0.6593   0.7133   0.2107     H
C       0.6657  0.26811   0.6686     C
C       0.6657  0.73189   0.1686     C
C       0.6697  0.24327   0.9831     C
C       0.6697  0.75673   0.4831     C
C       0.6828  0.21284   0.5437     C
C       0.6828  0.78716   0.0437     C
C        0.686  0.27795   0.9374     C
C        0.686  0.72205   0.4374     C
O       0.6863  0.09499   0.0733     O
O       0.6863  0.90501   0.5733     O
H       0.6889   0.1941   0.5016     H
H       0.6889   0.8059   0.0016     H
C       0.6893  0.20128   0.2681     C
C       0.6893  0.79872   0.7681     C
H       0.7017   0.2608   0.3967     H
H       0.7017   0.7392   0.8967     H
C        0.704  0.02972   0.9566     C
C        0.704  0.97028   0.4566     C
Na     0.70422  0.38602  0.77482    Na
Na     0.70422  0.61398  0.27482    Na
O      0.70589  0.17296   0.2215     O
O      0.70589  0.82704   0.7215     O
C       0.7096   0.0032   0.3989     C
C       0.7096   0.9968   0.8989     C
O       0.7137  0.07013   0.2782     O
O       0.7137  0.92987   0.7782     O
H       0.7208   0.1927   0.0757     H
H       0.7208   0.8073   0.5757     H
C       0.7325  0.21572   0.0451     C
C       0.7325  0.78428   0.5451     C
C       0.7406  0.26793   0.6672     C
C       0.7406  0.73207   0.1672     C
H       0.7445   0.4964   0.6105     H
H       0.7445   0.5036   0.1105     H
H       0.7461   0.0511   0.9856     H
H       0.7461   0.9489   0.4856     H
C       0.7484  0.23994   0.6047     C
C       0.7484  0.76006   0.1047     C
C       0.7516  0.26006   0.3953     C
C       0.7516  0.73994   0.8953     C
H       0.7539   0.4489   0.0144     H
H       0.7539   0.5511   0.5144     H
H       0.7555   0.0036   0.3895     H
H       0.7555   0.9964   0.8895     H
C       0.7594  0.23207   0.3328     C
C       0.7594  0.76793   0.8328     C
C       0.7675  0.28428   0.9549     C
C       0.7675  0.71572   0.4549     C
H       0.7792   0.3073   0.9243     H
H       0.7792   0.6927   0.4243     H
O       0.7863  0.42987   0.7218     O
O       0.7863  0.57013   0.2218     O
C       0.7904   0.4968   0.6011     C
C       0.7904   0.5032   0.1011     C
O      0.79411  0.32704   0.7785     O
O      0.79411  0.67296   0.2785     O
Na     0.79578  0.11398  0.22518    Na
Na     0.79578  0.88602  0.72518    Na
C        0.796  0.47028   0.0434     C
C        0.796  0.52972   0.5434     C
H       0.7983   0.2392   0.6033     H
H       0.7983   0.7608   0.1033     H
C       0.8107  0.29872   0.7319     C
C       0.8107  0.70128   0.2319     C
H       0.8111   0.3059   0.4984     H
H       0.8111   0.6941   0.9984     H
O       0.8137  0.40501   0.9267     O
O       0.8137  0.59499   0.4267     O
C        0.814  0.22205   0.0626     C
C        0.814  0.77795   0.5626     C
C       0.8172  0.28716   0.4563     C
C       0.8172  0.71284   0.9563     C
C       0.8303  0.25673   0.0169     C
C       0.8303  0.74327   0.5169     C
C       0.8343  0.23189   0.3314     C
C       0.8343  0.76811   0.8314     C
H       0.8407   0.2133   0.2893     H
H       0.8407   0.7867   0.7893     H
C       0.8476  0.43011   0.7093     C
C       0.8476  0.56989   0.2093     C
C       0.8522  0.46458   0.6446     C
C       0.8522  0.53542   0.1446     C
C       0.8636  0.46928   0.0292     C
C       0.8636  0.53072   0.5292     C
O        0.867  0.16394   0.1769     O
O        0.867  0.83606   0.6769     O
C       0.8719  0.43241   0.9695     C
C       0.8719  0.56759   0.4695     C
O       0.8799  0.29523   0.7361     O
O       0.8799  0.70477   0.2361     O
C       0.8824  0.19154   0.1287     C
C       0.8824  0.80846   0.6287     C
H       0.8843   0.0461   0.4286     H
H       0.8843   0.9539   0.9286     H
H       0.8844   0.2614   0.0284     H
H       0.8844   0.7386   0.5284     H
H       0.8906   0.0099   0.0288     H
H       0.8906   0.9901   0.5288     H
C       0.8917  0.28662   0.4551     C
C       0.8917  0.71338   0.9551     C
C       0.8991  0.25914   0.3923     C
C       0.8991  0.74086   0.8923     C
Cd     0.90439  0.36937  0.86943    Cd
Cd     0.90439  0.63063  0.36943    Cd
O      0.90911  0.40361   0.7504     O
O      0.90911  0.59639   0.2504     O
C       0.9197  0.46595   0.6285     C
C       0.9197  0.53405   0.1285     C
C        0.925   0.4988   0.5719     C
C        0.925   0.5012   0.0719     C
O       0.9272  0.09182   0.3274     O
O       0.9272  0.90818   0.8274     O
C       0.9309  0.02751   0.4571     C
C       0.9309  0.97249   0.9571     C
C       0.9349   0.0059   0.0173     C
C       0.9349   0.9941   0.5173     C
O       0.9391  0.43044   0.9673     O
O       0.9391  0.56956   0.4673     O
O       0.9439  0.07734   0.1344     O
O       0.9439  0.92266   0.6344     O
H       0.9489   0.2588   0.3906     H
H       0.9489   0.7412   0.8906     H
O       0.9519  0.19354   0.1334     O
O       0.9519  0.80646   0.6334     O
O      0.95888  0.33803   0.5841     O
O      0.95888  0.66197   0.0841     O
H       0.9617   0.4445   0.6563     H
H       0.9617   0.5555   0.1563     H
C       0.9633  0.31626   0.5211     C
C       0.9633  0.68374   0.0211     C
H       0.9708   0.4994   0.5624     H
H       0.9708   0.5006   0.0624     H
O       0.9741  0.31821   0.9905     O
O       0.9741  0.68179   0.4905     O
C       0.9922  0.07014   0.3725     C
C       0.9922  0.92986   0.8725     C
C       0.9959  0.03374   0.4387     C
C       0.9959  0.96626   0.9387     C
