data_I
_chemical_name_common  '/home/zhangsd/repos/MofS-CGCNN/ML/data/TSD/clean_cifs/IYAKIE_clean'
_cell_length_a 19.99900
_cell_length_b 18.62840
_cell_length_c 35.12300
_cell_angle_alpha 90.00000
_cell_angle_beta  90.00000
_cell_angle_gamma 90.00000
_space_group_name_H-M_alt      'P 1'


loop_
_space_group_symop_operation_xyz
  'x, y, z' 

loop_
_atom_site_label
_atom_site_fract_x
_atom_site_fract_y
_atom_site_fract_z
_atom_site_type_symbol
Cd     0.00059   0.2343  0.21908    Cd
O       0.0008   0.8439   0.5086     O
O       0.0116   0.2774   0.2807     O
O        0.014    0.336   0.0302     O
Ca     0.01954  0.77118  0.61684    Ca
H        0.026   0.1641   0.5588     H
O       0.0261   0.3315   0.0919     O
C       0.0265   0.2001   0.5771     C
C       0.0267   0.7315   0.1289     C
C       0.0282   0.7903   0.1011     C
O       0.0291   0.1627   0.0701     O
C       0.0305   0.3125   0.6317     C
C       0.0306   0.1333   0.0388     C
H       0.0319   0.3482   0.6502     H
H       0.0324   0.3128   0.3492     H
C       0.0366   0.3581   0.0617     C
O       0.0509   0.8673   0.6522     O
C       0.0567   0.2347   0.2884     C
H       0.0588    0.053   0.9785     H
Cd     0.06044   0.7453   0.5181    Cd
O       0.0634   0.2283   0.1652     O
O       0.0644   0.8615   0.7154     O
O        0.065    0.672   0.7151     O
H        0.065   0.8206   0.0995     H
C       0.0677   0.0633   0.0349     C
C       0.0677   0.2821   0.3548     C
H       0.0708   0.6664   0.3905     H
O       0.0713   0.6914   0.4585     O
C       0.0722   0.8913    0.683     C
O       0.0738   0.6922   0.1852     O
C       0.0745   0.4305   0.0594     C
H       0.0747   0.4323   0.0019     H
O       0.0761   0.1876   0.2649     O
C       0.0764   0.0315   0.0002     C
H       0.0768   0.3056   0.4119     H
H       0.0823   0.4422   0.1146     H
C       0.0823   0.7269   0.1571     C
C       0.0834   0.3039   0.6079     C
O       0.0837   0.7016   0.6538     O
C       0.0845   0.2467   0.5809     C
H       0.0867   0.0563   0.0894     H
C       0.0874   0.4583   0.0234     C
C       0.0908   0.6596   0.6828     C
C       0.0913   0.0332    0.066     C
C       0.0922   0.4627   0.0911     C
C       0.0936   0.2355   0.3263     C
H       0.0954   0.6688   0.3277     H
C       0.0965    0.281   0.3917     C
H       0.1007   0.9769    0.625     H
C       0.1034   0.6978   0.3816     C
O       0.1116   0.7824   0.5743     O
C       0.1118    0.967    0.997     C
C       0.1121   0.7387   0.4489     C
C       0.1122   0.2707   0.1712     C
C       0.1137    0.959   0.6808     C
O       0.1157   0.3116   0.1992     O
H       0.1164   0.5566    0.733     H
C       0.1173   0.6992   0.3446     C
C       0.1186   0.5233    0.019     C
H       0.1193   0.3356   0.6093     H
C       0.1195   0.9958    0.647     C
H       0.1205   0.9471   0.9733     H
C       0.1242   0.9648   0.0641     C
H       0.1257   0.5426   0.9949     H
C        0.126   0.5279   0.0891     C
C       0.1286   0.5896   0.6787     C
C       0.1335   0.9333     0.03     C
H       0.1346   0.1762   0.1166     H
C       0.1355   0.5446   0.7097     C
O       0.1358   0.7609   0.1501     O
C       0.1359   0.7412   0.4071     C
O        0.137   0.7834   0.4711     O
H        0.139   0.9424   0.0862     H
H       0.1397   0.5507   0.1114     H
C         0.14   0.5606   0.0523     C
O       0.1408   0.1891    0.531     O
H       0.1423   0.9611   0.7371     H
C       0.1431   0.2357   0.5553     C
O       0.1434    0.724   0.2664     O
C       0.1448    0.986   0.7142     C
C        0.146   0.1946   0.3345     C
H       0.1486   0.6008   0.6226     H
C       0.1527   0.0602   0.6456     C
C       0.1537    0.243   0.3966     C
H        0.155   0.0851   0.6227     H
C       0.1553    0.571   0.6435     C
O       0.1597   0.6865   0.5472     O
C       0.1607   0.7357   0.5715     C
H       0.1614   0.1619   0.3165     H
C       0.1666   0.8598   0.0271     C
C       0.1675   0.7493   0.3314     C
O       0.1695   0.2918   0.4596     O
O       0.1705   0.8235   0.0571     O
C       0.1707   0.4825   0.7057     C
C       0.1712   0.2068   0.1182     C
C       0.1714   0.2644   0.1446     C
C       0.1742   0.6315   0.0487     C
H       0.1763   0.4525   0.7266     H
C       0.1781   0.1998   0.3691     C
C        0.179   0.0508   0.7116     C
C       0.1807   0.7583   0.2894     C
Cd     0.18114  0.77027  0.21112    Cd
C        0.183   0.0888    0.678     C
H       0.1835   0.8288   0.6255     H
C       0.1846   0.7846   0.3955     C
C       0.1853   0.2438   0.4364     C
O       0.1862   0.6532   0.0155     O
O       0.1894   0.8417   0.9963     O
C       0.1915   0.5088   0.6395     C
O       0.1922   0.6621   0.0788     O
O        0.193   0.2753   0.5593     O
C       0.1988   0.4626   0.6703     C
H       0.1998    0.069   0.7332     H
C       0.2019   0.7907   0.3565     C
H       0.2078   0.8116   0.4134     H
H       0.2112   0.4976   0.6163     H
O       0.2163   0.1959   0.6473     O
H       0.2167   0.1733   0.3735     H
C       0.2189   0.7493   0.5973     C
H       0.2195   0.3505   0.1616     H
C       0.2206   0.7993   0.6224     C
C       0.2209   0.1589    0.677     C
C       0.2217   0.3107   0.1457     C
Ca     0.22226  0.76604  0.10644    Ca
C       0.2258   0.1968   0.0952     C
O       0.2266   0.7984   0.2776     O
H       0.2279    0.158   0.0786     H
O       0.2324   0.1998   0.4428     O
C       0.2354    0.391   0.6667     C
H       0.2354   0.8217   0.3485     H
O       0.2462   0.3565   0.6974     O
Cd     0.24735  0.24205  0.50412    Cd
O        0.248   0.6761   0.2058     O
O       0.2487   0.8738   0.1336     O
O       0.2513   0.3738   0.6336     O
O        0.252   0.1761   0.7058     O
Cd     0.25265  0.74205  0.00412    Cd
O       0.2538   0.8565   0.1974     O
H       0.2646   0.3217   0.8485     H
C       0.2646    0.891   0.1667     C
O       0.2676   0.6998   0.9428     O
H       0.2721    0.658   0.5786     H
O       0.2734   0.2984   0.7776     O
C       0.2742   0.6968   0.5952     C
Ca     0.27774  0.26604  0.60644    Ca
C       0.2783   0.8107   0.6457     C
C       0.2791   0.6589    0.177     C
C       0.2794   0.2993   0.1224     C
H       0.2805   0.8505   0.6616     H
C       0.2811   0.2493   0.0973     C
H       0.2833   0.6733   0.8735     H
O       0.2837   0.6959   0.1473     O
H       0.2888   0.9976   0.1163     H
H       0.2922   0.3116   0.9134     H
C       0.2981   0.2907   0.8565     C
H       0.3002    0.569   0.2332     H
C       0.3012   0.9626   0.1703     C
O        0.307   0.7753   0.0593     O
O       0.3078   0.1621   0.5788     O
C       0.3085   0.0088   0.1395     C
O       0.3106   0.3417   0.4963     O
O       0.3138   0.1532   0.5155     O
C       0.3147   0.7438   0.9364     C
C       0.3154   0.2846   0.8955     C
H       0.3165   0.3288   0.1255     H
C        0.317   0.5888    0.178     C
Cd     0.31886  0.27027  0.71112    Cd
C       0.3193   0.2583   0.7894     C
C        0.321   0.5508   0.2116     C
C       0.3219   0.6998   0.8691     C
H       0.3237   0.9525   0.2266     H
C       0.3258   0.1315   0.5487     C
C       0.3286   0.7644   0.6446     C
C       0.3288   0.7068   0.6182     C
C       0.3293   0.9825   0.2057     C
O       0.3295   0.3235   0.5571     O
O       0.3305   0.7918   0.9596     O
C       0.3325   0.2493   0.8314     C
C       0.3334   0.3598   0.5271     C
H       0.3386   0.6619   0.8165     H
C       0.3393   0.2357   0.0715     C
O       0.3403   0.1865   0.0472     O
C       0.3447    0.071   0.1435     C
H        0.345   0.5851   0.1227     H
C       0.3463    0.743   0.8966     C
C       0.3473   0.5602   0.1456     C
H       0.3514   0.1008   0.1226     H
C        0.354   0.6946   0.8345     C
C       0.3552    0.486   0.2142     C
O       0.3566    0.224   0.7664     O
C       0.3569   0.7357   0.0553     C
H       0.3577   0.4611   0.2371     H
O       0.3592   0.6891    0.031     O
C         0.36   0.0606   0.5523     C
H       0.3603   0.0507   0.6114     H
H        0.361   0.4424   0.5862     H
O        0.363   0.2834   0.9711     O
C       0.3641   0.2412   0.9071     C
O       0.3642   0.2609   0.6501     O
C       0.3645   0.0446   0.2097     C
H       0.3654   0.6762   0.6166     H
C       0.3665   0.4333     0.53     C
C       0.3714   0.0896   0.1787     C
C        0.374   0.0279   0.5891     C
H       0.3743   0.0426   0.4949     H
C       0.3758   0.4648   0.5641     C
H       0.3795   0.4471   0.4733     H
C       0.3805   0.4958    0.147     C
H       0.3807   0.8356   0.1093     H
C       0.3814   0.0233    0.519     C
C       0.3827   0.1992   0.8446     C
H       0.3836   0.0566    0.233     H
O       0.3843   0.8116   0.6992     O
C       0.3863    0.459   0.1808     C
C       0.3878   0.7707   0.6712     C
C       0.3879   0.2387   0.9489     C
C       0.3882    0.467    0.497     C
O       0.3884   0.2824   0.0743     O
C       0.3966   0.1978   0.8816     C
H       0.3993   0.4769    0.125     H
C       0.4035    0.781   0.8917     C
H       0.4046   0.1688   0.8277     H
C       0.4064   0.7355   0.8263     C
C       0.4078   0.9627   0.5911     C
C       0.4087   0.5332    0.566     C
C       0.4092   0.1596   0.1828     C
C       0.4126   0.9583   0.5234     C
H       0.4133   0.5563   0.5894     H
C       0.4155   0.7467   0.0809     C
O       0.4163   0.2016   0.1538     O
C       0.4166   0.8039   0.1079     C
C       0.4177   0.2269   0.6571     C
H       0.4177   0.9422   0.6146     H
H       0.4232   0.8056   0.9119     H
C       0.4236   0.5315   0.5002     C
O       0.4239   0.6876   0.7649     O
H       0.4253   0.9323   0.5019     H
C       0.4255   0.9305   0.5594     C
O       0.4262   0.1922   0.6852     O
C       0.4278   0.3913    0.183     C
O       0.4287   0.1914   0.9585     O
H       0.4292   0.1664   0.8905     H
C       0.4323   0.5633   0.5349     C
C       0.4323   0.7821   0.8548     C
O        0.435    0.172   0.2151     O
H        0.435   0.3206   0.5995     H
O       0.4356   0.3615   0.2154     O
O       0.4366   0.7283   0.6652     O
Cd     0.43956   0.2453   0.0181    Cd
H       0.4412    0.553   0.4785     H
C       0.4433   0.7347   0.7884     C
O       0.4491   0.3673   0.1522     O
C       0.4634   0.8581   0.5617     C
H       0.4676   0.8128   0.8492     H
H       0.4681   0.8482   0.1502     H
C       0.4694   0.6333   0.5388     C
C       0.4695   0.8125   0.1317     C
O       0.4709   0.6627   0.5701     O
C       0.4718   0.2903   0.6011     C
C       0.4733   0.2315   0.6289     C
C       0.4735   0.7001   0.0771     C
O       0.4739   0.8315   0.5919     O
H        0.474   0.6641   0.0588     H
Ca     0.48046  0.27118  0.11684    Ca
O        0.486    0.836   0.5302     O
O       0.4884   0.7774   0.7807     O
O       0.4992   0.3439   0.0086     O
Cd     0.49941   0.7343  0.71908    Cd
Cd     0.50059   0.2657  0.21908    Cd
O       0.5008   0.6561   0.5086     O
O       0.5116   0.2226   0.2807     O
O        0.514    0.164   0.0302     O
Ca     0.51954  0.72882  0.61684    Ca
H        0.526   0.3359   0.5588     H
O       0.5261   0.1685   0.0919     O
C       0.5265   0.2999   0.5771     C
C       0.5267   0.7685   0.1289     C
C       0.5282   0.7097   0.1011     C
O       0.5291   0.3373   0.0701     O
C       0.5305   0.1875   0.6317     C
C       0.5306   0.3667   0.0388     C
H       0.5319   0.1518   0.6502     H
H       0.5324   0.1872   0.3492     H
C       0.5366   0.1419   0.0617     C
O       0.5509   0.6327   0.6522     O
C       0.5567   0.2653   0.2884     C
H       0.5588    0.447   0.9785     H
Cd     0.56044   0.7547   0.5181    Cd
O       0.5634   0.2717   0.1652     O
O       0.5644   0.6385   0.7154     O
H        0.565   0.6794   0.0995     H
O        0.565    0.828   0.7151     O
C       0.5677   0.2179   0.3548     C
C       0.5677   0.4367   0.0349     C
H       0.5708   0.8336   0.3905     H
O       0.5713   0.8086   0.4585     O
C       0.5722   0.6087    0.683     C
O       0.5738   0.8078   0.1852     O
C       0.5745   0.0695   0.0594     C
H       0.5747   0.0677   0.0019     H
O       0.5761   0.3124   0.2649     O
C       0.5764   0.4685   0.0002     C
H       0.5768   0.1944   0.4119     H
H       0.5823   0.0578   0.1146     H
C       0.5823   0.7731   0.1571     C
C       0.5834   0.1961   0.6079     C
O       0.5837   0.7984   0.6538     O
C       0.5845   0.2533   0.5809     C
H       0.5867   0.4437   0.0894     H
C       0.5874   0.0417   0.0234     C
C       0.5908   0.8404   0.6828     C
C       0.5913   0.4668    0.066     C
C       0.5922   0.0373   0.0911     C
C       0.5936   0.2645   0.3263     C
H       0.5954   0.8312   0.3277     H
C       0.5965    0.219   0.3917     C
H       0.6007   0.5231    0.625     H
C       0.6034   0.8022   0.3816     C
O       0.6116   0.7176   0.5743     O
C       0.6118    0.533    0.997     C
C       0.6121   0.7613   0.4489     C
C       0.6122   0.2293   0.1712     C
C       0.6137    0.541   0.6808     C
O       0.6157   0.1884   0.1992     O
H       0.6164   0.9434    0.733     H
C       0.6173   0.8008   0.3446     C
C       0.6186   0.9767    0.019     C
H       0.6193   0.1644   0.6093     H
C       0.6195   0.5042    0.647     C
H       0.6205   0.5529   0.9733     H
C       0.6242   0.5352   0.0641     C
H       0.6257   0.9574   0.9949     H
C        0.626   0.9721   0.0891     C
C       0.6286   0.9104   0.6787     C
C       0.6335   0.5667     0.03     C
H       0.6346   0.3238   0.1166     H
C       0.6355   0.9554   0.7097     C
O       0.6358   0.7391   0.1501     O
C       0.6359   0.7588   0.4071     C
O        0.637   0.7166   0.4711     O
H        0.639   0.5576   0.0862     H
H       0.6397   0.9493   0.1114     H
C         0.64   0.9394   0.0523     C
O       0.6408   0.3109    0.531     O
H       0.6423   0.5389   0.7371     H
C       0.6431   0.2643   0.5553     C
O       0.6434    0.776   0.2664     O
C       0.6448    0.514   0.7142     C
C        0.646   0.3054   0.3345     C
H       0.6486   0.8992   0.6226     H
C       0.6527   0.4398   0.6456     C
C       0.6537    0.257   0.3966     C
H        0.655   0.4149   0.6227     H
C       0.6553    0.929   0.6435     C
O       0.6597   0.8135   0.5472     O
C       0.6607   0.7643   0.5715     C
H       0.6614   0.3381   0.3165     H
C       0.6666   0.6402   0.0271     C
C       0.6675   0.7507   0.3314     C
O       0.6695   0.2082   0.4596     O
O       0.6705   0.6765   0.0571     O
C       0.6707   0.0175   0.7057     C
C       0.6712   0.2932   0.1182     C
C       0.6714   0.2356   0.1446     C
C       0.6742   0.8685   0.0487     C
H       0.6763   0.0475   0.7266     H
C       0.6781   0.3002   0.3691     C
C        0.679   0.4492   0.7116     C
C       0.6807   0.7417   0.2894     C
Cd     0.68114  0.72973  0.21112    Cd
C        0.683   0.4112    0.678     C
H       0.6835   0.6712   0.6255     H
C       0.6846   0.7154   0.3955     C
C       0.6853   0.2562   0.4364     C
O       0.6862   0.8468   0.0155     O
O       0.6894   0.6583   0.9963     O
C       0.6915   0.9912   0.6395     C
O       0.6922   0.8379   0.0788     O
O        0.693   0.2247   0.5593     O
C       0.6988   0.0374   0.6703     C
H       0.6998    0.431   0.7332     H
C       0.7019   0.7093   0.3565     C
H       0.7078   0.6884   0.4134     H
H       0.7112   0.0024   0.6163     H
O       0.7163   0.3041   0.6473     O
H       0.7167   0.3267   0.3735     H
C       0.7189   0.7507   0.5973     C
H       0.7195   0.1495   0.1616     H
C       0.7206   0.7007   0.6224     C
C       0.7209   0.3411    0.677     C
C       0.7217   0.1893   0.1457     C
Ca     0.72226  0.73396  0.10644    Ca
C       0.7258   0.3032   0.0952     C
O       0.7266   0.7016   0.2776     O
H       0.7279    0.342   0.0786     H
O       0.7324   0.3002   0.4428     O
C       0.7354    0.109   0.6667     C
H       0.7354   0.6783   0.3485     H
O       0.7462   0.1435   0.6974     O
Cd     0.74735  0.25795  0.50412    Cd
O        0.748   0.8239   0.2058     O
O       0.7487   0.6262   0.1336     O
O       0.7513   0.1262   0.6336     O
O        0.752   0.3239   0.7058     O
Cd     0.75265  0.75795  0.00412    Cd
O       0.7538   0.6435   0.1974     O
H       0.7646   0.1783   0.8485     H
C       0.7646    0.609   0.1667     C
O       0.7676   0.8002   0.9428     O
H       0.7721    0.842   0.5786     H
O       0.7734   0.2016   0.7776     O
C       0.7742   0.8032   0.5952     C
Ca     0.77774  0.23396  0.60644    Ca
C       0.7783   0.6893   0.6457     C
C       0.7791   0.8411    0.177     C
C       0.7794   0.2007   0.1224     C
H       0.7805   0.6495   0.6616     H
C       0.7811   0.2507   0.0973     C
H       0.7833   0.8267   0.8735     H
O       0.7837   0.8041   0.1473     O
H       0.7888   0.5024   0.1163     H
H       0.7922   0.1884   0.9134     H
C       0.7981   0.2093   0.8565     C
H       0.8002    0.931   0.2332     H
C       0.8012   0.5374   0.1703     C
O        0.807   0.7247   0.0593     O
O       0.8078   0.3379   0.5788     O
C       0.8085   0.4912   0.1395     C
O       0.8106   0.1583   0.4963     O
O       0.8138   0.3468   0.5155     O
C       0.8147   0.7562   0.9364     C
C       0.8154   0.2154   0.8955     C
H       0.8165   0.1712   0.1255     H
C        0.817   0.9112    0.178     C
Cd     0.81886  0.22973  0.71112    Cd
C       0.8193   0.2417   0.7894     C
C        0.821   0.9492   0.2116     C
C       0.8219   0.8002   0.8691     C
H       0.8237   0.5475   0.2266     H
C       0.8258   0.3685   0.5487     C
C       0.8286   0.7356   0.6446     C
C       0.8288   0.7932   0.6182     C
C       0.8293   0.5175   0.2057     C
O       0.8295   0.1765   0.5571     O
O       0.8305   0.7082   0.9596     O
C       0.8325   0.2507   0.8314     C
C       0.8334   0.1402   0.5271     C
H       0.8386   0.8381   0.8165     H
C       0.8393   0.2643   0.0715     C
O       0.8403   0.3135   0.0472     O
C       0.8447    0.429   0.1435     C
H        0.845   0.9149   0.1227     H
C       0.8463    0.757   0.8966     C
C       0.8473   0.9398   0.1456     C
H       0.8514   0.3992   0.1226     H
C        0.854   0.8054   0.8345     C
C       0.8552    0.014   0.2142     C
O       0.8566    0.276   0.7664     O
C       0.8569   0.7643   0.0553     C
H       0.8577   0.0389   0.2371     H
O       0.8592   0.8109    0.031     O
C         0.86   0.4394   0.5523     C
H       0.8603   0.4493   0.6114     H
H        0.861   0.0576   0.5862     H
O        0.863   0.2166   0.9711     O
C       0.8641   0.2588   0.9071     C
O       0.8642   0.2391   0.6501     O
C       0.8645   0.4554   0.2097     C
H       0.8654   0.8238   0.6166     H
C       0.8665   0.0667     0.53     C
C       0.8714   0.4104   0.1787     C
C        0.874   0.4721   0.5891     C
H       0.8743   0.4574   0.4949     H
C       0.8758   0.0352   0.5641     C
H       0.8795   0.0529   0.4733     H
C       0.8805   0.0042    0.147     C
H       0.8807   0.6644   0.1093     H
C       0.8814   0.4767    0.519     C
C       0.8827   0.3008   0.8446     C
H       0.8836   0.4434    0.233     H
O       0.8843   0.6884   0.6992     O
C       0.8863    0.041   0.1808     C
C       0.8878   0.7293   0.6712     C
C       0.8879   0.2613   0.9489     C
C       0.8882    0.033    0.497     C
O       0.8884   0.2176   0.0743     O
C       0.8966   0.3022   0.8816     C
H       0.8993   0.0231    0.125     H
C       0.9035    0.719   0.8917     C
H       0.9046   0.3312   0.8277     H
C       0.9064   0.7645   0.8263     C
C       0.9078   0.5373   0.5911     C
C       0.9087   0.9668    0.566     C
C       0.9092   0.3404   0.1828     C
C       0.9126   0.5417   0.5234     C
H       0.9133   0.9437   0.5894     H
C       0.9155   0.7533   0.0809     C
O       0.9163   0.2984   0.1538     O
C       0.9166   0.6961   0.1079     C
C       0.9177   0.2731   0.6571     C
H       0.9177   0.5578   0.6146     H
H       0.9232   0.6944   0.9119     H
C       0.9236   0.9685   0.5002     C
O       0.9239   0.8124   0.7649     O
H       0.9253   0.5677   0.5019     H
C       0.9255   0.5695   0.5594     C
O       0.9262   0.3078   0.6852     O
C       0.9278   0.1087    0.183     C
O       0.9287   0.3086   0.9585     O
H       0.9292   0.3336   0.8905     H
C       0.9323   0.7179   0.8548     C
C       0.9323   0.9367   0.5349     C
H        0.935   0.1794   0.5995     H
O        0.935    0.328   0.2151     O
O       0.9356   0.1385   0.2154     O
O       0.9366   0.7717   0.6652     O
Cd     0.93956   0.2547   0.0181    Cd
H       0.9412    0.947   0.4785     H
C       0.9433   0.7653   0.7884     C
O       0.9491   0.1327   0.1522     O
C       0.9634   0.6419   0.5617     C
H       0.9676   0.6872   0.8492     H
H       0.9681   0.6518   0.1502     H
C       0.9694   0.8667   0.5388     C
C       0.9695   0.6875   0.1317     C
O       0.9709   0.8373   0.5701     O
C       0.9718   0.2097   0.6011     C
C       0.9733   0.2685   0.6289     C
C       0.9735   0.7999   0.0771     C
O       0.9739   0.6685   0.5919     O
H        0.974   0.8359   0.0588     H
Ca     0.98046  0.22882  0.11684    Ca
O        0.986    0.664   0.5302     O
O       0.9884   0.7226   0.7807     O
O       0.9992   0.1561   0.0086     O
Cd     0.99941   0.7657  0.71908    Cd
