data_I
_chemical_name_common  '/home/zhangsd/repos/MofS-CGCNN/ML/data/TSD/clean_cifs/IYEQUA_clean'
_cell_length_a 17.69070
_cell_length_b 16.16720
_cell_length_c 16.82830
_cell_angle_alpha 90.00000
_cell_angle_beta  90.00000
_cell_angle_gamma 90.00000
_space_group_name_H-M_alt      'P 1'


loop_
_space_group_symop_operation_xyz
  'x, y, z' 

loop_
_atom_site_label
_atom_site_fract_x
_atom_site_fract_y
_atom_site_fract_z
_atom_site_type_symbol
C       0.0021    0.478   0.6119     C
C       0.0021    0.522   0.1119     C
C       0.0124   0.0408   0.0131     C
C       0.0124   0.9592   0.5131     C
C        0.023   0.0487   0.1028     C
C        0.023   0.9513   0.6028     C
H       0.0244   0.0815   0.5041     H
H       0.0244   0.9185   0.0041     H
H       0.0249   0.4258   0.8892     H
H       0.0249   0.5742   0.3892     H
C       0.0314   0.4968   0.5302     C
C       0.0314   0.5032   0.0302     C
H       0.0333   0.4792   0.3724     H
H       0.0333   0.5208   0.8724     H
H        0.048   0.1007   0.1144     H
H        0.048   0.8993   0.6144     H
N       0.0488   0.0455   0.3538     N
N       0.0488   0.9545   0.8538     N
H       0.0555   0.0044   0.1212     H
H       0.0555   0.9956   0.6212     H
H       0.0568   0.0743   0.8114     H
H       0.0568   0.9257   0.3114     H
H       0.0591   0.4515   0.0315     H
H       0.0591   0.5485   0.5315     H
H         0.06   0.0537   0.9872     H
H         0.06   0.9463   0.4872     H
N       0.0631   0.4731   0.6707     N
N       0.0631   0.5269   0.1707     N
H       0.0661   0.4535   0.5141     H
H       0.0661   0.5465   0.0141     H
C       0.0783    0.022   0.8157     C
C       0.0783    0.978   0.3157     C
H       0.0789   0.4091   0.2119     H
H       0.0789   0.5909   0.7119     H
H       0.0914   0.1602   0.3675     H
H       0.0914   0.8398   0.8675     H
H        0.093    0.352   0.6684     H
H        0.093    0.648   0.1684     H
C       0.0942   0.4641   0.2126     C
C       0.0942   0.5359   0.7126     C
C        0.098   0.1077    0.346     C
C        0.098   0.8923    0.846     C
C       0.1026   0.4043   0.6891     C
C       0.1026   0.5957   0.1891     C
C       0.1453   0.0032   0.2855     C
C       0.1453   0.9968   0.7855     C
C       0.1512   0.4961   0.2554     C
C       0.1512   0.5039   0.7554     C
N        0.157   0.4214   0.7408     N
N        0.157   0.5786   0.2408     N
N       0.1574   0.0845   0.3035     N
N       0.1574   0.9155   0.8035     N
H       0.1717   0.0926   0.5964     H
H       0.1717   0.9074   0.0964     H
H       0.1761    0.152   0.5229     H
H       0.1761    0.848   0.0229     H
H       0.1783     0.03   0.7566     H
H       0.1783     0.97   0.2566     H
H       0.1804   0.1765   0.9981     H
H       0.1804   0.8235   0.4981     H
H       0.1808   0.1131   0.9279     H
H       0.1808   0.8869   0.4279     H
H        0.182   0.4663   0.2899     H
H        0.182   0.5337   0.7899     H
O       0.1824   0.2725   0.8829     O
O       0.1824   0.7275   0.3829     O
H       0.1826   0.0246   0.4695     H
H       0.1826   0.9754   0.9695     H
H       0.1901   0.4118   0.4526     H
H       0.1901   0.5882   0.9526     H
O       0.1921   0.2315   0.1703     O
O       0.1921   0.7685   0.6703     O
O       0.1931   0.2254   0.6869     O
O       0.1931   0.7746   0.1869     O
H       0.1951   0.3531   0.5264     H
H       0.1951   0.6469   0.0264     H
H       0.1962   0.3874   0.1144     H
H       0.1962   0.6126   0.6144     H
H        0.199   0.3203   0.0476     H
H        0.199   0.6797   0.5476     H
O       0.2043   0.2766   0.3673     O
O       0.2043   0.7234   0.8673     O
C       0.2044   0.1122   0.5541     C
C       0.2044   0.8878   0.0541     C
H       0.2047   0.4805   0.5788     H
H       0.2047   0.5195   0.0788     H
C       0.2115    0.153   0.9564     C
C       0.2115    0.847   0.4564     C
H       0.2126   0.0534   0.0809     H
H       0.2126   0.9466   0.5809     H
C       0.2235   0.3919   0.4941     C
C       0.2235   0.6081   0.9941     C
C        0.226   0.0398   0.5015     C
C        0.226   0.9602   0.0015     C
C       0.2279   0.3456   0.0901     C
C       0.2279   0.6544   0.5901     C
C        0.233   0.2205   0.9002     C
C        0.233   0.7795   0.4002     C
H       0.2343   0.4425   0.9656     H
H       0.2343   0.5575   0.4656     H
C       0.2453   0.2794   0.1524     C
C       0.2453   0.7206   0.6524     C
Cd     0.24584  0.32943  0.77661    Cd
Cd     0.24584  0.67057  0.27661    Cd
C       0.2472   0.4648   0.5458     C
C       0.2472   0.5352   0.0458     C
C       0.2528   0.0352   0.0458     C
C       0.2528   0.9648   0.5458     C
Cd     0.25416  0.17057  0.27661    Cd
Cd     0.25416  0.82943  0.77661    Cd
C       0.2547   0.2206   0.6524     C
C       0.2547   0.7794   0.1524     C
H       0.2657   0.0575   0.4656     H
H       0.2657   0.9425   0.9656     H
C        0.267   0.2795   0.4002     C
C        0.267   0.7205   0.9002     C
C       0.2721   0.1544   0.5901     C
C       0.2721   0.8456   0.0901     C
C        0.274   0.4602   0.0015     C
C        0.274   0.5398   0.5015     C
C       0.2765   0.1081   0.9941     C
C       0.2765   0.8919   0.4941     C
H       0.2874   0.4466   0.5809     H
H       0.2874   0.5534   0.0809     H
C       0.2885    0.347   0.4564     C
C       0.2885    0.653   0.9564     C
H       0.2953   0.0195   0.0788     H
H       0.2953   0.9805   0.5788     H
C       0.2956   0.3878   0.0541     C
C       0.2956   0.6122   0.5541     C
O       0.2957   0.2234   0.8673     O
O       0.2957   0.7766   0.3673     O
H        0.301   0.1797   0.5476     H
H        0.301   0.8203   0.0476     H
H       0.3038   0.1126   0.6144     H
H       0.3038   0.8874   0.1144     H
H       0.3049   0.1469   0.0264     H
H       0.3049   0.8531   0.5264     H
O       0.3069   0.2746   0.1869     O
O       0.3069   0.7254   0.6869     O
O       0.3079   0.2685   0.6703     O
O       0.3079   0.7315   0.1703     O
H       0.3099   0.0882   0.9526     H
H       0.3099   0.9118   0.4526     H
H       0.3174   0.4754   0.9695     H
H       0.3174   0.5246   0.4695     H
O       0.3176   0.2275   0.3829     O
O       0.3176   0.7725   0.8829     O
H        0.318   0.0337   0.7899     H
H        0.318   0.9663   0.2899     H
H       0.3192   0.3869   0.4279     H
H       0.3192   0.6131   0.9279     H
H       0.3196   0.3235   0.4981     H
H       0.3196   0.6765   0.9981     H
H       0.3217     0.47   0.2566     H
H       0.3217     0.53   0.7566     H
H       0.3239    0.348   0.0229     H
H       0.3239    0.652   0.5229     H
H       0.3283   0.4074   0.0964     H
H       0.3283   0.5926   0.5964     H
N       0.3426   0.4155   0.8035     N
N       0.3426   0.5845   0.3035     N
N        0.343   0.0786   0.2408     N
N        0.343   0.9214   0.7408     N
C       0.3488   0.0039   0.7554     C
C       0.3488   0.9961   0.2554     C
C       0.3547   0.4968   0.7855     C
C       0.3547   0.5032   0.2855     C
C       0.3974   0.0957   0.1891     C
C       0.3974   0.9043   0.6891     C
C        0.402   0.3923    0.846     C
C        0.402   0.6077    0.346     C
C       0.4058   0.0359   0.7126     C
C       0.4058   0.9641   0.2126     C
H        0.407    0.148   0.1684     H
H        0.407    0.852   0.6684     H
H       0.4086   0.3398   0.8675     H
H       0.4086   0.6602   0.3675     H
H       0.4211   0.0909   0.7119     H
H       0.4211   0.9091   0.2119     H
C       0.4217    0.478   0.3157     C
C       0.4217    0.522   0.8157     C
H       0.4339   0.0465   0.0141     H
H       0.4339   0.9535   0.5141     H
N       0.4369   0.0269   0.1707     N
N       0.4369   0.9731   0.6707     N
H         0.44   0.4463   0.4872     H
H         0.44   0.5537   0.9872     H
H       0.4409   0.0485   0.5315     H
H       0.4409   0.9515   0.0315     H
H       0.4432   0.4257   0.3114     H
H       0.4432   0.5743   0.8114     H
H       0.4445   0.4956   0.6212     H
H       0.4445   0.5044   0.1212     H
N       0.4512   0.4545   0.8538     N
N       0.4512   0.5455   0.3538     N
H        0.452   0.3993   0.6144     H
H        0.452   0.6007   0.1144     H
H       0.4667   0.0208   0.8724     H
H       0.4667   0.9792   0.3724     H
C       0.4686   0.0032   0.0302     C
C       0.4686   0.9968   0.5302     C
H       0.4751   0.0742   0.3892     H
H       0.4751   0.9258   0.8892     H
H       0.4756   0.4185   0.0041     H
H       0.4756   0.5815   0.5041     H
C        0.477   0.4513   0.6028     C
C        0.477   0.5487   0.1028     C
C       0.4876   0.4592   0.5131     C
C       0.4876   0.5408   0.0131     C
C       0.4979    0.022   0.1119     C
C       0.4979    0.978   0.6119     C
C       0.5021    0.022   0.3881     C
C       0.5021    0.978   0.8881     C
C       0.5124   0.4592   0.9869     C
C       0.5124   0.5408   0.4869     C
C        0.523   0.4513   0.8972     C
C        0.523   0.5487   0.3972     C
H       0.5244   0.4185   0.4959     H
H       0.5244   0.5815   0.9959     H
H       0.5249   0.0742   0.1108     H
H       0.5249   0.9258   0.6108     H
C       0.5314   0.0032   0.4698     C
C       0.5314   0.9968   0.9698     C
H       0.5333   0.0208   0.6276     H
H       0.5333   0.9792   0.1276     H
H        0.548   0.3993   0.8856     H
H        0.548   0.6007   0.3856     H
N       0.5488   0.4545   0.6462     N
N       0.5488   0.5455   0.1462     N
H       0.5555   0.4956   0.8788     H
H       0.5555   0.5044   0.3788     H
H       0.5568   0.4257   0.1886     H
H       0.5568   0.5743   0.6886     H
H       0.5591   0.0485   0.9685     H
H       0.5591   0.9515   0.4685     H
H         0.56   0.4463   0.0128     H
H         0.56   0.5537   0.5128     H
N       0.5631   0.0269   0.3293     N
N       0.5631   0.9731   0.8293     N
H       0.5661   0.0465   0.4859     H
H       0.5661   0.9535   0.9859     H
C       0.5783    0.478   0.1843     C
C       0.5783    0.522   0.6843     C
H       0.5789   0.0909   0.7881     H
H       0.5789   0.9091   0.2881     H
H       0.5914   0.3398   0.6325     H
H       0.5914   0.6602   0.1325     H
H        0.593    0.148   0.3316     H
H        0.593    0.852   0.8316     H
C       0.5942   0.0359   0.7874     C
C       0.5942   0.9641   0.2874     C
C        0.598   0.3923    0.654     C
C        0.598   0.6077    0.154     C
C       0.6026   0.0957   0.3109     C
C       0.6026   0.9043   0.8109     C
C       0.6453   0.4968   0.7145     C
C       0.6453   0.5032   0.2145     C
C       0.6512   0.0039   0.7446     C
C       0.6512   0.9961   0.2446     C
N        0.657   0.0786   0.2592     N
N        0.657   0.9214   0.7592     N
N       0.6574   0.4155   0.6965     N
N       0.6574   0.5845   0.1965     N
H       0.6717   0.4074   0.4036     H
H       0.6717   0.5926   0.9036     H
H       0.6761    0.348   0.4771     H
H       0.6761    0.652   0.9771     H
H       0.6783     0.47   0.2434     H
H       0.6783     0.53   0.7434     H
H       0.6804   0.3235   0.0019     H
H       0.6804   0.6765   0.5019     H
H       0.6808   0.3869   0.0721     H
H       0.6808   0.6131   0.5721     H
H        0.682   0.0337   0.7101     H
H        0.682   0.9663   0.2101     H
O       0.6824   0.2275   0.1171     O
O       0.6824   0.7725   0.6171     O
H       0.6826   0.4754   0.5305     H
H       0.6826   0.5246   0.0305     H
H       0.6901   0.0882   0.5474     H
H       0.6901   0.9118   0.0474     H
O       0.6921   0.2685   0.8297     O
O       0.6921   0.7315   0.3297     O
O       0.6931   0.2746   0.3131     O
O       0.6931   0.7254   0.8131     O
H       0.6951   0.1469   0.4736     H
H       0.6951   0.8531   0.9736     H
H       0.6962   0.1126   0.8856     H
H       0.6962   0.8874   0.3856     H
H        0.699   0.1797   0.9524     H
H        0.699   0.8203   0.4524     H
O       0.7043   0.2234   0.6327     O
O       0.7043   0.7766   0.1327     O
C       0.7044   0.3878   0.4459     C
C       0.7044   0.6122   0.9459     C
H       0.7047   0.0195   0.4212     H
H       0.7047   0.9805   0.9212     H
C       0.7115    0.347   0.0436     C
C       0.7115    0.653   0.5436     C
H       0.7126   0.4466   0.9191     H
H       0.7126   0.5534   0.4191     H
C       0.7235   0.1081   0.5059     C
C       0.7235   0.8919   0.0059     C
C        0.726   0.4602   0.4985     C
C        0.726   0.5398   0.9985     C
C       0.7279   0.1544   0.9099     C
C       0.7279   0.8456   0.4099     C
C        0.733   0.2795   0.0998     C
C        0.733   0.7205   0.5998     C
H       0.7343   0.0575   0.0344     H
H       0.7343   0.9425   0.5344     H
C       0.7453   0.2206   0.8476     C
C       0.7453   0.7794   0.3476     C
Cd     0.74584  0.17057  0.22339    Cd
Cd     0.74584  0.82943  0.72339    Cd
C       0.7472   0.0352   0.4542     C
C       0.7472   0.9648   0.9542     C
C       0.7528   0.4648   0.9542     C
C       0.7528   0.5352   0.4542     C
Cd     0.75416  0.32943  0.72339    Cd
Cd     0.75416  0.67057  0.22339    Cd
C       0.7547   0.2794   0.3476     C
C       0.7547   0.7206   0.8476     C
H       0.7657   0.4425   0.5344     H
H       0.7657   0.5575   0.0344     H
C        0.767   0.2205   0.5998     C
C        0.767   0.7795   0.0998     C
C       0.7721   0.3456   0.4099     C
C       0.7721   0.6544   0.9099     C
C        0.774   0.0398   0.9985     C
C        0.774   0.9602   0.4985     C
C       0.7765   0.3919   0.0059     C
C       0.7765   0.6081   0.5059     C
H       0.7874   0.0534   0.4191     H
H       0.7874   0.9466   0.9191     H
C       0.7885    0.153   0.5436     C
C       0.7885    0.847   0.0436     C
H       0.7953   0.4805   0.9212     H
H       0.7953   0.5195   0.4212     H
C       0.7956   0.1122   0.9459     C
C       0.7956   0.8878   0.4459     C
O       0.7957   0.2766   0.1327     O
O       0.7957   0.7234   0.6327     O
H        0.801   0.3203   0.4524     H
H        0.801   0.6797   0.9524     H
H       0.8038   0.3874   0.3856     H
H       0.8038   0.6126   0.8856     H
H       0.8049   0.3531   0.9736     H
H       0.8049   0.6469   0.4736     H
O       0.8069   0.2254   0.8131     O
O       0.8069   0.7746   0.3131     O
O       0.8079   0.2315   0.3297     O
O       0.8079   0.7685   0.8297     O
H       0.8099   0.4118   0.0474     H
H       0.8099   0.5882   0.5474     H
H       0.8174   0.0246   0.0305     H
H       0.8174   0.9754   0.5305     H
O       0.8176   0.2725   0.6171     O
O       0.8176   0.7275   0.1171     O
H        0.818   0.4663   0.2101     H
H        0.818   0.5337   0.7101     H
H       0.8192   0.1131   0.5721     H
H       0.8192   0.8869   0.0721     H
H       0.8196   0.1765   0.5019     H
H       0.8196   0.8235   0.0019     H
H       0.8217     0.03   0.7434     H
H       0.8217     0.97   0.2434     H
H       0.8239    0.152   0.9771     H
H       0.8239    0.848   0.4771     H
H       0.8283   0.0926   0.9036     H
H       0.8283   0.9074   0.4036     H
N       0.8426   0.0845   0.1965     N
N       0.8426   0.9155   0.6965     N
N        0.843   0.4214   0.7592     N
N        0.843   0.5786   0.2592     N
C       0.8488   0.4961   0.2446     C
C       0.8488   0.5039   0.7446     C
C       0.8547   0.0032   0.2145     C
C       0.8547   0.9968   0.7145     C
C       0.8974   0.4043   0.8109     C
C       0.8974   0.5957   0.3109     C
C        0.902   0.1077    0.154     C
C        0.902   0.8923    0.654     C
C       0.9058   0.4641   0.2874     C
C       0.9058   0.5359   0.7874     C
H        0.907    0.352   0.8316     H
H        0.907    0.648   0.3316     H
H       0.9086   0.1602   0.1325     H
H       0.9086   0.8398   0.6325     H
H       0.9211   0.4091   0.2881     H
H       0.9211   0.5909   0.7881     H
C       0.9217    0.022   0.6843     C
C       0.9217    0.978   0.1843     C
H       0.9339   0.4535   0.9859     H
H       0.9339   0.5465   0.4859     H
N       0.9369   0.4731   0.8293     N
N       0.9369   0.5269   0.3293     N
H         0.94   0.0537   0.5128     H
H         0.94   0.9463   0.0128     H
H       0.9409   0.4515   0.4685     H
H       0.9409   0.5485   0.9685     H
H       0.9432   0.0743   0.6886     H
H       0.9432   0.9257   0.1886     H
H       0.9445   0.0044   0.3788     H
H       0.9445   0.9956   0.8788     H
N       0.9512   0.0455   0.1462     N
N       0.9512   0.9545   0.6462     N
H        0.952   0.1007   0.3856     H
H        0.952   0.8993   0.8856     H
H       0.9667   0.4792   0.1276     H
H       0.9667   0.5208   0.6276     H
C       0.9686   0.4968   0.9698     C
C       0.9686   0.5032   0.4698     C
H       0.9751   0.4258   0.6108     H
H       0.9751   0.5742   0.1108     H
H       0.9756   0.0815   0.9959     H
H       0.9756   0.9185   0.4959     H
C        0.977   0.0487   0.3972     C
C        0.977   0.9513   0.8972     C
C       0.9876   0.0408   0.4869     C
C       0.9876   0.9592   0.9869     C
C       0.9979    0.478   0.8881     C
C       0.9979    0.522   0.3881     C
