data_I
_chemical_name_common  '/home/zhangsd/repos/MofS-CGCNN/ML/data/TSD/clean_cifs/IYOWID_manual'
_cell_length_a 27.73640
_cell_length_b 27.73640
_cell_length_c 27.73640
_cell_angle_alpha 90.00000
_cell_angle_beta  90.00000
_cell_angle_gamma 90.00000
_space_group_name_H-M_alt      'P 1'


loop_
_space_group_symop_operation_xyz
  'x, y, z' 

loop_
_atom_site_label
_atom_site_fract_x
_atom_site_fract_y
_atom_site_fract_z
_atom_site_type_symbol
C          0.0  0.02621      0.5     C
N          0.0  0.12589      0.5     N
Zn         0.0  0.19874      0.5    Zn
Zn         0.0  0.30126      0.5    Zn
N          0.0  0.37411      0.5     N
H          0.0  0.37588  0.42456     H
H          0.0  0.37588  0.57544     H
C          0.0    0.398   0.4592     C
C          0.0    0.398   0.5408     C
C          0.0   0.4494   0.4569     C
C          0.0   0.4494   0.5431     C
H          0.0  0.46834  0.57958     H
H          0.0  0.47026  0.42148     H
C          0.0  0.47379      0.5     C
C          0.0  0.52621      0.5     C
H          0.0  0.52974  0.42148     H
H          0.0  0.53166  0.57958     H
C          0.0   0.5506   0.4569     C
C          0.0   0.5506   0.5431     C
C          0.0    0.602   0.4592     C
C          0.0    0.602   0.5408     C
H          0.0  0.62412  0.42456     H
H          0.0  0.62412  0.57544     H
N          0.0  0.62589      0.5     N
Zn         0.0  0.69874      0.5    Zn
Zn         0.0  0.80126      0.5    Zn
N          0.0  0.87411      0.5     N
C          0.0  0.97379      0.5     C
C      0.02621      0.5      0.0     C
H      0.02974      0.5  0.07852     H
H      0.02974      0.5  0.92148     H
C       0.0408    0.102      0.5     C
C       0.0408    0.898      0.5     C
C       0.0431   0.0506      0.5     C
C       0.0431   0.9494      0.5     C
C       0.0506      0.5   0.0431     C
C       0.0506      0.5   0.9569     C
O      0.05142  0.28961  0.44838     O
O      0.05142  0.28961  0.55162     O
O      0.05142  0.71039  0.44838     O
O      0.05142  0.71039  0.55162     O
O      0.05162  0.21039  0.44858     O
O      0.05162  0.21039  0.55142     O
O      0.05162  0.78961  0.44858     O
O      0.05162  0.78961  0.55142     O
C      0.06663     0.25  0.43337     C
C      0.06663     0.25  0.56663     C
C      0.06663     0.75  0.43337     C
C      0.06663     0.75  0.56663     C
H      0.07544  0.12412      0.5     H
H      0.07544  0.87588      0.5     H
H      0.07852  0.02974      0.5     H
H      0.07852  0.97026      0.5     H
C        0.102      0.5   0.0408     C
C        0.102      0.5   0.9592     C
C      0.10427     0.25  0.39573     C
C      0.10427     0.25  0.60427     C
C      0.10427     0.75  0.39573     C
C      0.10427     0.75  0.60427     C
H      0.10838  0.17131  0.39129     H
H      0.10838  0.17131  0.60871     H
H      0.10838  0.82869  0.39129     H
H      0.10838  0.82869  0.60871     H
H      0.10871  0.32869  0.39162     H
H      0.10871  0.32869  0.60838     H
H      0.10871  0.67131  0.39162     H
H      0.10871  0.67131  0.60838     H
C      0.12257  0.29279  0.37718     C
C      0.12257  0.29279  0.62282     C
C      0.12257  0.70721  0.37718     C
C      0.12257  0.70721  0.62282     C
C      0.12282  0.20721  0.37743     C
C      0.12282  0.20721  0.62257     C
C      0.12282  0.79279  0.37743     C
C      0.12282  0.79279  0.62257     C
H      0.12412      0.5  0.07544     H
H      0.12412      0.5  0.92456     H
N      0.12589      0.5      0.0     N
C      0.15727  0.29204  0.34154     C
C      0.15727  0.29204  0.65846     C
C      0.15727  0.70796  0.34154     C
C      0.15727  0.70796  0.65846     C
C      0.15846  0.20796  0.34273     C
C      0.15846  0.20796  0.65727     C
C      0.15846  0.79204  0.34273     C
C      0.15846  0.79204  0.65727     C
H      0.17125  0.32731  0.32573     H
H      0.17125  0.32731  0.67427     H
H      0.17125  0.67269  0.32573     H
H      0.17125  0.67269  0.67427     H
H      0.17131  0.39129  0.10838     H
H      0.17131  0.39129  0.89162     H
H      0.17131  0.60871  0.10838     H
H      0.17131  0.60871  0.89162     H
H      0.17269  0.32875  0.17427     H
H      0.17269  0.32875  0.82573     H
H      0.17269  0.67125  0.17427     H
H      0.17269  0.67125  0.82573     H
H      0.17427  0.17269  0.32875     H
H      0.17427  0.17269  0.67125     H
H      0.17427  0.82731  0.32875     H
H      0.17427  0.82731  0.67125     H
C      0.17615     0.25  0.32385     C
C      0.17615     0.25  0.67615     C
C      0.17615     0.75  0.32385     C
C      0.17615     0.75  0.67615     C
H      0.18642  0.31436  0.24922     H
H      0.18642  0.31436  0.75078     H
H      0.18642  0.68564  0.24922     H
H      0.18642  0.68564  0.75078     H
Zn     0.19874      0.5      0.0    Zn
C      0.20721  0.37743  0.12282     C
C      0.20721  0.37743  0.87718     C
C      0.20721  0.62257  0.12282     C
C      0.20721  0.62257  0.87718     C
C      0.20796  0.34273  0.15846     C
C      0.20796  0.34273  0.84154     C
C      0.20796  0.65727  0.15846     C
C      0.20796  0.65727  0.84154     C
O      0.21039  0.44858  0.05162     O
O      0.21039  0.44858  0.94838     O
O      0.21039  0.55142  0.05162     O
O      0.21039  0.55142  0.94838     O
C      0.21414     0.25  0.28586     C
C      0.21414     0.25  0.71414     C
C      0.21414     0.75  0.28586     C
C      0.21414     0.75  0.71414     C
C      0.21509  0.28491     0.25     C
C      0.21509  0.28491     0.75     C
C      0.21509  0.71509     0.25     C
C      0.21509  0.71509     0.75     C
C         0.25  0.21509  0.28491     C
C         0.25  0.21509  0.71509     C
C         0.25  0.28586  0.21414     C
C         0.25  0.28586  0.78586     C
C         0.25  0.32385  0.17615     C
C         0.25  0.32385  0.82385     C
C         0.25  0.39573  0.10427     C
C         0.25  0.39573  0.89573     C
C         0.25  0.43337  0.06663     C
C         0.25  0.43337  0.93337     C
C         0.25  0.56663  0.06663     C
C         0.25  0.56663  0.93337     C
C         0.25  0.60427  0.10427     C
C         0.25  0.60427  0.89573     C
C         0.25  0.67615  0.17615     C
C         0.25  0.67615  0.82385     C
C         0.25  0.71414  0.21414     C
C         0.25  0.71414  0.78586     C
C         0.25  0.78491  0.28491     C
C         0.25  0.78491  0.71509     C
H      0.25078  0.18564  0.31358     H
H      0.25078  0.18564  0.68642     H
H      0.25078  0.81436  0.31358     H
H      0.25078  0.81436  0.68642     H
C      0.28491     0.25  0.21509     C
C      0.28491     0.25  0.78491     C
C      0.28491     0.75  0.21509     C
C      0.28491     0.75  0.78491     C
C      0.28586  0.21414     0.25     C
C      0.28586  0.21414     0.75     C
C      0.28586  0.78586     0.25     C
C      0.28586  0.78586     0.75     C
O      0.28961  0.44838  0.05142     O
O      0.28961  0.44838  0.94858     O
O      0.28961  0.55162  0.05142     O
O      0.28961  0.55162  0.94858     O
C      0.29204  0.34154  0.15727     C
C      0.29204  0.34154  0.84273     C
C      0.29204  0.65846  0.15727     C
C      0.29204  0.65846  0.84273     C
C      0.29279  0.37718  0.12257     C
C      0.29279  0.37718  0.87743     C
C      0.29279  0.62282  0.12257     C
C      0.29279  0.62282  0.87743     C
Zn     0.30126      0.5      0.0    Zn
H      0.31358  0.25078  0.18564     H
H      0.31358  0.25078  0.81436     H
H      0.31358  0.74922  0.18564     H
H      0.31358  0.74922  0.81436     H
C      0.32385  0.17615     0.25     C
C      0.32385  0.17615     0.75     C
C      0.32385  0.82385     0.25     C
C      0.32385  0.82385     0.75     C
H      0.32573  0.17125  0.32731     H
H      0.32573  0.17125  0.67269     H
H      0.32573  0.82875  0.32731     H
H      0.32573  0.82875  0.67269     H
H      0.32731  0.32573  0.17125     H
H      0.32731  0.32573  0.82875     H
H      0.32731  0.67427  0.17125     H
H      0.32731  0.67427  0.82875     H
H      0.32869  0.39162  0.10871     H
H      0.32869  0.39162  0.89129     H
H      0.32869  0.60838  0.10871     H
H      0.32869  0.60838  0.89129     H
H      0.32875  0.17427  0.17269     H
H      0.32875  0.17427  0.82731     H
H      0.32875  0.82573  0.17269     H
H      0.32875  0.82573  0.82731     H
C      0.34154  0.15727  0.29204     C
C      0.34154  0.15727  0.70796     C
C      0.34154  0.84273  0.29204     C
C      0.34154  0.84273  0.70796     C
C      0.34273  0.15846  0.20796     C
C      0.34273  0.15846  0.79204     C
C      0.34273  0.84154  0.20796     C
C      0.34273  0.84154  0.79204     C
N      0.37411      0.5      0.0     N
H      0.37588  0.42456      0.0     H
H      0.37588  0.57544      0.0     H
C      0.37718  0.12257  0.29279     C
C      0.37718  0.12257  0.70721     C
C      0.37718  0.87743  0.29279     C
C      0.37718  0.87743  0.70721     C
C      0.37743  0.12282  0.20721     C
C      0.37743  0.12282  0.79279     C
C      0.37743  0.87718  0.20721     C
C      0.37743  0.87718  0.79279     C
H      0.39129  0.10838  0.17131     H
H      0.39129  0.10838  0.82869     H
H      0.39129  0.89162  0.17131     H
H      0.39129  0.89162  0.82869     H
H      0.39162  0.10871  0.32869     H
H      0.39162  0.10871  0.67131     H
H      0.39162  0.89129  0.32869     H
H      0.39162  0.89129  0.67131     H
C      0.39573  0.10427     0.25     C
C      0.39573  0.10427     0.75     C
C      0.39573  0.89573     0.25     C
C      0.39573  0.89573     0.75     C
C        0.398   0.4592      0.0     C
C        0.398   0.5408      0.0     C
H      0.42148      0.0  0.47026     H
H      0.42148      0.0  0.52974     H
H      0.42456      0.0  0.37588     H
H      0.42456      0.0  0.62412     H
C      0.43337  0.06663     0.25     C
C      0.43337  0.06663     0.75     C
C      0.43337  0.93337     0.25     C
C      0.43337  0.93337     0.75     C
O      0.44838  0.05142  0.28961     O
O      0.44838  0.05142  0.71039     O
O      0.44838  0.94858  0.28961     O
O      0.44838  0.94858  0.71039     O
O      0.44858  0.05162  0.21039     O
O      0.44858  0.05162  0.78961     O
O      0.44858  0.94838  0.21039     O
O      0.44858  0.94838  0.78961     O
C       0.4494   0.4569      0.0     C
C       0.4494   0.5431      0.0     C
C       0.4569      0.0   0.4494     C
C       0.4569      0.0   0.5506     C
C       0.4592      0.0    0.398     C
C       0.4592      0.0    0.602     C
H      0.46834  0.57958      0.0     H
H      0.47026  0.42148      0.0     H
C      0.47379      0.5      0.0     C
C          0.5      0.0  0.02621     C
N          0.5      0.0  0.12589     N
Zn         0.5      0.0  0.19874    Zn
Zn         0.5      0.0  0.30126    Zn
N          0.5      0.0  0.37411     N
C          0.5      0.0  0.47379     C
C          0.5      0.0  0.52621     C
N          0.5      0.0  0.62589     N
Zn         0.5      0.0  0.69874    Zn
Zn         0.5      0.0  0.80126    Zn
N          0.5      0.0  0.87411     N
C          0.5      0.0  0.97379     C
C          0.5   0.0408    0.102     C
C          0.5   0.0408    0.898     C
C          0.5   0.0431   0.0506     C
C          0.5   0.0431   0.9494     C
H          0.5  0.07544  0.12412     H
H          0.5  0.07544  0.87588     H
H          0.5  0.07852  0.02974     H
H          0.5  0.07852  0.97026     H
H          0.5  0.92148  0.02974     H
H          0.5  0.92148  0.97026     H
H          0.5  0.92456  0.12412     H
H          0.5  0.92456  0.87588     H
C          0.5   0.9569   0.0506     C
C          0.5   0.9569   0.9494     C
C          0.5   0.9592    0.102     C
C          0.5   0.9592    0.898     C
C      0.52621      0.5      0.0     C
H      0.52974  0.42148      0.0     H
H      0.53166  0.57958      0.0     H
C       0.5408      0.0    0.398     C
C       0.5408      0.0    0.602     C
C       0.5431      0.0   0.4494     C
C       0.5431      0.0   0.5506     C
C       0.5506   0.4569      0.0     C
C       0.5506   0.5431      0.0     C
O      0.55142  0.05162  0.21039     O
O      0.55142  0.05162  0.78961     O
O      0.55142  0.94838  0.21039     O
O      0.55142  0.94838  0.78961     O
O      0.55162  0.05142  0.28961     O
O      0.55162  0.05142  0.71039     O
O      0.55162  0.94858  0.28961     O
O      0.55162  0.94858  0.71039     O
C      0.56663  0.06663     0.25     C
C      0.56663  0.06663     0.75     C
C      0.56663  0.93337     0.25     C
C      0.56663  0.93337     0.75     C
H      0.57544      0.0  0.37588     H
H      0.57544      0.0  0.62412     H
H      0.57852      0.0  0.47026     H
H      0.57958      0.0  0.53166     H
C        0.602   0.4592      0.0     C
C        0.602   0.5408      0.0     C
C      0.60427  0.10427     0.25     C
C      0.60427  0.10427     0.75     C
C      0.60427  0.89573     0.25     C
C      0.60427  0.89573     0.75     C
H      0.60838  0.10871  0.32869     H
H      0.60838  0.10871  0.67131     H
H      0.60838  0.89129  0.32869     H
H      0.60838  0.89129  0.67131     H
H      0.60871  0.10838  0.17131     H
H      0.60871  0.10838  0.82869     H
H      0.60871  0.89162  0.17131     H
H      0.60871  0.89162  0.82869     H
C      0.62257  0.12282  0.20721     C
C      0.62257  0.12282  0.79279     C
C      0.62257  0.87718  0.20721     C
C      0.62257  0.87718  0.79279     C
C      0.62282  0.12257  0.29279     C
C      0.62282  0.12257  0.70721     C
C      0.62282  0.87743  0.29279     C
C      0.62282  0.87743  0.70721     C
H      0.62412  0.42456      0.0     H
H      0.62412  0.57544      0.0     H
N      0.62589      0.5      0.0     N
C      0.65727  0.15846  0.20796     C
C      0.65727  0.15846  0.79204     C
C      0.65727  0.84154  0.20796     C
C      0.65727  0.84154  0.79204     C
C      0.65846  0.15727  0.29204     C
C      0.65846  0.15727  0.70796     C
C      0.65846  0.84273  0.29204     C
C      0.65846  0.84273  0.70796     C
H      0.67125  0.17427  0.17269     H
H      0.67125  0.17427  0.82731     H
H      0.67125  0.82573  0.17269     H
H      0.67125  0.82573  0.82731     H
H      0.67131  0.39162  0.10871     H
H      0.67131  0.39162  0.89129     H
H      0.67131  0.60838  0.10871     H
H      0.67131  0.60838  0.89129     H
H      0.67269  0.32573  0.17125     H
H      0.67269  0.32573  0.82875     H
H      0.67269  0.67427  0.17125     H
H      0.67269  0.67427  0.82875     H
H      0.67427  0.17125  0.32731     H
H      0.67427  0.17125  0.67269     H
H      0.67427  0.82875  0.32731     H
H      0.67427  0.82875  0.67269     H
C      0.67615  0.17615     0.25     C
C      0.67615  0.17615     0.75     C
C      0.67615  0.82385     0.25     C
C      0.67615  0.82385     0.75     C
H      0.68642  0.25078  0.18564     H
H      0.68642  0.25078  0.81436     H
H      0.68642  0.74922  0.18564     H
H      0.68642  0.74922  0.81436     H
Zn     0.69874      0.5      0.0    Zn
C      0.70721  0.37718  0.12257     C
C      0.70721  0.37718  0.87743     C
C      0.70721  0.62282  0.12257     C
C      0.70721  0.62282  0.87743     C
C      0.70796  0.34154  0.15727     C
C      0.70796  0.34154  0.84273     C
C      0.70796  0.65846  0.15727     C
C      0.70796  0.65846  0.84273     C
O      0.71039  0.44838  0.05142     O
O      0.71039  0.44838  0.94858     O
O      0.71039  0.55162  0.05142     O
O      0.71039  0.55162  0.94858     O
C      0.71414  0.21414     0.25     C
C      0.71414  0.21414     0.75     C
C      0.71414  0.78586     0.25     C
C      0.71414  0.78586     0.75     C
C      0.71509     0.25  0.21509     C
C      0.71509     0.25  0.78491     C
C      0.71509     0.75  0.21509     C
C      0.71509     0.75  0.78491     C
H      0.74922  0.18564  0.31358     H
H      0.74922  0.18564  0.68642     H
H      0.74922  0.81436  0.31358     H
H      0.74922  0.81436  0.68642     H
C         0.75  0.21509  0.28491     C
C         0.75  0.21509  0.71509     C
C         0.75  0.28586  0.21414     C
C         0.75  0.28586  0.78586     C
C         0.75  0.32385  0.17615     C
C         0.75  0.32385  0.82385     C
C         0.75  0.39573  0.10427     C
C         0.75  0.39573  0.89573     C
C         0.75  0.43337  0.06663     C
C         0.75  0.43337  0.93337     C
C         0.75  0.56663  0.06663     C
C         0.75  0.56663  0.93337     C
C         0.75  0.60427  0.10427     C
C         0.75  0.60427  0.89573     C
C         0.75  0.67615  0.17615     C
C         0.75  0.67615  0.82385     C
C         0.75  0.71414  0.21414     C
C         0.75  0.71414  0.78586     C
C         0.75  0.78491  0.28491     C
C         0.75  0.78491  0.71509     C
C      0.78491  0.28491     0.25     C
C      0.78491  0.28491     0.75     C
C      0.78491  0.71509     0.25     C
C      0.78491  0.71509     0.75     C
C      0.78586     0.25  0.28586     C
C      0.78586     0.25  0.71414     C
C      0.78586     0.75  0.28586     C
C      0.78586     0.75  0.71414     C
O      0.78961  0.44858  0.05162     O
O      0.78961  0.44858  0.94838     O
O      0.78961  0.55142  0.05162     O
O      0.78961  0.55142  0.94838     O
C      0.79204  0.34273  0.15846     C
C      0.79204  0.34273  0.84154     C
C      0.79204  0.65727  0.15846     C
C      0.79204  0.65727  0.84154     C
C      0.79279  0.37743  0.12282     C
C      0.79279  0.37743  0.87718     C
C      0.79279  0.62257  0.12282     C
C      0.79279  0.62257  0.87718     C
Zn     0.80126      0.5      0.0    Zn
H      0.81358  0.31436  0.24922     H
H      0.81358  0.31436  0.75078     H
H      0.81358  0.68564  0.24922     H
H      0.81358  0.68564  0.75078     H
C      0.82385     0.25  0.32385     C
C      0.82385     0.25  0.67615     C
C      0.82385     0.75  0.32385     C
C      0.82385     0.75  0.67615     C
H      0.82573  0.17269  0.32875     H
H      0.82573  0.17269  0.67125     H
H      0.82573  0.82731  0.32875     H
H      0.82573  0.82731  0.67125     H
H      0.82731  0.32875  0.17427     H
H      0.82731  0.32875  0.82573     H
H      0.82731  0.67125  0.17427     H
H      0.82731  0.67125  0.82573     H
H      0.82869  0.39129  0.10838     H
H      0.82869  0.39129  0.89162     H
H      0.82869  0.60871  0.10838     H
H      0.82869  0.60871  0.89162     H
H      0.82875  0.32731  0.32573     H
H      0.82875  0.32731  0.67427     H
H      0.82875  0.67269  0.32573     H
H      0.82875  0.67269  0.67427     H
C      0.84154  0.20796  0.34273     C
C      0.84154  0.20796  0.65727     C
C      0.84154  0.79204  0.34273     C
C      0.84154  0.79204  0.65727     C
C      0.84273  0.29204  0.34154     C
C      0.84273  0.29204  0.65846     C
C      0.84273  0.70796  0.34154     C
C      0.84273  0.70796  0.65846     C
N      0.87411      0.5      0.0     N
H      0.87588      0.5  0.07544     H
H      0.87588      0.5  0.92456     H
C      0.87718  0.20721  0.37743     C
C      0.87718  0.20721  0.62257     C
C      0.87718  0.79279  0.37743     C
C      0.87718  0.79279  0.62257     C
C      0.87743  0.29279  0.37718     C
C      0.87743  0.29279  0.62282     C
C      0.87743  0.70721  0.37718     C
C      0.87743  0.70721  0.62282     C
H      0.89129  0.32869  0.39162     H
H      0.89129  0.32869  0.60838     H
H      0.89129  0.67131  0.39162     H
H      0.89129  0.67131  0.60838     H
H      0.89162  0.17131  0.39129     H
H      0.89162  0.17131  0.60871     H
H      0.89162  0.82869  0.39129     H
H      0.89162  0.82869  0.60871     H
C      0.89573     0.25  0.39573     C
C      0.89573     0.25  0.60427     C
C      0.89573     0.75  0.39573     C
C      0.89573     0.75  0.60427     C
C        0.898      0.5   0.0408     C
C        0.898      0.5   0.9592     C
H      0.92148  0.02974      0.5     H
H      0.92148  0.97026      0.5     H
H      0.92456  0.12412      0.5     H
H      0.92456  0.87588      0.5     H
C      0.93337     0.25  0.43337     C
C      0.93337     0.25  0.56663     C
C      0.93337     0.75  0.43337     C
C      0.93337     0.75  0.56663     C
O      0.94838  0.21039  0.44858     O
O      0.94838  0.21039  0.55142     O
O      0.94838  0.78961  0.44858     O
O      0.94838  0.78961  0.55142     O
O      0.94858  0.28961  0.44838     O
O      0.94858  0.28961  0.55162     O
O      0.94858  0.71039  0.44838     O
O      0.94858  0.71039  0.55162     O
C       0.9494      0.5   0.0431     C
C       0.9494      0.5   0.9569     C
C       0.9569   0.0506      0.5     C
C       0.9569   0.9494      0.5     C
C       0.9592    0.102      0.5     C
C       0.9592    0.898      0.5     C
H      0.97026      0.5  0.07852     H
H      0.97026      0.5  0.92148     H
C      0.97379      0.5      0.0     C
