data_I
_chemical_name_common  '/home/zhangsd/repos/MofS-CGCNN/ML/data/TSD/clean_cifs/IZEQUB_clean'
_cell_length_a 27.26620
_cell_length_b 11.53960
_cell_length_c 13.96780
_cell_angle_alpha 90.00000
_cell_angle_beta  90.00000
_cell_angle_gamma 90.00000
_space_group_name_H-M_alt      'P 1'


loop_
_space_group_symop_operation_xyz
  'x, y, z' 

loop_
_atom_site_label
_atom_site_fract_x
_atom_site_fract_y
_atom_site_fract_z
_atom_site_type_symbol
Ni         0.0      0.0      0.5    Ni
Ni         0.0   0.1497  0.71863    Ni
O          0.0   0.1558   0.5705     O
O          0.0   0.8442   0.4295     O
Ni         0.0   0.8503  0.28137    Ni
O       0.0525   0.0623   0.4157     O
O       0.0525   0.9377   0.5843     O
O      0.05343   0.2783   0.7258     O
O      0.05343   0.7217   0.2742     O
O      0.05617   0.0326   0.7218     O
O      0.05617   0.9674   0.2782     O
C       0.0722   0.0371   0.3387     C
C       0.0722   0.9629   0.6613     C
O      0.07479   0.2853   0.5725     O
O      0.07479   0.7147   0.4275     O
C      0.08053   0.3098   0.6586     C
C      0.08053   0.6902   0.3414     C
H       0.1049   0.4239    0.819     H
H       0.1049   0.5761    0.181     H
C       0.1197   0.0988   0.3165     C
C       0.1197   0.9012   0.6835     C
C      0.12381   0.3858   0.6836     C
C      0.12381   0.6142   0.3164     C
H       0.1251   0.0463   0.1785     H
H       0.1251   0.9537   0.8215     H
H       0.1278   0.1722   0.4476     H
H       0.1278   0.8278   0.5524     H
C       0.1292   0.4372   0.7705     C
C       0.1292   0.5628   0.2295     C
C       0.1402   0.0932    0.227     C
C       0.1402   0.9068    0.773     C
C        0.142   0.1666   0.3849     C
C        0.142   0.8334   0.6151     C
H       0.1576   0.3689   0.5558     H
H       0.1576   0.6311   0.4442     H
C       0.1602   0.4036   0.6181     C
C       0.1602   0.5964   0.3819     C
C       0.1681   0.4934    0.209     C
C       0.1681   0.5066    0.791     C
H       0.1694   0.4552    0.148     H
H       0.1694   0.5448    0.852     H
C       0.1824   0.1543   0.2057     C
C       0.1824   0.8457   0.7943     C
C       0.1841   0.2262   0.3646     C
C       0.1841   0.7738   0.6354     C
H       0.1962   0.1496   0.1426     H
H       0.1962   0.8504   0.8574     H
H       0.1994   0.2716   0.4138     H
H       0.1994   0.7284   0.5862     H
C        0.201    0.471   0.6397     C
C        0.201    0.529   0.3603     C
C      0.20504   0.2223   0.2747     C
C      0.20504   0.7777   0.7253     C
C      0.20514   0.4768   0.2728     C
C      0.20514   0.5232   0.7272     C
H       0.2264   0.4809   0.5928     H
H       0.2264   0.5191   0.4072     H
C         0.25   0.2895     0.25     C
C         0.25   0.4066     0.25     C
C         0.25   0.5934     0.75     C
C         0.25   0.7105     0.75     C
H       0.2736   0.4809   0.9072     H
H       0.2736   0.5191   0.0928     H
C      0.29486   0.4768   0.2272     C
C      0.29486   0.5232   0.7728     C
C      0.29496   0.2223   0.2253     C
C      0.29496   0.7777   0.7747     C
C        0.299    0.471   0.8603     C
C        0.299    0.529   0.1397     C
H       0.3006   0.2716   0.0862     H
H       0.3006   0.7284   0.9138     H
H       0.3038   0.1496   0.3574     H
H       0.3038   0.8504   0.6426     H
C       0.3159   0.2262   0.1354     C
C       0.3159   0.7738   0.8646     C
C       0.3176   0.1543   0.2943     C
C       0.3176   0.8457   0.7057     C
H       0.3306   0.4552    0.352     H
H       0.3306   0.5448    0.648     H
C       0.3319   0.4934    0.291     C
C       0.3319   0.5066    0.709     C
C       0.3398   0.4036   0.8819     C
C       0.3398   0.5964   0.1181     C
H       0.3424   0.3689   0.9442     H
H       0.3424   0.6311   0.0558     H
C        0.358   0.1666   0.1151     C
C        0.358   0.8334   0.8849     C
C       0.3598   0.0932    0.273     C
C       0.3598   0.9068    0.727     C
C       0.3708   0.4372   0.7295     C
C       0.3708   0.5628   0.2705     C
H       0.3722   0.1722   0.0524     H
H       0.3722   0.8278   0.9476     H
H       0.3749   0.0463   0.3215     H
H       0.3749   0.9537   0.6785     H
C      0.37619   0.3858   0.8164     C
C      0.37619   0.6142   0.1836     C
C       0.3803   0.0988   0.1835     C
C       0.3803   0.9012   0.8165     C
H       0.3951   0.4239    0.681     H
H       0.3951   0.5761    0.319     H
C      0.41947   0.3098   0.8414     C
C      0.41947   0.6902   0.1586     C
O      0.42521   0.2853   0.9275     O
O      0.42521   0.7147   0.0725     O
C       0.4278   0.0371   0.1613     C
C       0.4278   0.9629   0.8387     C
O      0.44383   0.0326   0.7782     O
O      0.44383   0.9674   0.2218     O
O      0.44657   0.2783   0.7742     O
O      0.44657   0.7217   0.2258     O
O       0.4475   0.0623   0.0843     O
O       0.4475   0.9377   0.9157     O
Ni         0.5      0.0      0.0    Ni
Ni         0.5   0.1497  0.78137    Ni
O          0.5   0.1558   0.9295     O
O          0.5   0.8442   0.0705     O
Ni         0.5   0.8503  0.21863    Ni
O       0.5525   0.0623   0.0843     O
O       0.5525   0.9377   0.9157     O
O      0.55343   0.2783   0.7742     O
O      0.55343   0.7217   0.2258     O
O      0.55617   0.0326   0.7782     O
O      0.55617   0.9674   0.2218     O
C       0.5722   0.0371   0.1613     C
C       0.5722   0.9629   0.8387     C
O      0.57479   0.2853   0.9275     O
O      0.57479   0.7147   0.0725     O
C      0.58053   0.3098   0.8414     C
C      0.58053   0.6902   0.1586     C
H       0.6049   0.4239    0.681     H
H       0.6049   0.5761    0.319     H
C       0.6197   0.0988   0.1835     C
C       0.6197   0.9012   0.8165     C
C      0.62381   0.3858   0.8164     C
C      0.62381   0.6142   0.1836     C
H       0.6251   0.0463   0.3215     H
H       0.6251   0.9537   0.6785     H
H       0.6278   0.1722   0.0524     H
H       0.6278   0.8278   0.9476     H
C       0.6292   0.4372   0.7295     C
C       0.6292   0.5628   0.2705     C
C       0.6402   0.0932    0.273     C
C       0.6402   0.9068    0.727     C
C        0.642   0.1666   0.1151     C
C        0.642   0.8334   0.8849     C
H       0.6576   0.3689   0.9442     H
H       0.6576   0.6311   0.0558     H
C       0.6602   0.4036   0.8819     C
C       0.6602   0.5964   0.1181     C
C       0.6681   0.4934    0.291     C
C       0.6681   0.5066    0.709     C
H       0.6694   0.4552    0.352     H
H       0.6694   0.5448    0.648     H
C       0.6824   0.1543   0.2943     C
C       0.6824   0.8457   0.7057     C
C       0.6841   0.2262   0.1354     C
C       0.6841   0.7738   0.8646     C
H       0.6962   0.1496   0.3574     H
H       0.6962   0.8504   0.6426     H
H       0.6994   0.2716   0.0862     H
H       0.6994   0.7284   0.9138     H
C        0.701    0.471   0.8603     C
C        0.701    0.529   0.1397     C
C      0.70504   0.2223   0.2253     C
C      0.70504   0.7777   0.7747     C
C      0.70514   0.4768   0.2272     C
C      0.70514   0.5232   0.7728     C
H       0.7264   0.4809   0.9072     H
H       0.7264   0.5191   0.0928     H
C         0.75   0.2895     0.25     C
C         0.75   0.4066     0.25     C
C         0.75   0.5934     0.75     C
C         0.75   0.7105     0.75     C
H       0.7736   0.4809   0.5928     H
H       0.7736   0.5191   0.4072     H
C      0.79486   0.4768   0.2728     C
C      0.79486   0.5232   0.7272     C
C      0.79496   0.2223   0.2747     C
C      0.79496   0.7777   0.7253     C
C        0.799    0.471   0.6397     C
C        0.799    0.529   0.3603     C
H       0.8006   0.2716   0.4138     H
H       0.8006   0.7284   0.5862     H
H       0.8038   0.1496   0.1426     H
H       0.8038   0.8504   0.8574     H
C       0.8159   0.2262   0.3646     C
C       0.8159   0.7738   0.6354     C
C       0.8176   0.1543   0.2057     C
C       0.8176   0.8457   0.7943     C
H       0.8306   0.4552    0.148     H
H       0.8306   0.5448    0.852     H
C       0.8319   0.4934    0.209     C
C       0.8319   0.5066    0.791     C
C       0.8398   0.4036   0.6181     C
C       0.8398   0.5964   0.3819     C
H       0.8424   0.3689   0.5558     H
H       0.8424   0.6311   0.4442     H
C        0.858   0.1666   0.3849     C
C        0.858   0.8334   0.6151     C
C       0.8598   0.0932    0.227     C
C       0.8598   0.9068    0.773     C
C       0.8708   0.4372   0.7705     C
C       0.8708   0.5628   0.2295     C
H       0.8722   0.1722   0.4476     H
H       0.8722   0.8278   0.5524     H
H       0.8749   0.0463   0.1785     H
H       0.8749   0.9537   0.8215     H
C      0.87619   0.3858   0.6836     C
C      0.87619   0.6142   0.3164     C
C       0.8803   0.0988   0.3165     C
C       0.8803   0.9012   0.6835     C
H       0.8951   0.4239    0.819     H
H       0.8951   0.5761    0.181     H
C      0.91947   0.3098   0.6586     C
C      0.91947   0.6902   0.3414     C
O      0.92521   0.2853   0.5725     O
O      0.92521   0.7147   0.4275     O
C       0.9278   0.0371   0.3387     C
C       0.9278   0.9629   0.6613     C
O      0.94383   0.0326   0.7218     O
O      0.94383   0.9674   0.2782     O
O      0.94657   0.2783   0.7258     O
O      0.94657   0.7217   0.2742     O
O       0.9475   0.0623   0.4157     O
O       0.9475   0.9377   0.5843     O
