data_I
_chemical_name_common  '/home/zhangsd/repos/MofS-CGCNN/ML/data/TSD/clean_cifs/IZERAI_clean'
_cell_length_a 26.25000
_cell_length_b 26.25000
_cell_length_c 11.24360
_cell_angle_alpha 90.00000
_cell_angle_beta  90.00000
_cell_angle_gamma 120.00000
_space_group_name_H-M_alt      'P 1'


loop_
_space_group_symop_operation_xyz
  'x, y, z' 

loop_
_atom_site_label
_atom_site_fract_x
_atom_site_fract_y
_atom_site_fract_z
_atom_site_type_symbol
C          0.0      0.5   0.4405     C
C          0.0      0.5   0.5595     C
H       0.0405    0.465    0.237     H
H       0.0405    0.465    0.763     H
H       0.0405   0.5755    0.237     H
H       0.0405   0.5755    0.763     H
C      0.05548  0.52774   0.3686     C
C      0.05548  0.52774   0.6314     C
C       0.0666   0.4965   0.2886     C
C       0.0666   0.4965   0.7114     C
C       0.0666   0.5701   0.2886     C
C       0.0666   0.5701   0.7114     C
C       0.0939   0.5067   0.3774     C
C       0.0939   0.5067   0.6226     C
C       0.0939   0.5872   0.3774     C
C       0.0939   0.5872   0.6226     C
H       0.1042   0.4898   0.4423     H
H       0.1042   0.4898   0.5577     H
H       0.1042   0.6144   0.4423     H
H       0.1042   0.6144   0.5577     H
H       0.1059   0.4957   0.1573     H
H       0.1059   0.4957   0.8427     H
H       0.1059   0.6102   0.1573     H
H       0.1059   0.6102   0.8427     H
C       0.1181   0.5216   0.2247     C
C       0.1181   0.5216   0.7753     C
C       0.1181   0.5965   0.2247     C
C       0.1181   0.5965   0.7753     C
C       0.1457   0.5317   0.3073     C
C       0.1457   0.5317   0.6927     C
C       0.1457    0.614   0.3073     C
C       0.1457    0.614   0.6927     C
C      0.15748  0.57874   0.2323     C
C      0.15748  0.57874   0.7677     C
H       0.1705   0.5216   0.3523     H
H       0.1705   0.5216   0.6477     H
H       0.1705   0.6489   0.3523     H
H       0.1705   0.6489   0.6477     H
C       0.2124   0.6062   0.1562     C
C       0.2124   0.6062   0.8438     C
O      0.23215   0.5737   0.1287     O
O      0.23215   0.5737   0.8713     O
O      0.23215  0.65845   0.1287     O
O      0.23215  0.65845   0.8713     O
Ni     0.28992  0.57984      0.0    Ni
Ni     0.28992  0.71008      0.0    Ni
O      0.33333  0.66667      0.0     O
O      0.34155   0.5737   0.1287     O
O      0.34155   0.5737   0.8713     O
O      0.34155  0.76785   0.1287     O
O      0.34155  0.76785   0.8713     O
H       0.3511   0.5216   0.3523     H
H       0.3511   0.5216   0.6477     H
H       0.3511   0.8295   0.3523     H
H       0.3511   0.8295   0.6477     H
H       0.3856   0.4898   0.4423     H
H       0.3856   0.4898   0.5577     H
H       0.3856   0.8958   0.4423     H
H       0.3856   0.8958   0.5577     H
C        0.386   0.5317   0.3073     C
C        0.386   0.5317   0.6927     C
C        0.386   0.8543   0.3073     C
C        0.386   0.8543   0.6927     C
H       0.3898   0.4957   0.1573     H
H       0.3898   0.4957   0.8427     H
H       0.3898   0.8941   0.1573     H
H       0.3898   0.8941   0.8427     H
C       0.3938   0.6062   0.1562     C
C       0.3938   0.6062   0.8438     C
C       0.3938   0.7876   0.1562     C
C       0.3938   0.7876   0.8438     C
C       0.4035   0.5216   0.2247     C
C       0.4035   0.5216   0.7753     C
C       0.4035   0.8819   0.2247     C
C       0.4035   0.8819   0.7753     C
C       0.4128   0.5067   0.3774     C
C       0.4128   0.5067   0.6226     C
C       0.4128   0.9061   0.3774     C
C       0.4128   0.9061   0.6226     C
Ni     0.42016  0.71008      0.0    Ni
C      0.42126  0.57874   0.2323     C
C      0.42126  0.57874   0.7677     C
C      0.42126  0.84252   0.2323     C
C      0.42126  0.84252   0.7677     C
H       0.4245    0.465    0.237     H
H       0.4245    0.465    0.763     H
H       0.4245   0.9595    0.237     H
H       0.4245   0.9595    0.763     H
O       0.4263  0.65845   0.1287     O
O       0.4263  0.65845   0.8713     O
O       0.4263  0.76785   0.1287     O
O       0.4263  0.76785   0.8713     O
C       0.4299   0.4965   0.2886     C
C       0.4299   0.4965   0.7114     C
C       0.4299   0.9334   0.2886     C
C       0.4299   0.9334   0.7114     C
H        0.465   0.0405    0.237     H
H        0.465   0.0405    0.763     H
H        0.465   0.4245    0.237     H
H        0.465   0.4245    0.763     H
C       0.4683    0.614   0.3073     C
C       0.4683    0.614   0.6927     C
C       0.4683   0.8543   0.3073     C
C       0.4683   0.8543   0.6927     C
C      0.47226  0.52774   0.3686     C
C      0.47226  0.52774   0.6314     C
C      0.47226  0.94452   0.3686     C
C      0.47226  0.94452   0.6314     C
C       0.4784   0.5965   0.2247     C
C       0.4784   0.5965   0.7753     C
H       0.4784   0.6489   0.3523     H
H       0.4784   0.6489   0.6477     H
H       0.4784   0.8295   0.3523     H
H       0.4784   0.8295   0.6477     H
C       0.4784   0.8819   0.2247     C
C       0.4784   0.8819   0.7753     C
H       0.4898   0.1042   0.4423     H
H       0.4898   0.1042   0.5577     H
H       0.4898   0.3856   0.4423     H
H       0.4898   0.3856   0.5577     H
C       0.4933   0.5872   0.3774     C
C       0.4933   0.5872   0.6226     C
C       0.4933   0.9061   0.3774     C
C       0.4933   0.9061   0.6226     C
H       0.4957   0.1059   0.1573     H
H       0.4957   0.1059   0.8427     H
H       0.4957   0.3898   0.1573     H
H       0.4957   0.3898   0.8427     H
C       0.4965   0.0666   0.2886     C
C       0.4965   0.0666   0.7114     C
C       0.4965   0.4299   0.2886     C
C       0.4965   0.4299   0.7114     C
C          0.5      0.0   0.4405     C
C          0.5      0.0   0.5595     C
C          0.5      0.5   0.4405     C
C          0.5      0.5   0.5595     C
C       0.5035   0.5701   0.2886     C
C       0.5035   0.5701   0.7114     C
C       0.5035   0.9334   0.2886     C
C       0.5035   0.9334   0.7114     C
H       0.5043   0.6102   0.1573     H
H       0.5043   0.6102   0.8427     H
H       0.5043   0.8941   0.1573     H
H       0.5043   0.8941   0.8427     H
C       0.5067   0.0939   0.3774     C
C       0.5067   0.0939   0.6226     C
C       0.5067   0.4128   0.3774     C
C       0.5067   0.4128   0.6226     C
H       0.5102   0.6144   0.4423     H
H       0.5102   0.6144   0.5577     H
H       0.5102   0.8958   0.4423     H
H       0.5102   0.8958   0.5577     H
C       0.5216   0.1181   0.2247     C
C       0.5216   0.1181   0.7753     C
H       0.5216   0.1705   0.3523     H
H       0.5216   0.1705   0.6477     H
H       0.5216   0.3511   0.3523     H
H       0.5216   0.3511   0.6477     H
C       0.5216   0.4035   0.2247     C
C       0.5216   0.4035   0.7753     C
C      0.52774  0.05548   0.3686     C
C      0.52774  0.05548   0.6314     C
C      0.52774  0.47226   0.3686     C
C      0.52774  0.47226   0.6314     C
C       0.5317   0.1457   0.3073     C
C       0.5317   0.1457   0.6927     C
C       0.5317    0.386   0.3073     C
C       0.5317    0.386   0.6927     C
H        0.535   0.5755    0.237     H
H        0.535   0.5755    0.763     H
H        0.535   0.9595    0.237     H
H        0.535   0.9595    0.763     H
C       0.5701   0.0666   0.2886     C
C       0.5701   0.0666   0.7114     C
C       0.5701   0.5035   0.2886     C
C       0.5701   0.5035   0.7114     C
O       0.5737  0.23215   0.1287     O
O       0.5737  0.23215   0.8713     O
O       0.5737  0.34155   0.1287     O
O       0.5737  0.34155   0.8713     O
H       0.5755   0.0405    0.237     H
H       0.5755   0.0405    0.763     H
H       0.5755    0.535    0.237     H
H       0.5755    0.535    0.763     H
C      0.57874  0.15748   0.2323     C
C      0.57874  0.15748   0.7677     C
C      0.57874  0.42126   0.2323     C
C      0.57874  0.42126   0.7677     C
Ni     0.57984  0.28992      0.0    Ni
C       0.5872   0.0939   0.3774     C
C       0.5872   0.0939   0.6226     C
C       0.5872   0.4933   0.3774     C
C       0.5872   0.4933   0.6226     C
C       0.5965   0.1181   0.2247     C
C       0.5965   0.1181   0.7753     C
C       0.5965   0.4784   0.2247     C
C       0.5965   0.4784   0.7753     C
C       0.6062   0.2124   0.1562     C
C       0.6062   0.2124   0.8438     C
C       0.6062   0.3938   0.1562     C
C       0.6062   0.3938   0.8438     C
H       0.6102   0.1059   0.1573     H
H       0.6102   0.1059   0.8427     H
H       0.6102   0.5043   0.1573     H
H       0.6102   0.5043   0.8427     H
C        0.614   0.1457   0.3073     C
C        0.614   0.1457   0.6927     C
C        0.614   0.4683   0.3073     C
C        0.614   0.4683   0.6927     C
H       0.6144   0.1042   0.4423     H
H       0.6144   0.1042   0.5577     H
H       0.6144   0.5102   0.4423     H
H       0.6144   0.5102   0.5577     H
H       0.6489   0.1705   0.3523     H
H       0.6489   0.1705   0.6477     H
H       0.6489   0.4784   0.3523     H
H       0.6489   0.4784   0.6477     H
O      0.65845  0.23215   0.1287     O
O      0.65845  0.23215   0.8713     O
O      0.65845   0.4263   0.1287     O
O      0.65845   0.4263   0.8713     O
O      0.66667  0.33333      0.0     O
Ni     0.71008  0.28992      0.0    Ni
Ni     0.71008  0.42016      0.0    Ni
O      0.76785  0.34155   0.1287     O
O      0.76785  0.34155   0.8713     O
O      0.76785   0.4263   0.1287     O
O      0.76785   0.4263   0.8713     O
C       0.7876   0.3938   0.1562     C
C       0.7876   0.3938   0.8438     C
H       0.8295   0.3511   0.3523     H
H       0.8295   0.3511   0.6477     H
H       0.8295   0.4784   0.3523     H
H       0.8295   0.4784   0.6477     H
C      0.84252  0.42126   0.2323     C
C      0.84252  0.42126   0.7677     C
C       0.8543    0.386   0.3073     C
C       0.8543    0.386   0.6927     C
C       0.8543   0.4683   0.3073     C
C       0.8543   0.4683   0.6927     C
C       0.8819   0.4035   0.2247     C
C       0.8819   0.4035   0.7753     C
C       0.8819   0.4784   0.2247     C
C       0.8819   0.4784   0.7753     C
H       0.8941   0.3898   0.1573     H
H       0.8941   0.3898   0.8427     H
H       0.8941   0.5043   0.1573     H
H       0.8941   0.5043   0.8427     H
H       0.8958   0.3856   0.4423     H
H       0.8958   0.3856   0.5577     H
H       0.8958   0.5102   0.4423     H
H       0.8958   0.5102   0.5577     H
C       0.9061   0.4128   0.3774     C
C       0.9061   0.4128   0.6226     C
C       0.9061   0.4933   0.3774     C
C       0.9061   0.4933   0.6226     C
C       0.9334   0.4299   0.2886     C
C       0.9334   0.4299   0.7114     C
C       0.9334   0.5035   0.2886     C
C       0.9334   0.5035   0.7114     C
C      0.94452  0.47226   0.3686     C
C      0.94452  0.47226   0.6314     C
H       0.9595   0.4245    0.237     H
H       0.9595   0.4245    0.763     H
H       0.9595    0.535    0.237     H
H       0.9595    0.535    0.763     H
