data_I
_chemical_name_common  '/home/zhangsd/repos/MofS-CGCNN/ML/data/TSD/clean_cifs/IZEVAM_clean'
_cell_length_a  9.42180
_cell_length_b  9.42180
_cell_length_c 15.65780
_cell_angle_alpha 90.00000
_cell_angle_beta  90.00000
_cell_angle_gamma 120.00000
_space_group_name_H-M_alt      'P 1'


loop_
_space_group_symop_operation_xyz
  'x, y, z' 

loop_
_atom_site_label
_atom_site_fract_x
_atom_site_fract_y
_atom_site_fract_z
_atom_site_type_symbol
Cl       0.051   0.5255   0.8496    Cl
Cu      0.0976   0.5488   0.7005    Cu
H       0.1176    0.464   0.0582     H
H       0.1176   0.6536   0.0582     H
N        0.157   0.5785   0.1572     N
C       0.1657  0.58285   0.0611     C
Cl      0.1914   0.3828   0.6427    Cl
Cl      0.1914   0.8086   0.6427    Cl
H      0.19315   0.3863   0.1737     H
H      0.19315  0.80685   0.1737     H
C       0.2509   0.5018   0.1874     C
C       0.2509   0.7491   0.1874     C
H      0.25645   0.5129   0.2485     H
H      0.25645  0.74355   0.2485     H
N      0.33333  0.66667    0.028     N
Cu     0.33333  0.66667   0.8902    Cu
H       0.3464    0.464   0.0582     H
H       0.3464   0.8824   0.0582     H
Cl      0.3828   0.1914   0.1427    Cl
H       0.3863  0.19315   0.6737     H
C      0.41715  0.58285   0.0611     C
C      0.41715   0.8343   0.0611     C
N       0.4215   0.5785   0.1572     N
N       0.4215    0.843   0.1572     N
Cu      0.4512   0.5488   0.7005    Cu
Cu      0.4512   0.9024   0.7005    Cu
H        0.464   0.1176   0.5582     H
H        0.464   0.3464   0.5582     H
Cl      0.4745   0.5255   0.8496    Cl
Cl      0.4745    0.949   0.8496    Cl
H       0.4871  0.74355   0.2485     H
C       0.4982   0.7491   0.1874     C
C       0.5018   0.2509   0.6874     C
H       0.5129  0.25645   0.7485     H
Cl      0.5255    0.051   0.3496    Cl
Cl      0.5255   0.4745   0.3496    Cl
H        0.536   0.6536   0.0582     H
H        0.536   0.8824   0.0582     H
Cu      0.5488   0.0976   0.2005    Cu
Cu      0.5488   0.4512   0.2005    Cu
N       0.5785    0.157   0.6572     N
N       0.5785   0.4215   0.6572     N
C      0.58285   0.1657   0.5611     C
C      0.58285  0.41715   0.5611     C
H       0.6137  0.80685   0.1737     H
Cl      0.6172   0.8086   0.6427    Cl
H       0.6536   0.1176   0.5582     H
H       0.6536    0.536   0.5582     H
Cu     0.66667  0.33333   0.3902    Cu
N      0.66667  0.33333    0.528     N
H      0.74355  0.25645   0.7485     H
H      0.74355   0.4871   0.7485     H
C       0.7491   0.2509   0.6874     C
C       0.7491   0.4982   0.6874     C
H      0.80685  0.19315   0.6737     H
H      0.80685   0.6137   0.6737     H
Cl      0.8086   0.1914   0.1427    Cl
Cl      0.8086   0.6172   0.1427    Cl
C       0.8343  0.41715   0.5611     C
N        0.843   0.4215   0.6572     N
H       0.8824   0.3464   0.5582     H
H       0.8824    0.536   0.5582     H
Cu      0.9024   0.4512   0.2005    Cu
Cl       0.949   0.4745   0.3496    Cl
