data_I
_chemical_name_common  '/home/zhangsd/repos/MofS-CGCNN/ML/data/TSD/clean_cifs/JADMAF_clean'
_cell_length_a 47.02000
_cell_length_b 10.77000
_cell_length_c 23.78000
_cell_angle_alpha 90.00000
_cell_angle_beta  94.87000
_cell_angle_gamma 90.00000
_space_group_name_H-M_alt      'P 1'


loop_
_space_group_symop_operation_xyz
  'x, y, z' 

loop_
_atom_site_label
_atom_site_fract_x
_atom_site_fract_y
_atom_site_fract_z
_atom_site_type_symbol
Co     0.00838  0.33456  0.56975    Co
Co     0.00838  0.66544  0.06975    Co
H       0.0104   0.2212   0.4525     H
H       0.0104   0.7788   0.9525     H
O      0.01211   0.4439    0.336     O
O      0.01211   0.5561    0.836     O
O      0.01816   0.1849   0.9569     O
O      0.01816   0.8151   0.4569     O
H       0.0223   0.0673   0.5966     H
H       0.0223   0.9327   0.0966     H
O      0.02262   0.3726   0.8769     O
O      0.02262   0.6274   0.3769     O
O      0.02853   0.3601   0.9998     O
O      0.02853   0.6399   0.4998     O
C      0.02855   0.4678   0.8473     C
C      0.02855   0.5322   0.3473     C
C       0.0295   0.2444   0.4581     C
C       0.0295   0.7556   0.9581     C
C       0.0336   0.1043    0.626     C
C       0.0336   0.8957    0.126     C
N      0.03403   0.2285   0.6289     N
N      0.03403   0.7715   0.1289     N
C      0.03452   0.2474   0.9913     C
C      0.03452   0.7526   0.4913     C
N      0.03741   0.3111   0.5049     N
N      0.03741   0.6889   0.0049     N
H       0.0401   0.1626   0.3869     H
H       0.0401   0.8374   0.8869     H
C      0.04703   0.2081   0.4183     C
C      0.04703   0.7919   0.9183     C
H       0.0476   0.0579    0.161     H
H       0.0476   0.9421    0.661     H
C        0.049    0.028   0.6643     C
C        0.049    0.972   0.1643     C
H       0.0499   0.4191   0.2595     H
H       0.0499   0.5809   0.7595     H
C      0.05094   0.2755   0.6713     C
C      0.05094   0.7245   0.1713     C
H       0.0518   0.3616   0.6742     H
H       0.0518   0.6384   0.1742     H
H       0.0567   0.0275   0.9786     H
H       0.0567   0.9725   0.4786     H
C      0.05843   0.4646   0.8257     C
C      0.05843   0.5354   0.3257     C
C      0.05901   0.1868   0.0239     C
C      0.05901   0.8132   0.5239     C
C      0.06397   0.4687   0.2779     C
C      0.06397   0.5313   0.7779     C
C       0.0648   0.3462   0.5102     C
C       0.0648   0.6538   0.0102     C
C      0.06639   0.0799   0.7069     C
C      0.06639   0.9201   0.2069     C
C      0.06646   0.0659   0.0096     C
C      0.06646   0.9341   0.5096     C
C      0.06741   0.2074   0.7117     C
C      0.06741   0.7926   0.2117     C
H       0.0708   0.3939   0.5416     H
H       0.0708   0.6061   0.0416     H
H       0.0717   0.3257   0.0771     H
H       0.0717   0.6743   0.5771     H
H       0.0733   0.1457   0.3223     H
H       0.0733   0.8543   0.8223     H
C      0.07522   0.2431   0.0686     C
C      0.07522   0.7569   0.5686     C
C      0.07581   0.2414   0.4262     C
C      0.07581   0.7586   0.9262     C
H       0.0761   0.3485   0.8844     H
H       0.0761   0.6515   0.3844     H
H       0.0772   0.0442   0.3698     H
H       0.0772   0.9558   0.8698     H
H       0.0786   0.2462   0.7406     H
H       0.0786   0.7538   0.2406     H
C      0.07997   0.3939   0.8527     C
C      0.07997   0.6061   0.3527     C
O       0.0813   0.0004   0.7428     O
O       0.0813   0.9996   0.2428     O
C       0.0851   0.3172   0.4727     C
C       0.0851   0.6828   0.9727     C
C       0.0868   0.1102   0.3511     C
C       0.0868   0.8898   0.8511     C
C      0.08809    0.002   0.0407     C
C      0.08809    0.998   0.5407     C
H       0.0905   0.1097     0.81     H
H       0.0905   0.8903     0.31     H
C        0.091    0.477   0.2577     C
C        0.091    0.523   0.7577     C
H       0.0928   0.0784   0.5307     H
H       0.0928   0.9216   0.0307     H
H       0.0947    0.434   0.2252     H
H       0.0947    0.566   0.7252     H
O      0.09639   0.2055   0.3919     O
O      0.09639   0.7945   0.8919     O
C      0.09649   0.1794   0.1009     C
C      0.09649   0.8206   0.6009     C
C      0.10059   0.0524   0.7873     C
C      0.10059   0.9476   0.2873     C
C      0.10248    0.059   0.0867     C
C      0.10248    0.941   0.5867     C
H       0.1038   0.3463    0.478     H
H       0.1038   0.6537    0.978     H
H       0.1065   0.2175   0.1316     H
H       0.1065   0.7825   0.6316     H
C      0.10688   0.3879   0.8345     C
C      0.10688   0.6121   0.3345     C
H       0.1111   0.1911   0.2615     H
H       0.1111   0.8089   0.7615     H
C      0.11212   0.4521   0.7852     C
C      0.11212   0.5479   0.2852     C
C      0.11257   0.0575   0.3237     C
C      0.11257   0.9425   0.8237     C
H        0.116   0.0968   0.7714     H
H        0.116   0.9032   0.2714     H
H       0.1188   0.2595   0.9675     H
H       0.1188   0.7405   0.4675     H
H       0.1212   0.3424   0.8543     H
H       0.1212   0.6576   0.3543     H
O      0.12259   0.0028   0.6227     O
O      0.12259   0.9972   0.1227     O
H       0.1248   0.2265   0.6571     H
H       0.1248   0.7735   0.1571     H
C      0.12559   0.1543   0.2878     C
C      0.12559   0.8457   0.7878     C
O      0.12621   0.0856   0.9002     O
O      0.12621   0.9144   0.4002     O
H       0.1345   0.2195   0.3113     H
H       0.1345   0.7805   0.8113     H
C       0.1364   0.2154   0.6277     C
C       0.1364   0.7846   0.1277     C
C      0.13661    0.015   0.3666     C
C      0.13661    0.985   0.8666     C
C       0.1372    0.103   0.6014     C
C       0.1372    0.897   0.1014     C
C      0.13767   0.2328   0.9707     C
C      0.13767   0.7672   0.4707     C
O      0.13826   0.4431   0.7606     O
O      0.13826   0.5569   0.2606     O
H       0.1429   0.0837    0.391     H
H       0.1429   0.9163    0.891     H
C      0.14662   0.1359   0.9367     C
C      0.14662   0.8641   0.4367     C
O      0.14676   0.0906   0.2576     O
O      0.14676   0.9094   0.7576     O
H       0.1493   0.3302   0.2341     H
H       0.1493   0.6698   0.7341     H
H       0.1512   0.3495   0.0324     H
H       0.1512   0.6505   0.5324     H
H       0.1521   0.3881   0.6292     H
H       0.1521   0.6119   0.1292     H
C      0.15269   0.3122   0.6107     C
C      0.15269   0.6878   0.1107     C
H       0.1527   0.0133   0.8472     H
H       0.1527   0.9867   0.3472     H
C       0.1536   0.0869    0.558     C
C       0.1536   0.9131    0.058     C
H       0.1541   0.0099   0.5404     H
H       0.1541   0.9901   0.0404     H
C      0.15763   0.2877   0.0093     C
C      0.15763   0.7123   0.5093     C
C      0.16075   0.2809   0.2132     C
C      0.16075   0.7191   0.7132     C
C      0.16182   0.3932   0.7925     C
C      0.16182   0.6068   0.2925     C
C      0.16206   0.1544   0.2215     C
C      0.16206   0.8456   0.7215     C
H       0.1625   0.2345   0.7474     H
H       0.1625   0.7655   0.2474     H
H       0.1695   0.4665   0.3468     H
H       0.1695   0.5335   0.8468     H
C       0.1699   0.1835   0.5395     C
C       0.1699   0.2994   0.5667     C
C       0.1699   0.7006   0.0667     C
C       0.1699   0.8165   0.0395     C
C       0.1721   0.2783   0.7769     C
C       0.1721   0.7217   0.2769     C
C      0.17503   0.1041   0.9432     C
C      0.17503   0.8959   0.4432     C
H       0.1752   0.4176   0.1682     H
H       0.1752   0.5824   0.6682     H
C       0.1761   0.4563   0.8362     C
C       0.1761   0.5437   0.3362     C
C       0.1765   0.3322   0.1737     C
C       0.1765   0.6678   0.6737     C
C       0.1804   0.0862   0.1912     C
C       0.1804   0.9138   0.6912     C
H       0.1808   0.1717   0.5091     H
H       0.1808   0.8283   0.0091     H
H       0.1817   0.0404   0.9215     H
H       0.1817   0.9596   0.4215     H
H       0.1826   0.0013   0.1971     H
H       0.1826   0.9987   0.6971     H
N      0.18542   0.2584   0.0157     N
N      0.18542   0.7416   0.5157     N
C       0.1891   0.4015    0.549     C
C       0.1891   0.5985    0.049     C
O      0.19166   0.4942   0.5818     O
O      0.19166   0.5058   0.0818     O
N      0.19394   0.2669   0.1417     N
N      0.19394   0.7331   0.6417     N
C      0.19402   0.1663   0.9822     C
C      0.19402   0.8337   0.4822     C
C       0.1954   0.1459    0.152     C
C       0.1954   0.8541    0.652     C
C      0.19636   0.2286   0.8047     C
C      0.19636   0.7714   0.3047     C
O       0.2006   0.3904   0.5038     O
O       0.2006   0.6096   0.0038     O
C       0.2009   0.4051   0.8652     C
C       0.2009   0.5949   0.3652     C
H        0.203   0.1517   0.7938     H
H        0.203   0.8483   0.2938     H
H       0.2074   0.0984   0.1314     H
H       0.2074   0.9016   0.6314     H
H       0.2103    0.448   0.8952     H
H       0.2103    0.552   0.3952     H
C       0.2111   0.2924   0.8491     C
C       0.2111   0.7076   0.3491     C
H       0.2132   0.1436   0.9852     H
H       0.2132   0.8564   0.4852     H
Co     0.21547  0.34792  0.07485    Co
Co     0.21547  0.65208  0.57485    Co
C      0.23765   0.2371   0.8798     C
C      0.23765   0.7629   0.3798     C
O      0.24668   0.1336   0.8645     O
O      0.24668   0.8664   0.3645     O
O       0.2481   0.2021   0.0811     O
O       0.2481   0.7979   0.5811     O
O       0.2519   0.2979   0.9189     O
O       0.2519   0.7021   0.4189     O
O      0.25332   0.3664   0.1355     O
O      0.25332   0.6336   0.6355     O
C      0.26235   0.2629   0.1202     C
C      0.26235   0.7371   0.6202     C
Co     0.28453  0.15208  0.92515    Co
Co     0.28453  0.84792  0.42515    Co
H       0.2868   0.3564   0.0148     H
H       0.2868   0.6436   0.5148     H
C       0.2889   0.2076   0.1509     C
C       0.2889   0.7924   0.6509     C
H       0.2897    0.052   0.1048     H
H       0.2897    0.948   0.6048     H
H       0.2926   0.4016   0.8686     H
H       0.2926   0.5984   0.3686     H
H        0.297   0.3483   0.2062     H
H        0.297   0.6517   0.7062     H
C       0.2991   0.0949   0.1348     C
C       0.2991   0.9051   0.6348     C
O       0.2994   0.1096   0.4962     O
O       0.2994   0.8904   0.9962     O
C      0.30364   0.2714   0.1953     C
C      0.30364   0.7286   0.6953     C
C       0.3046   0.3541    0.848     C
C       0.3046   0.6459    0.348     C
C      0.30598   0.3337   0.0178     C
C      0.30598   0.6663   0.5178     C
N      0.30606   0.2331   0.8583     N
N      0.30606   0.7669   0.3583     N
O      0.30834   0.0058   0.4182     O
O      0.30834   0.9942   0.9182     O
C       0.3109   0.0985    0.451     C
C       0.3109   0.9015    0.951     C
N      0.31458   0.2416   0.9843     N
N      0.31458   0.7584   0.4843     N
H       0.3174   0.4987   0.8029     H
H       0.3174   0.5013   0.3029     H
H       0.3183   0.4596   0.0785     H
H       0.3183   0.5404   0.5785     H
H       0.3192   0.3283   0.4909     H
H       0.3192   0.6717   0.9909     H
C       0.3196   0.4138   0.8088     C
C       0.3196   0.5862   0.3088     C
C       0.3235   0.1678   0.8263     C
C       0.3235   0.8322   0.3263     C
C       0.3239   0.0437   0.1638     C
C       0.3239   0.9563   0.6638     C
H       0.3248   0.0824   0.8318     H
H       0.3248   0.9176   0.3318     H
C      0.32497   0.3959   0.0568     C
C      0.32497   0.6041   0.5568     C
C       0.3279   0.2217   0.2231     C
C       0.3279   0.7783   0.7231     C
C       0.3301   0.2006   0.4333     C
C       0.3301   0.3165   0.4605     C
C       0.3301   0.6835   0.9605     C
C       0.3301   0.7994   0.9333     C
H       0.3305   0.0335   0.6532     H
H       0.3305   0.9665   0.1532     H
H       0.3375   0.2655   0.2526     H
H       0.3375   0.7345   0.7526     H
C      0.33794   0.3456   0.7785     C
C      0.33794   0.6544   0.2785     C
C      0.33818   0.1068   0.2075     C
C      0.33818   0.8932   0.7075     C
C      0.33925   0.2191   0.7868     C
C      0.33925   0.7809   0.2868     C
C      0.34237   0.2123   0.9907     C
C      0.34237   0.7877   0.4907     C
H       0.3459   0.4901   0.4596     H
H       0.3459   0.5099   0.9596     H
C       0.3464   0.4131    0.442     C
C       0.3464   0.5869    0.942     C
H       0.3473   0.4867   0.1528     H
H       0.3473   0.5133   0.6528     H
C      0.34731   0.1878   0.3893     C
C      0.34731   0.8122   0.8893     C
H       0.3479   0.1119   0.3708     H
H       0.3479   0.8881   0.8708     H
H       0.3488   0.1505   0.9676     H
H       0.3488   0.8495   0.4676     H
H       0.3507   0.1698   0.7659     H
H       0.3507   0.8302   0.2659     H
O      0.35324   0.4094   0.7424     O
O      0.35324   0.5906   0.2424     O
C      0.35338   0.3641   0.0633     C
C      0.35338   0.6359   0.5633     C
H       0.3571   0.4163    0.609     H
H       0.3571   0.5837    0.109     H
O      0.36174   0.0569   0.2394     O
O      0.36174   0.9431   0.7394     O
C      0.36233   0.2672   0.0293     C
C      0.36233   0.7328   0.5293     C
C       0.3628    0.397   0.3986     C
C       0.3628    0.603   0.8986     C
C      0.36339    0.485   0.6334     C
C      0.36339    0.515   0.1334     C
C       0.3636   0.2846   0.3723     C
C       0.3636   0.7154   0.8723     C
H       0.3655   0.2805   0.6887     H
H       0.3655   0.7195   0.1887     H
O      0.37379   0.4144   0.0998     O
O      0.37379   0.5856   0.5998     O
C      0.37441   0.3457   0.7122     C
C      0.37441   0.6543   0.2122     C
H       0.3752   0.2735   0.3429     H
H       0.3752   0.7265   0.8429     H
O      0.37741   0.4972   0.3773     O
O      0.37741   0.5028   0.8773     O
H       0.3788   0.1576   0.1457     H
H       0.3788   0.8424   0.6457     H
H       0.3812   0.2405   0.0325     H
H       0.3812   0.7595   0.5325     H
H        0.384   0.4032   0.2286     H
H        0.384   0.5968   0.7286     H
C      0.38743   0.4425   0.6763     C
C      0.38743   0.5575   0.1763     C
C      0.38788   0.0479   0.2148     C
C      0.38788   0.9521   0.7148     C
H       0.3889   0.3089   0.7385     H
H       0.3889   0.6911   0.2385     H
C      0.39312   0.1121   0.1655     C
C      0.39312   0.8879   0.6655     C
H       0.3935   0.2825   0.8684     H
H       0.3935   0.7175   0.3684     H
H       0.3962   0.1537    0.522     H
H       0.3962   0.8463    0.022     H
C      0.39752    0.441   0.9133     C
C      0.39752    0.559   0.4133     C
C      0.39941   0.4476   0.2127     C
C      0.39941   0.5524   0.7127     C
C      0.40351   0.3206   0.8991     C
C      0.40351   0.6794   0.3991     C
O      0.40361   0.2945   0.6081     O
O      0.40361   0.7055   0.1081     O
H       0.4053    0.066   0.7748     H
H       0.4053    0.934   0.2748     H
H       0.4072   0.4216   0.4693     H
H       0.4072   0.5784   0.9693     H
C        0.409    0.023   0.7423     C
C        0.409    0.977   0.2423     C
H       0.4095   0.3903     0.19     H
H       0.4095   0.6097     0.69     H
C      0.41191    0.498   0.9593     C
C      0.41191    0.502   0.4593     C
C       0.4132   0.3898   0.6489     C
C       0.4132   0.6102   0.1489     C
C       0.4149   0.1828   0.5273     C
C       0.4149   0.8172   0.0273     C
O       0.4187   0.4996   0.2572     O
O       0.4187   0.5004   0.7572     O
C      0.42003   0.1061   0.1473     C
C      0.42003   0.8939   0.6473     C
H       0.4214   0.2538   0.2594     H
H       0.4214   0.7462   0.7594     H
H       0.4228   0.4558   0.6302     H
H       0.4228   0.5442   0.1302     H
H       0.4239   0.1515   0.1156     H
H       0.4239   0.8485   0.6156     H
C      0.42419   0.2586   0.5738     C
C      0.42419   0.7414   0.0738     C
C      0.42478   0.2569   0.9314     C
C      0.42478   0.7431   0.4314     C
H       0.4267   0.3543   0.6777     H
H       0.4267   0.6457   0.1777     H
H       0.4283   0.1743   0.9229     H
H       0.4283   0.8257   0.4229     H
H       0.4292   0.1061   0.4584     H
H       0.4292   0.8939   0.9584     H
C      0.43259   0.2926   0.2883     C
C      0.43259   0.7074   0.7883     C
C      0.43354   0.4341   0.9904     C
C      0.43354   0.5659   0.4904     C
C      0.43361   0.4201   0.2931     C
C      0.43361   0.5799   0.7931     C
C       0.4352   0.1538   0.4898     C
C       0.4352   0.8462   0.9898     C
C      0.43603   0.0313   0.7221     C
C      0.43603   0.9687   0.2221     C
C      0.44099   0.3132   0.9761     C
C      0.44099   0.6868   0.4761     C
C      0.44157   0.0354   0.1743     C
C      0.44157   0.9646   0.6743     C
H       0.4433   0.4725   0.0214     H
H       0.4433   0.5275   0.5214     H
H       0.4482   0.1384   0.3258     H
H       0.4482   0.8616   0.8258     H
C      0.44906   0.2245   0.3287     C
C      0.44906   0.7755   0.8287     C
H       0.4501   0.0809   0.7405     H
H       0.4501   0.9191   0.2405     H
C        0.451    0.472   0.3357     C
C        0.451    0.528   0.8357     C
H       0.4524   0.4421    0.839     H
H       0.4524   0.5579    0.339     H
C      0.45297   0.2919   0.5817     C
C      0.45297   0.7081   0.0817     C
H       0.4599   0.3374   0.6131     H
H       0.4599   0.6626   0.1131     H
N      0.46259   0.1889   0.4951     N
N      0.46259   0.8111   0.9951     N
C      0.46548   0.2526   0.0087     C
C      0.46548   0.7474   0.5087     C
N      0.46597   0.2715   0.3711     N
N      0.46597   0.7285   0.8711     N
C       0.4664   0.3957    0.374     C
C       0.4664   0.6043    0.874     C
C       0.4705   0.2556   0.5419     C
C       0.4705   0.7444   0.0419     C
C      0.47145   0.0322   0.1527     C
C      0.47145   0.9678   0.6527     C
O      0.47147   0.1399   0.0002     O
O      0.47147   0.8601   0.5002     O
O      0.47738   0.1274   0.1231     O
O      0.47738   0.8726   0.6231     O
H       0.4777   0.4327   0.4034     H
H       0.4777   0.5673   0.9034     H
O      0.48184   0.3151   0.0431     O
O      0.48184   0.6849   0.5431     O
O      0.48789   0.0561    0.664     O
O      0.48789   0.9439    0.164     O
H       0.4896   0.2788   0.5475     H
H       0.4896   0.7212   0.0475     H
Co     0.49162  0.16544  0.43025    Co
Co     0.49162  0.83456  0.93025    Co
Co     0.50838  0.16544  0.06975    Co
Co     0.50838  0.83456  0.56975    Co
H       0.5104   0.2788   0.9525     H
H       0.5104   0.7212   0.4525     H
O      0.51211   0.0561    0.836     O
O      0.51211   0.9439    0.336     O
O      0.51816   0.3151   0.4569     O
O      0.51816   0.6849   0.9569     O
H       0.5223   0.4327   0.0966     H
H       0.5223   0.5673   0.5966     H
O      0.52262   0.1274   0.3769     O
O      0.52262   0.8726   0.8769     O
O      0.52853   0.1399   0.4998     O
O      0.52853   0.8601   0.9998     O
C      0.52855   0.0322   0.3473     C
C      0.52855   0.9678   0.8473     C
C       0.5295   0.2556   0.9581     C
C       0.5295   0.7444   0.4581     C
C       0.5336   0.3957    0.126     C
C       0.5336   0.6043    0.626     C
N      0.53403   0.2715   0.1289     N
N      0.53403   0.7285   0.6289     N
C      0.53452   0.2526   0.4913     C
C      0.53452   0.7474   0.9913     C
N      0.53741   0.1889   0.0049     N
N      0.53741   0.8111   0.5049     N
H       0.5401   0.3374   0.8869     H
H       0.5401   0.6626   0.3869     H
C      0.54703   0.2919   0.9183     C
C      0.54703   0.7081   0.4183     C
H       0.5476   0.4421    0.661     H
H       0.5476   0.5579    0.161     H
C        0.549    0.472   0.1643     C
C        0.549    0.528   0.6643     C
H       0.5499   0.0809   0.7595     H
H       0.5499   0.9191   0.2595     H
C      0.55094   0.2245   0.1713     C
C      0.55094   0.7755   0.6713     C
H       0.5518   0.1384   0.1742     H
H       0.5518   0.8616   0.6742     H
H       0.5567   0.4725   0.4786     H
H       0.5567   0.5275   0.9786     H
C      0.55843   0.0354   0.3257     C
C      0.55843   0.9646   0.8257     C
C      0.55901   0.3132   0.5239     C
C      0.55901   0.6868   0.0239     C
C      0.56397   0.0313   0.7779     C
C      0.56397   0.9687   0.2779     C
C       0.5648   0.1538   0.0102     C
C       0.5648   0.8462   0.5102     C
C      0.56639   0.4201   0.2069     C
C      0.56639   0.5799   0.7069     C
C      0.56646   0.4341   0.5096     C
C      0.56646   0.5659   0.0096     C
C      0.56741   0.2926   0.2117     C
C      0.56741   0.7074   0.7117     C
H       0.5708   0.1061   0.0416     H
H       0.5708   0.8939   0.5416     H
H       0.5717   0.1743   0.5771     H
H       0.5717   0.8257   0.0771     H
H       0.5733   0.3543   0.8223     H
H       0.5733   0.6457   0.3223     H
C      0.57522   0.2569   0.5686     C
C      0.57522   0.7431   0.0686     C
C      0.57581   0.2586   0.9262     C
C      0.57581   0.7414   0.4262     C
H       0.5761   0.1515   0.3844     H
H       0.5761   0.8485   0.8844     H
H       0.5772   0.4558   0.8698     H
H       0.5772   0.5442   0.3698     H
H       0.5786   0.2538   0.2406     H
H       0.5786   0.7462   0.7406     H
C      0.57997   0.1061   0.3527     C
C      0.57997   0.8939   0.8527     C
O       0.5813   0.4996   0.2428     O
O       0.5813   0.5004   0.7428     O
C       0.5851   0.1828   0.9727     C
C       0.5851   0.8172   0.4727     C
C       0.5868   0.3898   0.8511     C
C       0.5868   0.6102   0.3511     C
C      0.58809    0.498   0.5407     C
C      0.58809    0.502   0.0407     C
H       0.5905   0.3903     0.31     H
H       0.5905   0.6097     0.81     H
C        0.591    0.023   0.7577     C
C        0.591    0.977   0.2577     C
H       0.5928   0.4216   0.0307     H
H       0.5928   0.5784   0.5307     H
H       0.5947    0.066   0.7252     H
H       0.5947    0.934   0.2252     H
O      0.59639   0.2945   0.8919     O
O      0.59639   0.7055   0.3919     O
C      0.59649   0.3206   0.6009     C
C      0.59649   0.6794   0.1009     C
C      0.60059   0.4476   0.2873     C
C      0.60059   0.5524   0.7873     C
C      0.60248    0.441   0.5867     C
C      0.60248    0.559   0.0867     C
H       0.6038   0.1537    0.978     H
H       0.6038   0.8463    0.478     H
H       0.6065   0.2825   0.6316     H
H       0.6065   0.7175   0.1316     H
C      0.60688   0.1121   0.3345     C
C      0.60688   0.8879   0.8345     C
H       0.6111   0.3089   0.7615     H
H       0.6111   0.6911   0.2615     H
C      0.61212   0.0479   0.2852     C
C      0.61212   0.9521   0.7852     C
C      0.61257   0.4425   0.8237     C
C      0.61257   0.5575   0.3237     C
H        0.616   0.4032   0.2714     H
H        0.616   0.5968   0.7714     H
H       0.6188   0.2405   0.4675     H
H       0.6188   0.7595   0.9675     H
H       0.6212   0.1576   0.3543     H
H       0.6212   0.8424   0.8543     H
O      0.62259   0.4972   0.1227     O
O      0.62259   0.5028   0.6227     O
H       0.6248   0.2735   0.1571     H
H       0.6248   0.7265   0.6571     H
C      0.62559   0.3457   0.7878     C
C      0.62559   0.6543   0.2878     C
O      0.62621   0.4144   0.4002     O
O      0.62621   0.5856   0.9002     O
H       0.6345   0.2805   0.8113     H
H       0.6345   0.7195   0.3113     H
C       0.6364   0.2846   0.1277     C
C       0.6364   0.7154   0.6277     C
C      0.63661    0.485   0.8666     C
C      0.63661    0.515   0.3666     C
C       0.6372    0.397   0.1014     C
C       0.6372    0.603   0.6014     C
C      0.63767   0.2672   0.4707     C
C      0.63767   0.7328   0.9707     C
O      0.63826   0.0569   0.2606     O
O      0.63826   0.9431   0.7606     O
H       0.6429   0.4163    0.891     H
H       0.6429   0.5837    0.391     H
C      0.64662   0.3641   0.4367     C
C      0.64662   0.6359   0.9367     C
O      0.64676   0.4094   0.7576     O
O      0.64676   0.5906   0.2576     O
H       0.6493   0.1698   0.7341     H
H       0.6493   0.8302   0.2341     H
H       0.6512   0.1505   0.5324     H
H       0.6512   0.8495   0.0324     H
H       0.6521   0.1119   0.1292     H
H       0.6521   0.8881   0.6292     H
C      0.65269   0.1878   0.1107     C
C      0.65269   0.8122   0.6107     C
H       0.6527   0.4867   0.3472     H
H       0.6527   0.5133   0.8472     H
C       0.6536   0.4131    0.058     C
C       0.6536   0.5869    0.558     C
H       0.6541   0.4901   0.0404     H
H       0.6541   0.5099   0.5404     H
C      0.65763   0.2123   0.5093     C
C      0.65763   0.7877   0.0093     C
C      0.66075   0.2191   0.7132     C
C      0.66075   0.7809   0.2132     C
C      0.66182   0.1068   0.2925     C
C      0.66182   0.8932   0.7925     C
C      0.66206   0.3456   0.7215     C
C      0.66206   0.6544   0.2215     C
H       0.6625   0.2655   0.2474     H
H       0.6625   0.7345   0.7474     H
H       0.6695   0.0335   0.8468     H
H       0.6695   0.9665   0.3468     H
C       0.6699   0.2006   0.0667     C
C       0.6699   0.3165   0.0395     C
C       0.6699   0.6835   0.5395     C
C       0.6699   0.7994   0.5667     C
C       0.6721   0.2217   0.2769     C
C       0.6721   0.7783   0.7769     C
C      0.67503   0.3959   0.4432     C
C      0.67503   0.6041   0.9432     C
H       0.6752   0.0824   0.6682     H
H       0.6752   0.9176   0.1682     H
C       0.6761   0.0437   0.3362     C
C       0.6761   0.9563   0.8362     C
C       0.6765   0.1678   0.6737     C
C       0.6765   0.8322   0.1737     C
C       0.6804   0.4138   0.6912     C
C       0.6804   0.5862   0.1912     C
H       0.6808   0.3283   0.0091     H
H       0.6808   0.6717   0.5091     H
H       0.6817   0.4596   0.4215     H
H       0.6817   0.5404   0.9215     H
H       0.6826   0.4987   0.6971     H
H       0.6826   0.5013   0.1971     H
N      0.68542   0.2416   0.5157     N
N      0.68542   0.7584   0.0157     N
C       0.6891   0.0985    0.049     C
C       0.6891   0.9015    0.549     C
O      0.69166   0.0058   0.0818     O
O      0.69166   0.9942   0.5818     O
N      0.69394   0.2331   0.6417     N
N      0.69394   0.7669   0.1417     N
C      0.69402   0.3337   0.4822     C
C      0.69402   0.6663   0.9822     C
C       0.6954   0.3541    0.652     C
C       0.6954   0.6459    0.152     C
C      0.69636   0.2714   0.3047     C
C      0.69636   0.7286   0.8047     C
O       0.7006   0.1096   0.0038     O
O       0.7006   0.8904   0.5038     O
C       0.7009   0.0949   0.3652     C
C       0.7009   0.9051   0.8652     C
H        0.703   0.3483   0.2938     H
H        0.703   0.6517   0.7938     H
H       0.7074   0.4016   0.6314     H
H       0.7074   0.5984   0.1314     H
H       0.7103    0.052   0.3952     H
H       0.7103    0.948   0.8952     H
C       0.7111   0.2076   0.3491     C
C       0.7111   0.7924   0.8491     C
H       0.7132   0.3564   0.4852     H
H       0.7132   0.6436   0.9852     H
Co     0.71547  0.15208  0.57485    Co
Co     0.71547  0.84792  0.07485    Co
C      0.73765   0.2629   0.3798     C
C      0.73765   0.7371   0.8798     C
O      0.74668   0.3664   0.3645     O
O      0.74668   0.6336   0.8645     O
O       0.7481   0.2979   0.5811     O
O       0.7481   0.7021   0.0811     O
O       0.7519   0.2021   0.4189     O
O       0.7519   0.7979   0.9189     O
O      0.75332   0.1336   0.6355     O
O      0.75332   0.8664   0.1355     O
C      0.76235   0.2371   0.6202     C
C      0.76235   0.7629   0.1202     C
Co     0.78453  0.34792  0.42515    Co
Co     0.78453  0.65208  0.92515    Co
H       0.7868   0.1436   0.5148     H
H       0.7868   0.8564   0.0148     H
C       0.7889   0.2924   0.6509     C
C       0.7889   0.7076   0.1509     C
H       0.7897    0.448   0.6048     H
H       0.7897    0.552   0.1048     H
H       0.7926   0.0984   0.3686     H
H       0.7926   0.9016   0.8686     H
H        0.797   0.1517   0.7062     H
H        0.797   0.8483   0.2062     H
C       0.7991   0.4051   0.6348     C
C       0.7991   0.5949   0.1348     C
O       0.7994   0.3904   0.9962     O
O       0.7994   0.6096   0.4962     O
C      0.80364   0.2286   0.6953     C
C      0.80364   0.7714   0.1953     C
C       0.8046   0.1459    0.348     C
C       0.8046   0.8541    0.848     C
C      0.80598   0.1663   0.5178     C
C      0.80598   0.8337   0.0178     C
N      0.80606   0.2669   0.3583     N
N      0.80606   0.7331   0.8583     N
O      0.80834   0.4942   0.9182     O
O      0.80834   0.5058   0.4182     O
C       0.8109   0.4015    0.951     C
C       0.8109   0.5985    0.451     C
N      0.81458   0.2584   0.4843     N
N      0.81458   0.7416   0.9843     N
H       0.8174   0.0013   0.3029     H
H       0.8174   0.9987   0.8029     H
H       0.8183   0.0404   0.5785     H
H       0.8183   0.9596   0.0785     H
H       0.8192   0.1717   0.9909     H
H       0.8192   0.8283   0.4909     H
C       0.8196   0.0862   0.3088     C
C       0.8196   0.9138   0.8088     C
C       0.8235   0.3322   0.3263     C
C       0.8235   0.6678   0.8263     C
C       0.8239   0.4563   0.6638     C
C       0.8239   0.5437   0.1638     C
H       0.8248   0.4176   0.3318     H
H       0.8248   0.5824   0.8318     H
C      0.82497   0.1041   0.5568     C
C      0.82497   0.8959   0.0568     C
C       0.8279   0.2783   0.7231     C
C       0.8279   0.7217   0.2231     C
C       0.8301   0.1835   0.9605     C
C       0.8301   0.2994   0.9333     C
C       0.8301   0.7006   0.4333     C
C       0.8301   0.8165   0.4605     C
H       0.8305   0.4665   0.1532     H
H       0.8305   0.5335   0.6532     H
H       0.8375   0.2345   0.7526     H
H       0.8375   0.7655   0.2526     H
C      0.83794   0.1544   0.2785     C
C      0.83794   0.8456   0.7785     C
C      0.83818   0.3932   0.7075     C
C      0.83818   0.6068   0.2075     C
C      0.83925   0.2809   0.2868     C
C      0.83925   0.7191   0.7868     C
C      0.84237   0.2877   0.4907     C
C      0.84237   0.7123   0.9907     C
H       0.8459   0.0099   0.9596     H
H       0.8459   0.9901   0.4596     H
C       0.8464   0.0869    0.942     C
C       0.8464   0.9131    0.442     C
H       0.8473   0.0133   0.6528     H
H       0.8473   0.9867   0.1528     H
C      0.84731   0.3122   0.8893     C
C      0.84731   0.6878   0.3893     C
H       0.8479   0.3881   0.8708     H
H       0.8479   0.6119   0.3708     H
H       0.8488   0.3495   0.4676     H
H       0.8488   0.6505   0.9676     H
H       0.8507   0.3302   0.2659     H
H       0.8507   0.6698   0.7659     H
O      0.85324   0.0906   0.2424     O
O      0.85324   0.9094   0.7424     O
C      0.85338   0.1359   0.5633     C
C      0.85338   0.8641   0.0633     C
H       0.8571   0.0837    0.109     H
H       0.8571   0.9163    0.609     H
O      0.86174   0.4431   0.7394     O
O      0.86174   0.5569   0.2394     O
C      0.86233   0.2328   0.5293     C
C      0.86233   0.7672   0.0293     C
C       0.8628    0.103   0.8986     C
C       0.8628    0.897   0.3986     C
C      0.86339    0.015   0.1334     C
C      0.86339    0.985   0.6334     C
C       0.8636   0.2154   0.8723     C
C       0.8636   0.7846   0.3723     C
H       0.8655   0.2195   0.1887     H
H       0.8655   0.7805   0.6887     H
O      0.87379   0.0856   0.5998     O
O      0.87379   0.9144   0.0998     O
C      0.87441   0.1543   0.2122     C
C      0.87441   0.8457   0.7122     C
H       0.8752   0.2265   0.8429     H
H       0.8752   0.7735   0.3429     H
O      0.87741   0.0028   0.8773     O
O      0.87741   0.9972   0.3773     O
H       0.8788   0.3424   0.6457     H
H       0.8788   0.6576   0.1457     H
H       0.8812   0.2595   0.5325     H
H       0.8812   0.7405   0.0325     H
H        0.884   0.0968   0.7286     H
H        0.884   0.9032   0.2286     H
C      0.88743   0.0575   0.1763     C
C      0.88743   0.9425   0.6763     C
C      0.88788   0.4521   0.7148     C
C      0.88788   0.5479   0.2148     C
H       0.8889   0.1911   0.2385     H
H       0.8889   0.8089   0.7385     H
C      0.89312   0.3879   0.6655     C
C      0.89312   0.6121   0.1655     C
H       0.8935   0.2175   0.3684     H
H       0.8935   0.7825   0.8684     H
H       0.8962   0.3463    0.022     H
H       0.8962   0.6537    0.522     H
C      0.89752    0.059   0.4133     C
C      0.89752    0.941   0.9133     C
C      0.89941   0.0524   0.7127     C
C      0.89941   0.9476   0.2127     C
C      0.90351   0.1794   0.3991     C
C      0.90351   0.8206   0.8991     C
O      0.90361   0.2055   0.1081     O
O      0.90361   0.7945   0.6081     O
H       0.9053    0.434   0.2748     H
H       0.9053    0.566   0.7748     H
H       0.9072   0.0784   0.9693     H
H       0.9072   0.9216   0.4693     H
C        0.909    0.477   0.2423     C
C        0.909    0.523   0.7423     C
H       0.9095   0.1097     0.69     H
H       0.9095   0.8903     0.19     H
C      0.91191    0.002   0.4593     C
C      0.91191    0.998   0.9593     C
C       0.9132   0.1102   0.1489     C
C       0.9132   0.8898   0.6489     C
C       0.9149   0.3172   0.0273     C
C       0.9149   0.6828   0.5273     C
O       0.9187   0.0004   0.7572     O
O       0.9187   0.9996   0.2572     O
C      0.92003   0.3939   0.6473     C
C      0.92003   0.6061   0.1473     C
H       0.9214   0.2462   0.7594     H
H       0.9214   0.7538   0.2594     H
H       0.9228   0.0442   0.1302     H
H       0.9228   0.9558   0.6302     H
H       0.9239   0.3485   0.6156     H
H       0.9239   0.6515   0.1156     H
C      0.92419   0.2414   0.0738     C
C      0.92419   0.7586   0.5738     C
C      0.92478   0.2431   0.4314     C
C      0.92478   0.7569   0.9314     C
H       0.9267   0.1457   0.1777     H
H       0.9267   0.8543   0.6777     H
H       0.9283   0.3257   0.4229     H
H       0.9283   0.6743   0.9229     H
H       0.9292   0.3939   0.9584     H
H       0.9292   0.6061   0.4584     H
C      0.93259   0.2074   0.7883     C
C      0.93259   0.7926   0.2883     C
C      0.93354   0.0659   0.4904     C
C      0.93354   0.9341   0.9904     C
C      0.93361   0.0799   0.7931     C
C      0.93361   0.9201   0.2931     C
C       0.9352   0.3462   0.9898     C
C       0.9352   0.6538   0.4898     C
C      0.93603   0.4687   0.2221     C
C      0.93603   0.5313   0.7221     C
C      0.94099   0.1868   0.4761     C
C      0.94099   0.8132   0.9761     C
C      0.94157   0.4646   0.6743     C
C      0.94157   0.5354   0.1743     C
H       0.9433   0.0275   0.5214     H
H       0.9433   0.9725   0.0214     H
H       0.9482   0.3616   0.8258     H
H       0.9482   0.6384   0.3258     H
C      0.94906   0.2755   0.8287     C
C      0.94906   0.7245   0.3287     C
H       0.9501   0.4191   0.2405     H
H       0.9501   0.5809   0.7405     H
C        0.951    0.028   0.8357     C
C        0.951    0.972   0.3357     C
H       0.9524   0.0579    0.339     H
H       0.9524   0.9421    0.839     H
C      0.95297   0.2081   0.0817     C
C      0.95297   0.7919   0.5817     C
H       0.9599   0.1626   0.1131     H
H       0.9599   0.8374   0.6131     H
N      0.96259   0.3111   0.9951     N
N      0.96259   0.6889   0.4951     N
C      0.96548   0.2474   0.5087     C
C      0.96548   0.7526   0.0087     C
N      0.96597   0.2285   0.8711     N
N      0.96597   0.7715   0.3711     N
C       0.9664   0.1043    0.874     C
C       0.9664   0.8957    0.374     C
C       0.9705   0.2444   0.0419     C
C       0.9705   0.7556   0.5419     C
C      0.97145   0.4678   0.6527     C
C      0.97145   0.5322   0.1527     C
O      0.97147   0.3601   0.5002     O
O      0.97147   0.6399   0.0002     O
O      0.97738   0.3726   0.6231     O
O      0.97738   0.6274   0.1231     O
H       0.9777   0.0673   0.9034     H
H       0.9777   0.9327   0.4034     H
O      0.98184   0.1849   0.5431     O
O      0.98184   0.8151   0.0431     O
O      0.98789   0.4439    0.164     O
O      0.98789   0.5561    0.664     O
H       0.9896   0.2212   0.0475     H
H       0.9896   0.7788   0.5475     H
Co     0.99162  0.33456  0.93025    Co
Co     0.99162  0.66544  0.43025    Co
