data_I
_chemical_name_common  '/home/zhangsd/repos/MofS-CGCNN/ML/data/TSD/clean_cifs/JEJWOL_clean'
_cell_length_a 15.15600
_cell_length_b 15.65700
_cell_length_c 26.96700
_cell_angle_alpha 81.60300
_cell_angle_beta  78.04200
_cell_angle_gamma 73.52900
_space_group_name_H-M_alt      'P 1'


loop_
_space_group_symop_operation_xyz
  'x, y, z' 

loop_
_atom_site_label
_atom_site_fract_x
_atom_site_fract_y
_atom_site_fract_z
_atom_site_type_symbol
H       0.0069   0.2818   0.1949     H
C       0.0111   0.1547   0.2259     C
C       0.0279    0.992   0.2592     C
O       0.0356   0.2096   0.7605     O
H       0.0381   0.8315   0.7471     H
C       0.0389   0.2222   0.1918     C
O       0.0425   0.9878   0.7076     O
Nd     0.04501  0.14412  0.67448    Nd
H       0.0524   0.2644    0.843     H
C       0.0595   0.0649   0.2183     C
O       0.0722   0.9096  0.24889     O
O       0.0736   0.2397   0.5917     O
H       0.0836   0.5657   0.1008     H
H       0.0924    0.431   0.0717     H
H       0.0937   0.6806   0.4011     H
O       0.0972   0.7384   0.3087     O
H       0.0998   0.1886   0.0533     H
C       0.1033    0.513    0.121     C
C       0.1067   0.4329   0.1033     C
O       0.1104   0.6759   0.1495     O
C       0.1158   0.1986   0.1528     C
C       0.1158   0.2371   0.8415     C
C       0.1171   0.1628   0.7638     C
C       0.1234   0.2763   0.6095     C
C       0.1269   0.5189   0.1658     C
H       0.1278   0.2902   0.8998     H
C       0.1283   0.6062   0.1805     C
C       0.1329   0.0453   0.1795     C
O        0.133    0.259   0.6546     O
C       0.1336   0.3535   0.1364     C
Nd     0.13391  0.77203  0.20757    Nd
H       0.1371   0.3247   0.5097     H
N        0.139   0.2703   0.1182     N
O       0.1455   0.6089   0.2264     O
H       0.1495    0.602   0.4727     H
C       0.1507   0.2109    0.038     C
C        0.152   0.4392   0.1995     C
C       0.1553   0.3592   0.1827     C
C       0.1575   0.6562   0.3999     C
O       0.1585   0.1041   0.7344     O
C       0.1602   0.1129   0.1469     C
C       0.1603   0.2508   0.8755     C
H       0.1634    0.163   0.9719     H
C       0.1644   0.1814   0.8032     C
H       0.1648    0.986   0.1749     H
H       0.1655   0.4416   0.2313     H
C       0.1704   0.3539   0.5237     C
H        0.173   0.3068   0.2036     H
C       0.1736    0.339   0.5764     C
C        0.181   0.7177   0.3118     C
C       0.1828   0.2557   0.0668     C
C       0.1869   0.1963   0.9893     C
C       0.1912   0.6066   0.4425     C
H       0.2104   0.0987   0.1204     H
H        0.213   0.4225   0.4587     H
C       0.2166   0.4117   0.4932     C
C        0.219   0.6687   0.3562     C
C       0.2256   0.3791   0.5956     C
H       0.2297   0.3668     0.63     H
O       0.2387   0.7354   0.2718     O
O       0.2563   0.8434   0.1625     O
C        0.257   0.2072   0.8763     C
C       0.2584   0.1397   0.8022     C
C       0.2594   0.2883    0.043     C
C       0.2615    0.233   0.9654     C
C       0.2695   0.4548   0.5133     C
C       0.2732    0.438   0.5658     C
H       0.2841    0.319   0.0613     H
C       0.2858   0.5635   0.4411     C
H       0.2903   0.1009   0.7775     H
O        0.296   0.6962   0.1644     O
C       0.2978   0.2763   0.9945     C
N        0.303    0.221   0.9128     N
C        0.305    0.155   0.8373     C
H        0.307   0.4659   0.5803     H
C       0.3115   0.6314   0.3555     C
C       0.3169   0.7689   0.1557     C
N       0.3221   0.5116   0.4827     N
C       0.3442   0.5809   0.3977     C
H       0.3497   0.2974     0.98     H
H       0.3538     0.64   0.3261     H
H       0.3691     0.13   0.8347     H
H       0.3725   0.3453   0.8566     H
H       0.3902   0.8881   0.0961     H
H       0.3965   0.6362   0.4879     H
C       0.3996   0.2226   0.8967     C
H       0.4083   0.5581   0.3963     H
C       0.4091   0.5058   0.4912     C
C       0.4165     0.77   0.1364     C
C       0.4205   0.2974   0.8658     C
C       0.4382   0.5805   0.4925     C
C       0.4383   0.8406   0.1056     C
H        0.456     0.37   0.5001     H
H       0.4582   0.1084   0.9343     H
C       0.4709   0.1562   0.9119     C
H       0.4727   0.6517    0.172     H
C        0.473   0.4227   0.4997     C
C       0.4868   0.7005   0.1509     C
C       0.5132   0.2995   0.8491     C
C        0.527   0.5773   0.5003     C
H       0.5273   0.3483    0.828     H
C       0.5291   0.8438   0.0881     C
H       0.5418   0.8916   0.0657     H
H        0.544     0.63   0.4999     H
C       0.5617   0.1594   0.8944     C
C       0.5618   0.4195   0.5075     C
C       0.5795   0.7026   0.1342     C
C       0.5835     0.23   0.8636     C
C       0.5909   0.4942   0.5088     C
H       0.5917   0.4419   0.6037     H
C       0.6004   0.7774   0.1033     C
H       0.6035   0.3638   0.5121     H
H       0.6098   0.1119   0.9039     H
H       0.6275   0.6547   0.1434     H
H       0.6309     0.87   0.1653     H
H       0.6462     0.36   0.6739     H
H       0.6503   0.7026     0.02     H
C       0.6558   0.4191   0.6023     C
N       0.6779   0.4884   0.5173     N
C       0.6831   0.2311   0.8443     C
C       0.6885   0.3686   0.6445     C
H        0.693   0.5341   0.4197     H
C        0.695    0.845   0.1627     C
N        0.697    0.779   0.0872     N
C       0.7022   0.7237   0.0055     C
O        0.704   0.3038   0.8356     O
H       0.7097   0.8991   0.2225     H
C       0.7142   0.4365   0.5589     C
H       0.7159    0.681   0.9387     H
C       0.7268    0.562   0.4342     C
C       0.7305   0.5452   0.4867     C
C       0.7385    0.767   0.0346     C
C       0.7406   0.7117    0.957     C
C       0.7416   0.8603   0.1978     C
C        0.743   0.7928   0.1237     C
O       0.7437   0.1566   0.8375     O
O       0.7613   0.2646   0.7282     O
H       0.7703   0.6332     0.37     H
C       0.7744   0.6209   0.4044     C
C        0.781   0.3313   0.6438     C
C       0.7834   0.5883   0.5068     C
H        0.787   0.5775   0.5413     H
H       0.7896   0.9013   0.8796     H
C       0.8088   0.3934   0.5575     C
C       0.8131   0.8037   0.0107     C
C       0.8172   0.7443   0.9332     C
C        0.819   0.2823   0.6882     C
C       0.8264    0.661   0.4236     C
H        0.827   0.6932   0.7964     H
C       0.8296   0.6461   0.4763     C
H       0.8345   0.5584   0.7687     H
H       0.8352    0.014   0.8251     H
C       0.8356   0.8186   0.1968     C
H       0.8366    0.837   0.0281     H
C       0.8397   0.7492   0.1245     C
C       0.8398   0.8871   0.8531     C
O       0.8415   0.8959   0.2656     O
C       0.8425   0.3438   0.6001     C
C       0.8447   0.6408   0.8173     C
C        0.848   0.5608   0.8005     C
C       0.8493   0.7891    0.962     C
H       0.8505    0.398   0.5273     H
O       0.8545   0.3911   0.7736     O
N        0.861   0.7297   0.8818     N
H       0.8629   0.6753   0.4903     H
Nd     0.86609  0.22797  0.79243    Nd
C       0.8664   0.6465   0.8636     C
O        0.867    0.741   0.3454     O
C       0.8671   0.9547   0.8205     C
C       0.8717   0.3938   0.8195     C
H       0.8722   0.7098   0.1002     H
C       0.8731   0.4811   0.8342     C
C       0.8766   0.7237   0.3905     C
C       0.8829   0.8372   0.2362     C
C       0.8842   0.7629   0.1585     C
C       0.8842   0.8014   0.8472     C
O       0.8896   0.3241   0.8505     O
C       0.8933   0.5671   0.8967     C
C       0.8967    0.487    0.879     C
H       0.9002   0.8114   0.9467     H
O       0.9028   0.2616   0.6913     O
H       0.9063   0.3194   0.5989     H
H       0.9076    0.569   0.9283     H
H       0.9164   0.4343   0.8992     H
O       0.9264   0.7603   0.4083     O
O       0.9278   0.0904  0.75111     O
C       0.9405   0.9351   0.7817     C
H       0.9476   0.7356    0.157     H
Nd     0.95499  0.85588  0.32552    Nd
O       0.9575   0.0122   0.2924     O
C       0.9611   0.7778   0.8082     C
H       0.9619   0.1685   0.2529     H
O       0.9644   0.7904   0.2395     O
C       0.9721    0.008   0.7408     C
C       0.9889   0.8453   0.7741     C
H       0.9931   0.7182   0.8051     H
