data_I
_chemical_name_common  '/home/zhangsd/repos/MofS-CGCNN/ML/data/TSD/clean_cifs/JIXWUJ02_clean'
_cell_length_a 11.65750
_cell_length_b 10.10530
_cell_length_c 14.87900
_cell_angle_alpha 90.00000
_cell_angle_beta  91.63300
_cell_angle_gamma 90.00000
_space_group_name_H-M_alt      'P 1'


loop_
_space_group_symop_operation_xyz
  'x, y, z' 

loop_
_atom_site_label
_atom_site_fract_x
_atom_site_fract_y
_atom_site_fract_z
_atom_site_type_symbol
Mn         0.0      0.0      0.5    Mn
Mn         0.0      0.5      0.0    Mn
O       0.0129   0.6116  0.12341     O
C       0.0186   0.9908   0.7117     C
H       0.0188   0.7822   0.9777     H
O        0.019   0.2124  0.50203     O
H       0.0206   0.3183   0.7681     H
H       0.0219    0.013   0.2296     H
O      0.03877   0.9977  0.35883     O
C       0.0523    0.369    0.814     C
H        0.054   0.3869   0.5421     H
C       0.0654   0.7823   0.9473     C
C       0.0735   0.2919   0.5495     C
O      0.09858   0.6626  0.93979     O
O       0.1066   0.8796  0.90936     O
O      0.12704   0.0019   0.7196     O
H       0.1457    0.751   0.6344     H
O      0.14835    0.424   0.8025     O
O      0.15347   0.2633  0.60685     O
O       0.1538   0.3926  0.03776     O
C       0.1694   0.6828     0.67     C
O       0.1842   0.5753  0.63167     O
O      0.18612   0.9712  0.52157     O
O      0.19174   0.7081  0.75249     O
H       0.1919   0.8358   0.4273     H
Mn     0.23947  0.90056  0.81509    Mn
C       0.2412   0.8972   0.4678     C
Mn     0.24317  0.58462  0.86883    Mn
Mn     0.25683  0.08462  0.63117    Mn
C       0.2588   0.3972   0.0322     C
Mn     0.26053  0.40056  0.68491    Mn
H       0.3081   0.3358   0.0727     H
O      0.30826   0.2081  0.74751     O
O      0.31388   0.4712  0.97843     O
O       0.3158   0.0753  0.86833     O
C       0.3306   0.1828     0.83     C
O       0.3462   0.8926  0.46224     O
O      0.34653   0.7633  0.89315     O
O      0.35165    0.924   0.6975     O
H       0.3543    0.251   0.8656     H
O      0.37296   0.5019   0.7804     O
O       0.3934   0.3796  0.59064     O
O      0.40142   0.1626  0.56021     O
C       0.4265   0.7919   0.9505     C
C       0.4346   0.2823   0.5527     C
H        0.446   0.8869   0.9579     H
C       0.4477    0.869    0.686     C
O      0.46123   0.4977  0.14117     O
H       0.4781    0.513   0.2704     H
H       0.4794   0.8183   0.7319     H
O        0.481   0.7124  0.99797     O
H       0.4812   0.2822   0.5223     H
C       0.4814   0.4908   0.7883     C
O       0.4871   0.1116  0.37659     O
Mn         0.5      0.0      0.5    Mn
Mn         0.5      0.5      0.0    Mn
O       0.5129   0.8884  0.62341     O
C       0.5186   0.5092   0.2117     C
H       0.5188   0.7178   0.4777     H
O        0.519   0.2876  0.00203     O
H       0.5206   0.1817   0.2681     H
H       0.5219    0.487   0.7296     H
O      0.53877   0.5023  0.85883     O
C       0.5523    0.131    0.314     C
H        0.554   0.1131   0.0421     H
C       0.5654   0.7177   0.4473     C
C       0.5735   0.2081   0.0495     C
O      0.59858   0.8374  0.43979     O
O       0.6066   0.6204  0.40936     O
O      0.62704   0.4981   0.2196     O
H       0.6457    0.749   0.1344     H
O      0.64835    0.076   0.3025     O
O      0.65347   0.2367  0.10685     O
O       0.6538   0.1074  0.53776     O
C       0.6694   0.8172     0.17     C
O       0.6842   0.9247  0.13167     O
O      0.68612   0.5288  0.02157     O
O      0.69174   0.7919  0.25249     O
H       0.6919   0.6642   0.9273     H
Mn     0.73947  0.59944  0.31509    Mn
C       0.7412   0.6028   0.9678     C
Mn     0.74317  0.91538  0.36883    Mn
Mn     0.75683  0.41538  0.13117    Mn
C       0.7588   0.1028   0.5322     C
Mn     0.76053  0.09944  0.18491    Mn
H       0.8081   0.1642   0.5727     H
O      0.80826   0.2919  0.24751     O
O      0.81388   0.0288  0.47843     O
O       0.8158   0.4247  0.36833     O
C       0.8306   0.3172     0.33     C
O       0.8462   0.6074  0.96224     O
O      0.84653   0.7367  0.39315     O
O      0.85165    0.576   0.1975     O
H       0.8543    0.249   0.3656     H
O      0.87296   0.9981   0.2804     O
O       0.8934   0.1204  0.09064     O
O      0.90142   0.3374  0.06021     O
C       0.9265   0.7081   0.4505     C
C       0.9346   0.2177   0.0527     C
H        0.946   0.6131   0.4579     H
C       0.9477    0.631    0.186     C
O      0.96123   0.0023  0.64117     O
H       0.9781    0.987   0.7704     H
H       0.9794   0.6817   0.2319     H
O        0.981   0.7876  0.49797     O
H       0.9812   0.2178   0.0223     H
C       0.9814   0.0092   0.2883     C
O       0.9871   0.3884  0.87659     O
