data_I
_chemical_name_common  '/home/zhangsd/repos/MofS-CGCNN/ML/data/TSD/clean_cifs/JIXWUJ_clean'
_cell_length_a 10.15100
_cell_length_b 11.69540
_cell_length_c 14.91620
_cell_angle_alpha 91.64200
_cell_angle_beta  90.00000
_cell_angle_gamma 90.00000
_space_group_name_H-M_alt      'P 1'


loop_
_space_group_symop_operation_xyz
  'x, y, z' 

loop_
_atom_site_label
_atom_site_fract_x
_atom_site_fract_y
_atom_site_fract_z
_atom_site_type_symbol
Mn         0.0      0.0      0.5    Mn
Mn         0.0      0.5      0.5    Mn
O       0.0007  0.03714  0.35912     O
O      0.00284  0.87254  0.28166     O
H        0.013   0.0169   0.2332     H
C       0.0133  0.98008  0.28962     C
O      0.02839  0.81376  0.47898     O
O      0.07107  0.31504  0.86733     O
O      0.07801  0.64874  0.30339     O
Mn      0.0826  0.25679  0.63099    Mn
C       0.1001  0.75784  0.53272     C
Mn     0.10269  0.76039  0.18599    Mn
O      0.10463  0.65363  0.53738     O
O       0.1113  0.48822  0.37675     O
H       0.1154   0.5514   0.0438     H
O      0.12407  0.89287  0.09266     O
C       0.1313   0.5524  0.31473     C
O      0.16091   0.4013  0.56094     O
H       0.1611   0.8088   0.5707     H
C       0.1785   0.3294  0.82944     C
H       0.1966    0.523   0.2641     H
O      0.20417   0.3066  0.74818     O
H       0.2059    0.002    0.015     H
C       0.2105   0.5735   0.0515     C
O      0.21121  0.01833   0.5042     O
C       0.2202   0.9343  0.05463     C
O      0.23892   0.6536  0.10717     O
H       0.2473   0.8552   0.3714     H
H       0.2527   0.3552   0.8714     H
O      0.26108   0.1536  0.60717     O
C       0.2798   0.4343  0.55463     C
O      0.28879  0.51833   0.0042     O
C       0.2895   0.0735   0.5515     C
H       0.2941    0.502    0.515     H
O      0.29583   0.8066  0.24818     O
H       0.3034    0.023   0.7641     H
C       0.3215   0.8294  0.32944     C
H       0.3389   0.3088   0.0707     H
O      0.33909   0.9013  0.06094     O
C       0.3687   0.0524  0.81473     C
O      0.37593  0.39287  0.59266     O
H       0.3846   0.0514   0.5438     H
O       0.3887  0.98822  0.87675     O
O      0.39537  0.15363  0.03738     O
Mn     0.39731  0.26039  0.68599    Mn
C       0.3999  0.25784  0.03272     C
Mn      0.4174  0.75679  0.13099    Mn
O      0.42199  0.14874  0.80339     O
O      0.42893  0.81504  0.36733     O
O      0.47161  0.31376  0.97898     O
C       0.4867  0.48008  0.78962     C
H        0.487   0.5169   0.7332     H
O      0.49716  0.37254  0.78166     O
O       0.4993  0.53714  0.85912     O
Mn         0.5      0.0      0.0    Mn
Mn         0.5      0.5      0.0    Mn
O       0.5007  0.46286  0.14088     O
O      0.50284  0.62746  0.21834     O
H        0.513   0.4831   0.2668     H
C       0.5133  0.51992  0.21038     C
O      0.52839  0.68624  0.02102     O
O      0.57107  0.18496  0.63267     O
O      0.57801  0.85126  0.19661     O
Mn      0.5826  0.24321  0.86901    Mn
C       0.6001  0.74216  0.96728     C
Mn     0.60269  0.73961  0.31401    Mn
O      0.60463  0.84637  0.96262     O
O       0.6113  0.01178  0.12325     O
H       0.6154   0.9486   0.4562     H
O      0.62407  0.60713  0.40734     O
C       0.6313   0.9476  0.18527     C
O      0.66091   0.0987  0.93906     O
H       0.6611   0.6912   0.9293     H
C       0.6785   0.1706  0.67056     C
H       0.6966    0.977   0.2359     H
O      0.70417   0.1934  0.75182     O
H       0.7059    0.498    0.485     H
C       0.7105   0.9265   0.4485     C
O      0.71121  0.48167   0.9958     O
C       0.7202   0.5657  0.44537     C
O      0.73892   0.8464  0.39283     O
H       0.7473   0.6448   0.1286     H
H       0.7527   0.1448   0.6286     H
O      0.76108   0.3464  0.89283     O
C       0.7798   0.0657  0.94537     C
O      0.78879  0.98167   0.4958     O
C       0.7895   0.4265   0.9485     C
H       0.7941    0.998    0.985     H
O      0.79583   0.6934  0.25182     O
H       0.8034    0.477   0.7359     H
C       0.8215   0.6706  0.17056     C
H       0.8389   0.1912   0.4293     H
O      0.83909   0.5987  0.43906     O
C       0.8687   0.4476  0.68527     C
O      0.87593  0.10713  0.90734     O
H       0.8846   0.4486   0.9562     H
O       0.8887  0.51178  0.62325     O
O      0.89537  0.34637  0.46262     O
Mn     0.89731  0.23961  0.81401    Mn
C       0.8999  0.24216  0.46728     C
Mn      0.9174  0.74321  0.36901    Mn
O      0.92199  0.35126  0.69661     O
O      0.92893  0.68496  0.13267     O
O      0.97161  0.18624  0.52102     O
C       0.9867  0.01992  0.71038     C
H        0.987   0.9831   0.7668     H
O      0.99716  0.12746  0.71834     O
O       0.9993  0.96286  0.64088     O
