data_I
_chemical_name_common  '/home/zhangsd/repos/MofS-CGCNN/ML/data/TSD/clean_cifs/JIZJEJ_clean'
_cell_length_a 17.51910
_cell_length_b 17.51910
_cell_length_c 15.16300
_cell_angle_alpha 90.00000
_cell_angle_beta  90.00000
_cell_angle_gamma 90.00000
_space_group_name_H-M_alt      'P 1'


loop_
_space_group_symop_operation_xyz
  'x, y, z' 

loop_
_atom_site_label
_atom_site_fract_x
_atom_site_fract_y
_atom_site_fract_z
_atom_site_type_symbol
H       0.0018   0.2411   0.7404     H
H       0.0018   0.7589   0.2404     H
C       0.0068   0.1463   0.8217     C
C       0.0068   0.8537   0.3217     C
H       0.0159   0.2629   0.8415     H
H       0.0159   0.7371   0.3415     H
O      0.01969  0.12207  0.97695     O
O      0.01969  0.87793  0.47695     O
H       0.0199   0.1102    0.773     H
H       0.0199   0.8898    0.273     H
C       0.0292   0.2271   0.7943     C
C       0.0292   0.7729   0.2943     C
H       0.0368   0.2568   0.5975     H
H       0.0368   0.7432   0.0975     H
H       0.0433   0.3851   0.6314     H
H       0.0433   0.6149   0.1314     H
C       0.0526   0.1251   0.9033     C
C       0.0526   0.8749   0.4033     C
C       0.0627   0.2901   0.5582     C
C       0.0627   0.7099   0.0582     C
C       0.0665   0.3668   0.5789     C
C       0.0665   0.6332   0.0789     C
O      0.07206  0.13972  0.34133     O
O      0.07206  0.86028  0.84133     O
H       0.0843   0.2291   0.7834     H
H       0.0843   0.7709   0.2834     H
N      0.09398  0.26057  0.48508     N
N      0.09398  0.73943  0.98508     N
Co     0.09888  0.14164  0.46851    Co
Co     0.09888  0.85836  0.96851    Co
C       0.1043   0.4171   0.5233     C
C       0.1043   0.5829   0.0233     C
H       0.1063   0.4595   0.9196     H
H       0.1063   0.5405   0.4196     H
H       0.1102   0.0199    0.727     H
H       0.1102   0.9801    0.227     H
C       0.1124   0.4997   0.5457     C
C       0.1124   0.5003   0.0457     C
C       0.1133   0.4449   0.9794     C
C       0.1133   0.5551   0.4794     C
O      0.11371  0.12363  0.60333     O
O      0.11371  0.87637  0.10333     O
H       0.1209   0.4848   0.6784     H
H       0.1209   0.5152   0.1784     H
C       0.1212   0.4779   0.1329     C
C       0.1212   0.5221   0.6329     C
O      0.12207  0.01969  0.52305     O
O      0.12207  0.98031  0.02305     O
O      0.12363  0.11371  0.89667     O
O      0.12363  0.88629  0.39667     O
C       0.1245   0.3684   0.0007     C
C       0.1245   0.6316   0.5007     C
C       0.1251   0.0526   0.5967     C
C       0.1251   0.9474   0.0967     C
H       0.1266   0.3311   0.9553     H
H       0.1266   0.6689   0.4553     H
C       0.1296   0.3091   0.4305     C
C       0.1296   0.6909   0.9305     C
C       0.1306   0.4013   0.1541     C
C       0.1306   0.5987   0.6541     C
C       0.1325   0.3463   0.0883     C
C       0.1325   0.6537   0.5883     C
C       0.1354   0.3863   0.4462     C
C       0.1354   0.6137   0.9462     C
H       0.1356   0.3865    0.214     H
H       0.1356   0.6135    0.714     H
O      0.13972  0.07206  0.15867     O
O      0.13972  0.92794  0.65867     O
Co     0.14164  0.09888  0.03149    Co
Co     0.14164  0.90112  0.53149    Co
C       0.1422   0.2631   0.1109     C
C       0.1422   0.7369   0.6109     C
O      0.14492  0.21599   0.0493     O
O      0.14492  0.78401   0.5493     O
O       0.1461  0.24765  0.19208     O
O       0.1461  0.75235  0.69208     O
C       0.1463   0.0068   0.6783     C
C       0.1463   0.9932   0.1783     C
Co      0.1471   0.1471     0.25    Co
Co      0.1471   0.8529     0.75    Co
H       0.1519   0.2892   0.3783     H
H       0.1519   0.7108   0.8783     H
H       0.1604   0.4185   0.4049     H
H       0.1604   0.5815   0.9049     H
O      0.21599  0.14492   0.4507     O
O      0.21599  0.85508   0.9507     O
C       0.2271   0.0292   0.7057     C
C       0.2271   0.9708   0.2057     C
H       0.2291   0.0843   0.7166     H
H       0.2291   0.9157   0.2166     H
H       0.2411   0.0018   0.7596     H
H       0.2411   0.9982   0.2596     H
O      0.24765   0.1461  0.30792     O
O      0.24765   0.8539  0.80792     O
H       0.2568   0.0368   0.9025     H
H       0.2568   0.9632   0.4025     H
N      0.26057  0.09398  0.01492     N
N      0.26057  0.90602  0.51492     N
H       0.2629   0.0159   0.6585     H
H       0.2629   0.9841   0.1585     H
C       0.2631   0.1422   0.3891     C
C       0.2631   0.8578   0.8891     C
H       0.2892   0.1519   0.1217     H
H       0.2892   0.8481   0.6217     H
C       0.2901   0.0627   0.9418     C
C       0.2901   0.9373   0.4418     C
C       0.3091   0.1296   0.0695     C
C       0.3091   0.8704   0.5695     C
H       0.3311   0.1266   0.5447     H
H       0.3311   0.8734   0.0447     H
C       0.3463   0.1325   0.4117     C
C       0.3463   0.8675   0.9117     C
C       0.3668   0.0665   0.9211     C
C       0.3668   0.9335   0.4211     C
C       0.3684   0.1245   0.4993     C
C       0.3684   0.8755   0.9993     C
H       0.3851   0.0433   0.8686     H
H       0.3851   0.9567   0.3686     H
C       0.3863   0.1354   0.0538     C
C       0.3863   0.8646   0.5538     C
H       0.3865   0.1356    0.286     H
H       0.3865   0.8644    0.786     H
C       0.4013   0.1306   0.3459     C
C       0.4013   0.8694   0.8459     C
C       0.4171   0.1043   0.9767     C
C       0.4171   0.8957   0.4767     C
H       0.4185   0.1604   0.0951     H
H       0.4185   0.8396   0.5951     H
C       0.4449   0.1133   0.5206     C
C       0.4449   0.8867   0.0206     C
H       0.4595   0.1063   0.5804     H
H       0.4595   0.8937   0.0804     H
C       0.4779   0.1212   0.3671     C
C       0.4779   0.8788   0.8671     C
H       0.4848   0.1209   0.8216     H
H       0.4848   0.8791   0.3216     H
C       0.4997   0.1124   0.9543     C
C       0.4997   0.8876   0.4543     C
C       0.5003   0.1124   0.4543     C
C       0.5003   0.8876   0.9543     C
H       0.5152   0.1209   0.3216     H
H       0.5152   0.8791   0.8216     H
C       0.5221   0.1212   0.8671     C
C       0.5221   0.8788   0.3671     C
H       0.5405   0.1063   0.0804     H
H       0.5405   0.8937   0.5804     H
C       0.5551   0.1133   0.0206     C
C       0.5551   0.8867   0.5206     C
H       0.5815   0.1604   0.5951     H
H       0.5815   0.8396   0.0951     H
C       0.5829   0.1043   0.4767     C
C       0.5829   0.8957   0.9767     C
C       0.5987   0.1306   0.8459     C
C       0.5987   0.8694   0.3459     C
H       0.6135   0.1356    0.786     H
H       0.6135   0.8644    0.286     H
C       0.6137   0.1354   0.5538     C
C       0.6137   0.8646   0.0538     C
H       0.6149   0.0433   0.3686     H
H       0.6149   0.9567   0.8686     H
C       0.6316   0.1245   0.9993     C
C       0.6316   0.8755   0.4993     C
C       0.6332   0.0665   0.4211     C
C       0.6332   0.9335   0.9211     C
C       0.6537   0.1325   0.9117     C
C       0.6537   0.8675   0.4117     C
H       0.6689   0.1266   0.0447     H
H       0.6689   0.8734   0.5447     H
C       0.6909   0.1296   0.5695     C
C       0.6909   0.8704   0.0695     C
C       0.7099   0.0627   0.4418     C
C       0.7099   0.9373   0.9418     C
H       0.7108   0.1519   0.6217     H
H       0.7108   0.8481   0.1217     H
C       0.7369   0.1422   0.8891     C
C       0.7369   0.8578   0.3891     C
H       0.7371   0.0159   0.1585     H
H       0.7371   0.9841   0.6585     H
N      0.73943  0.09398  0.51492     N
N      0.73943  0.90602  0.01492     N
H       0.7432   0.0368   0.4025     H
H       0.7432   0.9632   0.9025     H
O      0.75235   0.1461  0.80792     O
O      0.75235   0.8539  0.30792     O
H       0.7589   0.0018   0.2596     H
H       0.7589   0.9982   0.7596     H
H       0.7709   0.0843   0.2166     H
H       0.7709   0.9157   0.7166     H
C       0.7729   0.0292   0.2057     C
C       0.7729   0.9708   0.7057     C
O      0.78401  0.14492   0.9507     O
O      0.78401  0.85508   0.4507     O
H       0.8396   0.4185   0.9049     H
H       0.8396   0.5815   0.4049     H
H       0.8481   0.2892   0.8783     H
H       0.8481   0.7108   0.3783     H
Co      0.8529   0.1471     0.75    Co
Co      0.8529   0.8529     0.25    Co
C       0.8537   0.0068   0.1783     C
C       0.8537   0.9932   0.6783     C
O       0.8539  0.24765  0.69208     O
O       0.8539  0.75235  0.19208     O
O      0.85508  0.21599   0.5493     O
O      0.85508  0.78401   0.0493     O
C       0.8578   0.2631   0.6109     C
C       0.8578   0.7369   0.1109     C
Co     0.85836  0.09888  0.53149    Co
Co     0.85836  0.90112  0.03149    Co
O      0.86028  0.07206  0.65867     O
O      0.86028  0.92794  0.15867     O
H       0.8644   0.3865    0.714     H
H       0.8644   0.6135    0.214     H
C       0.8646   0.3863   0.9462     C
C       0.8646   0.6137   0.4462     C
C       0.8675   0.3463   0.5883     C
C       0.8675   0.6537   0.0883     C
C       0.8694   0.4013   0.6541     C
C       0.8694   0.5987   0.1541     C
C       0.8704   0.3091   0.9305     C
C       0.8704   0.6909   0.4305     C
H       0.8734   0.3311   0.4553     H
H       0.8734   0.6689   0.9553     H
C       0.8749   0.0526   0.0967     C
C       0.8749   0.9474   0.5967     C
C       0.8755   0.3684   0.5007     C
C       0.8755   0.6316   0.0007     C
O      0.87637  0.11371  0.39667     O
O      0.87637  0.88629  0.89667     O
O      0.87793  0.01969  0.02305     O
O      0.87793  0.98031  0.52305     O
C       0.8788   0.4779   0.6329     C
C       0.8788   0.5221   0.1329     C
H       0.8791   0.4848   0.1784     H
H       0.8791   0.5152   0.6784     H
O      0.88629  0.12363  0.10333     O
O      0.88629  0.87637  0.60333     O
C       0.8867   0.4449   0.4794     C
C       0.8867   0.5551   0.9794     C
C       0.8876   0.4997   0.0457     C
C       0.8876   0.5003   0.5457     C
H       0.8898   0.0199    0.227     H
H       0.8898   0.9801    0.727     H
H       0.8937   0.4595   0.4196     H
H       0.8937   0.5405   0.9196     H
C       0.8957   0.4171   0.0233     C
C       0.8957   0.5829   0.5233     C
Co     0.90112  0.14164  0.96851    Co
Co     0.90112  0.85836  0.46851    Co
N      0.90602  0.26057  0.98508     N
N      0.90602  0.73943  0.48508     N
H       0.9157   0.2291   0.2834     H
H       0.9157   0.7709   0.7834     H
O      0.92794  0.13972  0.84133     O
O      0.92794  0.86028  0.34133     O
C       0.9335   0.3668   0.0789     C
C       0.9335   0.6332   0.5789     C
C       0.9373   0.2901   0.0582     C
C       0.9373   0.7099   0.5582     C
C       0.9474   0.1251   0.4033     C
C       0.9474   0.8749   0.9033     C
H       0.9567   0.3851   0.1314     H
H       0.9567   0.6149   0.6314     H
H       0.9632   0.2568   0.0975     H
H       0.9632   0.7432   0.5975     H
C       0.9708   0.2271   0.2943     C
C       0.9708   0.7729   0.7943     C
H       0.9801   0.1102    0.273     H
H       0.9801   0.8898    0.773     H
O      0.98031  0.12207  0.47695     O
O      0.98031  0.87793  0.97695     O
H       0.9841   0.2629   0.3415     H
H       0.9841   0.7371   0.8415     H
C       0.9932   0.1463   0.3217     C
C       0.9932   0.8537   0.8217     C
H       0.9982   0.2411   0.2404     H
H       0.9982   0.7589   0.7404     H
