data_I
_chemical_name_common  '/home/zhangsd/repos/MofS-CGCNN/ML/data/TSD/clean_cifs/JIZJAF_clean'
_cell_length_a 17.52070
_cell_length_b 17.52070
_cell_length_c 15.12610
_cell_angle_alpha 90.00000
_cell_angle_beta  90.00000
_cell_angle_gamma 90.00000
_space_group_name_H-M_alt      'P 1'


loop_
_space_group_symop_operation_xyz
  'x, y, z' 

loop_
_atom_site_label
_atom_site_fract_x
_atom_site_fract_y
_atom_site_fract_z
_atom_site_type_symbol
H        0.001   0.2402   0.2405     H
H        0.001   0.7598   0.7405     H
C       0.0045   0.1459   0.8224     C
C       0.0045   0.8541   0.3224     C
H       0.0134   0.2623   0.8418     H
H       0.0134   0.7377   0.3418     H
H       0.0176   0.1098   0.7735     H
H       0.0176   0.8902   0.2735     H
O      0.01782  0.12223   0.9772     O
O      0.01782  0.87777   0.4772     O
C       0.0266   0.2264   0.7946     C
C       0.0266   0.7736   0.2946     C
H       0.0451   0.2544   0.6022     H
H       0.0451   0.7456   0.1022     H
H       0.0463   0.3836   0.6346     H
H       0.0463   0.6164   0.1346     H
C       0.0507   0.1255   0.9026     C
C       0.0507   0.8745   0.4026     C
C       0.0681   0.2885   0.5613     C
C       0.0681   0.7115   0.0613     C
C       0.0697   0.3656   0.5819     C
C       0.0697   0.6344   0.0819     C
O      0.07415  0.13949   0.3415     O
O      0.07415  0.86051   0.8415     O
H       0.0817   0.2286   0.7835     H
H       0.0817   0.7714   0.2835     H
N       0.0971     0.26   0.4872     N
N       0.0971     0.74   0.9872     N
H       0.1006   0.4596   0.9222     H
H       0.1006   0.5404   0.4222     H
Co     0.10067  0.14093  0.46933    Co
Co     0.10067  0.85907  0.96933    Co
C       0.1055    0.416   0.5252     C
C       0.1055    0.584   0.0252     C
H       0.1098   0.0176   0.7265     H
H       0.1098   0.9824   0.2265     H
C       0.1101   0.4454   0.9818     C
C       0.1101   0.5546   0.4818     C
C        0.113   0.4981   0.5479     C
C        0.113   0.5019   0.0479     C
O       0.1135  0.12163   0.6036     O
O       0.1135  0.87837   0.1036     O
C        0.121   0.3693   0.0028     C
C        0.121   0.6307   0.5028     C
H       0.1215    0.332   0.9573     H
H       0.1215    0.668   0.4573     H
O      0.12163   0.1135   0.8964     O
O      0.12163   0.8865   0.3964     O
O      0.12223  0.01782   0.5228     O
O      0.12223  0.98218   0.0228     O
C       0.1241   0.4788   0.1347     C
C       0.1241   0.5212   0.6347     C
C       0.1255   0.0507   0.5974     C
C       0.1255   0.9493   0.0974     C
H       0.1258    0.484   0.6803     H
H       0.1258    0.516   0.1803     H
C         0.13   0.3092   0.4313     C
C         0.13   0.6908   0.9313     C
C        0.131   0.3475   0.0891     C
C        0.131   0.6525   0.5891     C
C       0.1328   0.4021   0.1558     C
C       0.1328   0.5979   0.6558     C
C       0.1347   0.3866    0.448     C
C       0.1347   0.6134    0.948     C
O      0.13949  0.07415   0.1585     O
O      0.13949  0.92585   0.6585     O
H         0.14    0.387   0.2156     H
H         0.14    0.613   0.7156     H
Co     0.14093  0.10067  0.03067    Co
Co     0.14093  0.89933  0.53067    Co
C        0.141   0.2646   0.1112     C
C        0.141   0.7354   0.6112     C
O      0.14188  0.21725   0.0489     O
O      0.14188  0.78275   0.5489     O
C       0.1459   0.0045   0.6776     C
C       0.1459   0.9955   0.1776     C
O       0.1481  0.24901    0.193     O
O       0.1481  0.75099    0.693     O
Co     0.14836  0.14836     0.25    Co
Co     0.14836  0.85164     0.75    Co
H        0.151   0.2901   0.3778     H
H        0.151   0.7099   0.8778     H
H       0.1581   0.4195   0.4061     H
H       0.1581   0.5805   0.9061     H
O      0.21725  0.14188   0.4511     O
O      0.21725  0.85812   0.9511     O
C       0.2264   0.0266   0.7054     C
C       0.2264   0.9734   0.2054     C
H       0.2286   0.0817   0.7165     H
H       0.2286   0.9183   0.2165     H
H       0.2402    0.001   0.2595     H
H       0.2402    0.999   0.7595     H
O      0.24901   0.1481    0.307     O
O      0.24901   0.8519    0.807     O
H       0.2544   0.0451   0.8978     H
H       0.2544   0.9549   0.3978     H
N         0.26   0.0971   0.0128     N
N         0.26   0.9029   0.5128     N
H       0.2623   0.0134   0.6582     H
H       0.2623   0.9866   0.1582     H
C       0.2646    0.141   0.3888     C
C       0.2646    0.859   0.8888     C
C       0.2885   0.0681   0.9387     C
C       0.2885   0.9319   0.4387     C
H       0.2901    0.151   0.1222     H
H       0.2901    0.849   0.6222     H
C       0.3092     0.13   0.0687     C
C       0.3092     0.87   0.5687     C
H        0.332   0.1215   0.5427     H
H        0.332   0.8785   0.0427     H
C       0.3475    0.131   0.4109     C
C       0.3475    0.869   0.9109     C
C       0.3656   0.0697   0.9181     C
C       0.3656   0.9303   0.4181     C
C       0.3693    0.121   0.4972     C
C       0.3693    0.879   0.9972     C
H       0.3836   0.0463   0.8654     H
H       0.3836   0.9537   0.3654     H
C       0.3866   0.1347    0.052     C
C       0.3866   0.8653    0.552     C
H        0.387     0.14   0.2844     H
H        0.387     0.86   0.7844     H
C       0.4021   0.1328   0.3442     C
C       0.4021   0.8672   0.8442     C
C        0.416   0.1055   0.9748     C
C        0.416   0.8945   0.4748     C
H       0.4195   0.1581   0.0939     H
H       0.4195   0.8419   0.5939     H
C       0.4454   0.1101   0.5182     C
C       0.4454   0.8899   0.0182     C
H       0.4596   0.1006   0.5778     H
H       0.4596   0.8994   0.0778     H
C       0.4788   0.1241   0.3653     C
C       0.4788   0.8759   0.8653     C
H        0.484   0.1258   0.8197     H
H        0.484   0.8742   0.3197     H
C       0.4981    0.113   0.9521     C
C       0.4981    0.887   0.4521     C
C       0.5019    0.113   0.4521     C
C       0.5019    0.887   0.9521     C
H        0.516   0.1258   0.3197     H
H        0.516   0.8742   0.8197     H
C       0.5212   0.1241   0.8653     C
C       0.5212   0.8759   0.3653     C
H       0.5404   0.1006   0.0778     H
H       0.5404   0.8994   0.5778     H
C       0.5546   0.1101   0.0182     C
C       0.5546   0.8899   0.5182     C
H       0.5805   0.1581   0.5939     H
H       0.5805   0.8419   0.0939     H
C        0.584   0.1055   0.4748     C
C        0.584   0.8945   0.9748     C
C       0.5979   0.1328   0.8442     C
C       0.5979   0.8672   0.3442     C
H        0.613     0.14   0.7844     H
H        0.613     0.86   0.2844     H
C       0.6134   0.1347    0.552     C
C       0.6134   0.8653    0.052     C
H       0.6164   0.0463   0.3654     H
H       0.6164   0.9537   0.8654     H
C       0.6307    0.121   0.9972     C
C       0.6307    0.879   0.4972     C
C       0.6344   0.0697   0.4181     C
C       0.6344   0.9303   0.9181     C
C       0.6525    0.131   0.9109     C
C       0.6525    0.869   0.4109     C
H        0.668   0.1215   0.0427     H
H        0.668   0.8785   0.5427     H
C       0.6908     0.13   0.5687     C
C       0.6908     0.87   0.0687     C
H       0.7099    0.151   0.6222     H
H       0.7099    0.849   0.1222     H
C       0.7115   0.0681   0.4387     C
C       0.7115   0.9319   0.9387     C
C       0.7354    0.141   0.8888     C
C       0.7354    0.859   0.3888     C
H       0.7377   0.0134   0.1582     H
H       0.7377   0.9866   0.6582     H
N         0.74   0.0971   0.5128     N
N         0.74   0.9029   0.0128     N
H       0.7456   0.0451   0.3978     H
H       0.7456   0.9549   0.8978     H
O      0.75099   0.1481    0.807     O
O      0.75099   0.8519    0.307     O
H       0.7598    0.001   0.7595     H
H       0.7598    0.999   0.2595     H
H       0.7714   0.0817   0.2165     H
H       0.7714   0.9183   0.7165     H
C       0.7736   0.0266   0.2054     C
C       0.7736   0.9734   0.7054     C
O      0.78275  0.14188   0.9511     O
O      0.78275  0.85812   0.4511     O
H       0.8419   0.4195   0.9061     H
H       0.8419   0.5805   0.4061     H
H        0.849   0.2901   0.8778     H
H        0.849   0.7099   0.3778     H
Co     0.85164  0.14836     0.75    Co
Co     0.85164  0.85164     0.25    Co
O       0.8519  0.24901    0.693     O
O       0.8519  0.75099    0.193     O
C       0.8541   0.0045   0.1776     C
C       0.8541   0.9955   0.6776     C
O      0.85812  0.21725   0.5489     O
O      0.85812  0.78275   0.0489     O
C        0.859   0.2646   0.6112     C
C        0.859   0.7354   0.1112     C
Co     0.85907  0.10067  0.53067    Co
Co     0.85907  0.89933  0.03067    Co
H         0.86    0.387   0.7156     H
H         0.86    0.613   0.2156     H
O      0.86051  0.07415   0.6585     O
O      0.86051  0.92585   0.1585     O
C       0.8653   0.3866    0.948     C
C       0.8653   0.6134    0.448     C
C       0.8672   0.4021   0.6558     C
C       0.8672   0.5979   0.1558     C
C        0.869   0.3475   0.5891     C
C        0.869   0.6525   0.0891     C
C         0.87   0.3092   0.9313     C
C         0.87   0.6908   0.4313     C
H       0.8742    0.484   0.1803     H
H       0.8742    0.516   0.6803     H
C       0.8745   0.0507   0.0974     C
C       0.8745   0.9493   0.5974     C
C       0.8759   0.4788   0.6347     C
C       0.8759   0.5212   0.1347     C
O      0.87777  0.01782   0.0228     O
O      0.87777  0.98218   0.5228     O
O      0.87837   0.1135   0.3964     O
O      0.87837   0.8865   0.8964     O
H       0.8785    0.332   0.4573     H
H       0.8785    0.668   0.9573     H
C        0.879   0.3693   0.5028     C
C        0.879   0.6307   0.0028     C
O       0.8865  0.12163   0.1036     O
O       0.8865  0.87837   0.6036     O
C        0.887   0.4981   0.0479     C
C        0.887   0.5019   0.5479     C
C       0.8899   0.4454   0.4818     C
C       0.8899   0.5546   0.9818     C
H       0.8902   0.0176   0.2265     H
H       0.8902   0.9824   0.7265     H
C       0.8945    0.416   0.0252     C
C       0.8945    0.584   0.5252     C
Co     0.89933  0.14093  0.96933    Co
Co     0.89933  0.85907  0.46933    Co
H       0.8994   0.4596   0.4222     H
H       0.8994   0.5404   0.9222     H
N       0.9029     0.26   0.9872     N
N       0.9029     0.74   0.4872     N
H       0.9183   0.2286   0.2835     H
H       0.9183   0.7714   0.7835     H
O      0.92585  0.13949   0.8415     O
O      0.92585  0.86051   0.3415     O
C       0.9303   0.3656   0.0819     C
C       0.9303   0.6344   0.5819     C
C       0.9319   0.2885   0.0613     C
C       0.9319   0.7115   0.5613     C
C       0.9493   0.1255   0.4026     C
C       0.9493   0.8745   0.9026     C
H       0.9537   0.3836   0.1346     H
H       0.9537   0.6164   0.6346     H
H       0.9549   0.2544   0.1022     H
H       0.9549   0.7456   0.6022     H
C       0.9734   0.2264   0.2946     C
C       0.9734   0.7736   0.7946     C
O      0.98218  0.12223   0.4772     O
O      0.98218  0.87777   0.9772     O
H       0.9824   0.1098   0.2735     H
H       0.9824   0.8902   0.7735     H
H       0.9866   0.2623   0.3418     H
H       0.9866   0.7377   0.8418     H
C       0.9955   0.1459   0.3224     C
C       0.9955   0.8541   0.8224     C
H        0.999   0.2402   0.7405     H
H        0.999   0.7598   0.2405     H
