data_I
_chemical_name_common  '/home/zhangsd/repos/MofS-CGCNN/ML/data/TSD/clean_cifs/JOSNAG_clean'
_cell_length_a  9.23900
_cell_length_b  9.79000
_cell_length_c 10.70900
_cell_angle_alpha 68.04000
_cell_angle_beta  84.49000
_cell_angle_gamma 62.01000
_space_group_name_H-M_alt      'P 1'


loop_
_space_group_symop_operation_xyz
  'x, y, z' 

loop_
_atom_site_label
_atom_site_fract_x
_atom_site_fract_y
_atom_site_fract_z
_atom_site_type_symbol
C       0.0133   0.5947    0.748     C
O        0.022   0.4682   0.1346     O
C       0.0424   0.4948   0.5602     C
C       0.0746   0.3837   0.3748     C
H        0.085    0.381    0.629     H
H        0.113    0.268    0.436     H
O       0.1275   0.6342   0.7337     O
H        0.133    0.517    0.532     H
H         0.17    0.402    0.348     H
La      0.2247   0.5438   0.9841    La
O       0.2524    0.622   0.1768     O
O       0.3085   0.2329   0.0227     O
H        0.325    0.924    0.263     H
H        0.361    0.619    0.374     H
H        0.366    0.339    0.752     H
H        0.381    0.898    0.128     H
C       0.4002    0.588   0.1948     C
H        0.402    0.043    0.875     H
C       0.4074   0.1712    0.125     C
O        0.422   0.2656    0.173     O
C       0.4228   0.8839   0.2152     C
H        0.423    0.313    0.614     H
H        0.433    0.042    0.724     H
C       0.4564   0.5886   0.3219     C
H        0.462    0.527    0.626     H
C        0.463   0.2994    0.705     C
C       0.4854   0.0148   0.8095     C
O        0.499    0.449   0.8898     O
O        0.501    0.551   0.1102     O
C       0.5146   0.9852   0.1905     C
C        0.537   0.7006    0.295     C
H        0.538    0.473    0.374     H
C       0.5436   0.4114   0.6781     C
H        0.567    0.958    0.276     H
H        0.577    0.687    0.386     H
C       0.5772   0.1161   0.7848     C
O        0.578   0.7344    0.827     O
C       0.5926   0.8288    0.875     C
H        0.598    0.957    0.125     H
C       0.5998    0.412   0.8052     C
H        0.619    0.102    0.872     H
H        0.634    0.661    0.248     H
H        0.639    0.381    0.626     H
H        0.675    0.076    0.737     H
O       0.6915   0.7671   0.9773     O
O       0.7476    0.378   0.8232     O
La      0.7753   0.4562   0.0159    La
H         0.83    0.598    0.652     H
H        0.867    0.483    0.468     H
O       0.8725   0.3658   0.2663     O
H        0.887    0.732    0.564     H
H        0.915    0.619    0.371     H
C       0.9254   0.6163   0.6252     C
C       0.9576   0.5052   0.4398     C
O        0.978   0.5318   0.8654     O
C       0.9867   0.4053    0.252     C
