data_I
_chemical_name_common  '/home/zhangsd/repos/MofS-CGCNN/ML/data/TSD/clean_cifs/JOYKUF_clean'
_cell_length_a 21.68190
_cell_length_b 21.68190
_cell_length_c  7.07940
_cell_angle_alpha 90.00000
_cell_angle_beta  90.00000
_cell_angle_gamma 120.00000
_space_group_name_H-M_alt      'P 1'


loop_
_space_group_symop_operation_xyz
  'x, y, z' 

loop_
_atom_site_label
_atom_site_fract_x
_atom_site_fract_y
_atom_site_fract_z
_atom_site_type_symbol
H      0.00968  0.58266  0.03505     H
C       0.0386   0.5634    0.286     C
C       0.0498   0.5878   0.1029     C
H      0.08548  0.56208  0.51186     H
C       0.0958   0.5761   0.3833     C
C       0.1144   0.6133   0.0128     C
H      0.11883  0.62577  0.88293     H
C       0.1649   0.6112   0.3188     C
C       0.1798   0.6319   0.1293     C
O      0.20226   0.5935   0.6214     O
C       0.2191   0.6177   0.4579     C
O       0.2387  0.65949   0.0409     O
Mn     0.27167  0.60964  0.85454    Mn
O       0.2823  0.64384   0.4051     O
Mn     0.33797  0.72833  0.18787    Mn
O      0.34051  0.57921  0.70757     O
O      0.35616  0.63846  0.07177     O
O      0.36154   0.7177  0.73843     O
C       0.3681   0.5479  0.79597     C
H      0.37423  0.49306   0.5496     H
C       0.3823   0.6014  0.12457     C
C       0.3867   0.5011  0.67947     C
C       0.3888   0.5537  0.98547     C
Mn     0.39036  0.66203  0.52121    Mn
O      0.39124  0.79774  0.95473     O
C       0.3986   0.7809  0.79123     C
O       0.4065  0.60876  0.28807     O
C       0.4122    0.462  0.76957     C
H      0.41734  0.42702  0.70172     H
O      0.42079   0.7613  0.37423     O
C       0.4239   0.5197  0.04997     C
H      0.42702  0.41734  0.29828     H
C       0.4366   0.4752  0.95267     C
H      0.43792   0.5234  0.17853     H
C       0.4463   0.8351  0.65213     C
C       0.4521   0.8202  0.46263     C
C        0.462   0.4122  0.23043     C
C       0.4752   0.4366  0.04733     C
H       0.4766  0.91452  0.84519     H
C       0.4803   0.9042  0.71663     C
H      0.49306  0.37423   0.4504     H
C       0.4989   0.8856  0.34613     C
C       0.5011   0.3867  0.32053     C
H      0.50694  0.88117  0.21626     H
C       0.5197   0.4239  0.95003     C
H       0.5234  0.43792  0.82147     H
C       0.5248   0.9614  0.61933     C
C        0.538   0.9502  0.43623     C
C       0.5479   0.3681  0.20403     C
C       0.5537   0.3888  0.01453     C
H      0.56208  0.08548  0.48814     H
C       0.5634   0.0386    0.714     C
H      0.57298  0.99032  0.36838     H
C       0.5761   0.0958   0.6167     C
O      0.57921  0.34051  0.29243     O
H      0.58266  0.00968  0.96495     H
C       0.5878   0.0498   0.8971     C
O       0.5935  0.20226   0.3786     O
C       0.6014   0.3823  0.87543     C
O      0.60876   0.4065  0.71193     O
Mn     0.60964  0.27167  0.14546    Mn
C       0.6112   0.1649   0.6812     C
C       0.6133   0.1144   0.9872     C
C       0.6177   0.2191   0.5421     C
H      0.62577  0.11883  0.11707     H
C       0.6319   0.1798   0.8707     C
O      0.63846  0.35616  0.92823     O
O      0.64384   0.2823   0.5949     O
O      0.65949   0.2387   0.9591     O
Mn     0.66203  0.39036  0.47879    Mn
O       0.7177  0.36154  0.26157     O
Mn     0.72833  0.33797  0.81213    Mn
O       0.7613  0.42079  0.62577     O
C       0.7809   0.3986  0.20877     C
O      0.79774  0.39124  0.04527     O
C       0.8202   0.4521  0.53737     C
C       0.8351   0.4463  0.34787     C
H      0.88117  0.50694  0.78374     H
C       0.8856   0.4989  0.65387     C
C       0.9042   0.4803  0.28337     C
H      0.91452   0.4766  0.15481     H
C       0.9502    0.538  0.56377     C
C       0.9614   0.5248  0.38067     C
H      0.99032  0.57298  0.63162     H
