data_I
_chemical_name_common  '/home/zhangsd/repos/MofS-CGCNN/ML/data/TSD/clean_cifs/JUGLAA_clean'
_cell_length_a 14.15220
_cell_length_b 21.22730
_cell_length_c 22.70750
_cell_angle_alpha 90.00000
_cell_angle_beta  121.72300
_cell_angle_gamma 90.00000
_space_group_name_H-M_alt      'P 1'


loop_
_space_group_symop_operation_xyz
  'x, y, z' 

loop_
_atom_site_label
_atom_site_fract_x
_atom_site_fract_y
_atom_site_fract_z
_atom_site_type_symbol
C       0.0011   0.6116   0.1757     C
C       0.0011   0.8884   0.6757     C
H       0.0014   0.2054   0.9926     H
H       0.0014   0.2946   0.4926     H
B       0.0033   0.1469   0.8411     B
B       0.0033   0.3531   0.3411     B
C        0.005   0.1767   0.3505     C
C        0.005   0.3233   0.8505     C
C       0.0067   0.6216   0.3599     C
C       0.0067   0.8784   0.8599     C
N       0.0069   0.2168   0.8595     N
N       0.0069   0.2832   0.3595     N
C       0.0107   0.1729   0.1824     C
C       0.0107   0.3271   0.6824     C
C       0.0126   0.7334   0.1858     C
C       0.0126   0.7666   0.6858     C
C       0.0312   0.2401   0.9213     C
C       0.0312   0.2599   0.4213     C
N       0.0318   0.6417   0.7349     N
N       0.0318   0.8583   0.2349     N
C       0.0321   0.1933   0.4177     C
C       0.0321   0.3067   0.9177     C
H       0.0329   0.1106   0.2972     H
H       0.0329   0.3894   0.7972     H
C       0.0342   0.5239   0.7407     C
C       0.0342   0.9761   0.2407     C
H       0.0374   0.0832   0.3627     H
H       0.0374   0.4168   0.8627     H
C       0.0423   0.7447   0.2548     C
C       0.0423   0.7553   0.7548     C
H       0.0435   0.0138   0.7847     H
H       0.0435   0.4862   0.2847     H
H       0.0461   0.1076   0.1304     H
H       0.0461   0.3924   0.6304     H
H       0.0502   0.7226    0.906     H
H       0.0502   0.7774    0.406     H
C       0.0507   0.5877   0.7717     C
C       0.0507   0.9123   0.2717     C
C       0.0518   0.6924   0.7792     C
C       0.0518   0.8076   0.2792     C
C       0.0559   0.1503   0.4756     C
C       0.0559   0.3497   0.9756     C
C       0.0579   0.2003   0.9817     C
C       0.0579   0.2997   0.4817     C
H       0.0612   0.1569   0.9709     H
H       0.0612   0.3431   0.4709     H
H       0.0616   0.5233   0.7099     H
H       0.0616   0.9767   0.2099     H
O       0.0622  0.09123     0.47     O
O       0.0622  0.40877     0.97     O
F        0.066   0.6125   0.6458     F
F        0.066   0.8875   0.1458     F
C       0.0668   0.6926   0.3015     C
C       0.0668   0.8074   0.8015     C
O       0.0685   0.1756     0.53     O
O       0.0685   0.3244     0.03     O
H       0.0738   0.0065   0.2768     H
H       0.0738   0.4935   0.7768     H
H        0.077   0.1951   0.2009     H
H        0.077   0.3049   0.7009     H
H       0.0774    0.599   0.2039     H
H       0.0774    0.901   0.7039     H
O       0.0794  0.56436  0.93743     O
O       0.0794  0.93564  0.43743     O
C        0.081   0.6028   0.8394     C
C        0.081   0.8972   0.3394     C
C        0.083   0.6686    0.845     C
C        0.083   0.8314    0.345     C
Cd     0.10008  0.09126  0.59803    Cd
Cd     0.10008  0.40874  0.09803    Cd
F        0.112   0.1198   0.8837     F
F        0.112   0.3802   0.3837     F
C       0.1138   0.5915   0.3879     C
C       0.1138   0.9085   0.8879     C
C       0.1141   0.5567   0.8963     C
C       0.1141   0.9433   0.3963     C
C       0.1155   0.7052   0.9094     C
C       0.1155   0.7948   0.4094     C
H       0.1285   0.2127   0.0207     H
H       0.1285   0.2873   0.5207     H
H       0.1289   0.5565   0.4161     H
H       0.1289   0.9435   0.9161     H
H       0.1521   0.6777   0.9488     H
H       0.1521   0.8223   0.4488     H
O       0.1572  0.51636  0.08611     O
O       0.1572  0.98364  0.58611     O
H       0.1612   0.6281   0.5647     H
H       0.1612   0.8719   0.0647     H
H       0.1649   0.7387   0.9146     H
H       0.1649   0.7613   0.4146     H
C       0.1675   0.6622   0.3302     C
C       0.1675   0.8378   0.8302     C
O       0.1693  0.01558   0.6824     O
O       0.1693  0.48442   0.1824     O
H       0.1701   0.6203   0.0597     H
H       0.1701   0.8797   0.5597     H
H       0.1718   0.1057   0.7572     H
H       0.1718   0.3943   0.2572     H
N       0.1788   0.1608   0.6905     N
N       0.1788   0.3392   0.1905     N
H       0.1789   0.6912   0.0814     H
H       0.1789   0.8088   0.5814     H
O       0.1793   0.5129   0.9044     O
O       0.1793   0.9871   0.4044     O
C        0.192   0.6103   0.3762     C
C        0.192   0.8897   0.8762     C
C       0.1935   0.5236     0.15     C
C       0.1935   0.9764     0.65     C
C       0.1973   0.1447   0.7527     C
C       0.1973   0.3553   0.2527     C
H       0.2077   0.2291   0.6431     H
H       0.2077   0.2709   0.1431     H
Cd     0.20788  0.02234  0.51057    Cd
Cd     0.20788  0.47766  0.01057    Cd
H         0.21   0.1815   0.3495     H
H         0.21   0.3185   0.8495     H
H       0.2196   0.6754   0.3197     H
H       0.2196   0.8246   0.8197     H
C       0.2201   0.6532   0.0879     C
C       0.2201   0.8468   0.5879     C
C       0.2204   0.2166    0.686     C
C       0.2204   0.2834    0.186     C
C       0.2205   0.6558   0.5798     C
C       0.2205   0.8442   0.0798     C
H       0.2263   0.6842   0.6666     H
H       0.2263   0.8158   0.1666     H
H       0.2359   0.0785    0.335     H
H       0.2359   0.4215    0.835     H
H        0.244   0.6411   0.5004     H
H        0.244   0.8589   0.0004     H
C       0.2522   0.1829   0.8107     C
C       0.2522   0.3171   0.3107     C
H        0.259   0.1705    0.852     H
H        0.259   0.3295    0.352     H
C       0.2595   0.6894   0.6408     C
C       0.2595   0.8106   0.1408     C
H       0.2607   0.5903   0.3974     H
H       0.2607   0.9097   0.8974     H
H       0.2623   0.1191   0.2877     H
H       0.2623   0.3809   0.7877     H
C       0.2654   0.5773   0.1886     C
C       0.2654   0.9227   0.6886     C
C       0.2701   0.6636   0.5412     C
C       0.2701   0.8364   0.0412     C
H       0.2737   0.6603   0.0749     H
H       0.2737   0.8397   0.5749     H
C       0.2782   0.6342   0.1619     C
C       0.2782   0.8658   0.6619     C
C       0.2818   0.2437   0.2428     C
C       0.2818   0.2563   0.7428     C
O       0.2855  0.09225   0.6096     O
O       0.2855  0.40775   0.1096     O
C       0.2859   0.1665   0.3713     C
C       0.2859   0.3335   0.8713     C
C       0.2874   0.1088   0.3354     C
C       0.2874   0.3912   0.8354     C
H       0.2883   0.2301    0.497     H
H       0.2883   0.2699    0.997     H
C        0.297   0.2398   0.8067     C
C        0.297   0.2602   0.3067     C
H       0.3028   0.5268   0.3215     H
H       0.3028   0.9732   0.8215     H
H       0.3073    0.199   0.0199     H
H       0.3073    0.301   0.5199     H
H       0.3113   0.1561    0.419     H
H       0.3113   0.3439    0.919     H
H       0.3121   0.2066   0.2381     H
H       0.3121   0.2934   0.7381     H
O       0.3127    0.118   0.5254     O
O       0.3127    0.382   0.0254     O
C       0.3258   0.1284   0.5839     C
C       0.3258   0.3716   0.0839     C
C       0.3403   0.5784   0.2613     C
C       0.3403   0.9216   0.7613     C
C       0.3431   0.2388   0.0251     C
C       0.3431   0.2612   0.5251     C
C       0.3481   0.7309   0.6634     C
C       0.3481   0.7691   0.1634     C
C       0.3576   0.6696   0.2177     C
C       0.3576   0.8304   0.7177     C
C       0.3578   0.2188   0.3704     C
C       0.3578   0.2812   0.8704     C
C       0.3587    0.705   0.5638     C
C       0.3587    0.795   0.0638     C
C       0.3606   0.5266   0.3114     C
C       0.3606   0.9734   0.8114     C
H       0.3611   0.0132   0.7914     H
H       0.3611   0.4868   0.2914     H
N       0.3785   0.5286   0.0644     N
N       0.3785   0.9714   0.5644     N
H        0.381   0.5444   0.9811     H
H        0.381   0.9556   0.4811     H
H       0.3842   0.2447   0.4114     H
H       0.3842   0.2553   0.9114     H
H       0.3919   0.7102    0.538     H
H       0.3919   0.7898    0.038     H
C       0.3928   0.1835   0.6253     C
C       0.3928   0.3165   0.1253     C
H       0.3955   0.2348   0.0106     H
H       0.3955   0.2652   0.5106     H
N        0.396   0.6345   0.2782     N
N        0.396   0.8655   0.7782     N
C       0.3977   0.7386   0.6248     C
C       0.3977   0.7614   0.1248     C
C       0.3991   0.7318   0.2174     C
C       0.3991   0.7682   0.7174     C
C       0.4024   0.2414   0.5993     C
C       0.4024   0.2586   0.0993     C
C       0.4044   0.0786   0.3701     C
C       0.4044   0.4214   0.8701     C
H       0.4135   0.0682   0.2856     H
H       0.4135   0.4318   0.7856     H
H       0.4152   0.5212   0.1599     H
H       0.4152   0.9788   0.6599     H
H       0.4221   0.2004   0.3724     H
H       0.4221   0.2996   0.8724     H
C       0.4235   0.5471   0.0291     C
C       0.4235   0.9529   0.5291     C
F       0.4275   0.1152   0.1195     F
F       0.4275   0.3848   0.6195     F
H       0.4311   0.5331   0.3533     H
H       0.4311   0.9669   0.8533     H
H        0.434    0.143   0.7674     H
H        0.434    0.357   0.2674     H
H       0.4386   0.0814    0.467     H
H       0.4386   0.4186    0.967     H
C       0.4428   0.5353    0.133     C
C       0.4428   0.9647    0.633     C
H       0.4446   0.6325   0.7159     H
H       0.4446   0.8675   0.2159     H
F       0.4501   0.6525   0.3974     F
F       0.4501   0.8475   0.8974     F
C       0.4518   0.0618   0.3332     C
C       0.4518   0.4382   0.8332     C
H       0.4565   0.0948   0.7238     H
H       0.4565   0.4052   0.2238     H
H       0.4569   0.7336   0.1399     H
H       0.4569   0.7664   0.6399     H
C       0.4623   0.1857   0.6981     C
C       0.4623   0.3143   0.1981     C
C       0.4674   0.0709   0.4397     C
C       0.4674   0.4291   0.9397     C
N       0.4772   0.2224    0.154     N
N       0.4772   0.2776    0.654     N
C       0.4785   0.1344   0.7478     C
C       0.4785   0.3656   0.2478     C
B       0.4852   0.6572   0.3481     B
B       0.4852   0.8428   0.8481     B
C       0.4854   0.7439   0.7851     C
C       0.4854   0.7561   0.2851     C
C       0.5146   0.2439   0.7149     C
C       0.5146   0.2561   0.2149     C
B       0.5148   0.1572   0.1519     B
B       0.5148   0.3428   0.6519     B
C       0.5215   0.6344   0.7522     C
C       0.5215   0.8656   0.2522     C
N       0.5228   0.7224    0.346     N
N       0.5228   0.7776    0.846     N
C       0.5326   0.5709   0.0603     C
C       0.5326   0.9291   0.5603     C
C       0.5377   0.6857   0.8019     C
C       0.5377   0.8143   0.3019     C
H       0.5431   0.2336   0.3601     H
H       0.5431   0.2664   0.8601     H
H       0.5435   0.5948   0.7762     H
H       0.5435   0.9052   0.2762     H
C       0.5482   0.5618   0.1668     C
C       0.5482   0.9382   0.6668     C
F       0.5499   0.1525   0.1026     F
F       0.5499   0.3475   0.6026     F
H       0.5554   0.1325   0.7841     H
H       0.5554   0.3675   0.2841     H
C       0.5572   0.0353    0.367     C
C       0.5572   0.4647    0.867     C
H       0.5614   0.5814    0.033     H
H       0.5614   0.9186    0.533     H
H        0.566    0.643   0.7326     H
H        0.566    0.857   0.2326     H
H       0.5689   0.0331   0.1467     H
H       0.5689   0.4669   0.6467     H
F       0.5725   0.6152   0.3805     F
F       0.5725   0.8848   0.8805     F
C       0.5765   0.0471   0.4709     C
C       0.5765   0.4529   0.9709     C
H       0.5779   0.7004   0.1276     H
H       0.5779   0.7996   0.6276     H
H       0.5848   0.0212   0.3401     H
H       0.5848   0.4788   0.8401     H
H       0.5865   0.5682   0.2144     H
H       0.5865   0.9318   0.7144     H
C       0.5956   0.5786   0.1299     C
C       0.5956   0.9214   0.6299     C
C       0.5976   0.7414   0.9007     C
C       0.5976   0.7586   0.4007     C
C       0.6009   0.2318   0.2826     C
C       0.6009   0.2682   0.7826     C
C       0.6023   0.2386   0.8752     C
C       0.6023   0.2614   0.3752     C
N        0.604   0.1345   0.2218     N
N        0.604   0.3655   0.7218     N
H       0.6045   0.7348   0.4894     H
H       0.6045   0.7652   0.9894     H
C       0.6072   0.6835   0.8747     C
C       0.6072   0.8165   0.3747     C
H       0.6081   0.2102    0.962     H
H       0.6081   0.2898    0.462     H
H       0.6158   0.7447   0.0886     H
H       0.6158   0.7553   0.5886     H
H        0.619   0.0444   0.5189     H
H        0.619   0.4556   0.0189     H
N       0.6215   0.0286   0.4356     N
N       0.6215   0.4714   0.9356     N
H       0.6389   0.5132   0.7086     H
H       0.6389   0.9868   0.2086     H
C       0.6394   0.0266   0.1886     C
C       0.6394   0.4734   0.6886     C
C       0.6413    0.205   0.9362     C
C       0.6413    0.295   0.4362     C
C       0.6422   0.7188   0.1296     C
C       0.6422   0.7812   0.6296     C
C       0.6424   0.1696   0.2823     C
C       0.6424   0.3304   0.7823     C
C       0.6519   0.2309   0.8366     C
C       0.6519   0.2691   0.3366     C
C       0.6569   0.7388   0.4749     C
C       0.6569   0.7612   0.9749     C
C       0.6597   0.0784   0.2387     C
C       0.6597   0.4216   0.7387     C
C       0.6742   0.6284   0.9161     C
C       0.6742   0.8716   0.4161     C
O       0.6873    0.618   0.9746     O
O       0.6873    0.882   0.4746     O
H       0.6879   0.7066   0.2619     H
H       0.6879   0.7934   0.7619     H
H       0.6887   0.6561    0.081     H
H       0.6887   0.8439    0.581     H
H       0.6927    0.699   0.4801     H
H       0.6927    0.801   0.9801     H
H       0.6972   0.0268   0.1785     H
H       0.6972   0.4732   0.6785     H
C        0.703   0.7398   0.6933     C
C        0.703   0.7602   0.1933     C
H       0.7117   0.7301    0.003     H
H       0.7117   0.7699    0.503     H
C       0.7126   0.6088   0.1646     C
C       0.7126   0.8912   0.6646     C
C       0.7141   0.6665   0.1287     C
C       0.7141   0.8335   0.6287     C
O       0.7145  0.59225   0.8904     O
O       0.7145  0.90775   0.3904     O
C       0.7182   0.7437   0.2572     C
C       0.7182   0.7563   0.7572     C
C       0.7218   0.1342   0.3381     C
C       0.7218   0.3658   0.8381     C
H       0.7263   0.1603   0.4251     H
H       0.7263   0.3397   0.9251     H
C       0.7299   0.1636   0.9588     C
C       0.7299   0.3364   0.4588     C
C       0.7346   0.0773   0.3114     C
C       0.7346   0.4227   0.8114     C
H       0.7377   0.6191   0.2123     H
H       0.7377   0.8809   0.7123     H
H       0.7393   0.0903   0.1026     H
H       0.7393   0.4097   0.6026     H
C       0.7405   0.1894   0.8592     C
C       0.7405   0.3106   0.3592     C
H        0.741   0.6705    0.648     H
H        0.741   0.8295    0.148     H
C       0.7478   0.6829   0.6893     C
C       0.7478   0.8171   0.1893     C
H        0.756   0.1411   0.9996     H
H        0.756   0.3589   0.4996     H
H       0.7641   0.5785    0.165     H
H       0.7641   0.9215    0.665     H
H       0.7737   0.1842   0.8334     H
H       0.7737   0.3158   0.3334     H
C       0.7795   0.1558   0.9202     C
C       0.7795   0.3442   0.4202     C
C       0.7796   0.7166    0.814     C
C       0.7796   0.7834    0.314     C
C       0.7799   0.1532   0.4121     C
C       0.7799   0.3468   0.9121     C
H       0.7804   0.1754   0.1803     H
H       0.7804   0.3246   0.6803     H
H         0.79   0.6815   0.1505     H
H         0.79   0.8185   0.6505     H
Cd     0.79212  0.52234  0.98943    Cd
Cd     0.79212  0.97766  0.48943    Cd
H       0.7923   0.7291   0.8569     H
H       0.7923   0.7709   0.3569     H
C       0.8027   0.6447   0.7473     C
C       0.8027   0.8553   0.2473     C
C       0.8065   0.0236     0.35     C
C       0.8065   0.4764     0.85     C
C        0.808   0.1103   0.1238     C
C        0.808   0.3897   0.6238     C
O       0.8207   0.0129   0.5956     O
O       0.8207   0.4871   0.0956     O
H       0.8211   0.1912   0.4186     H
H       0.8211   0.3088   0.9186     H
N       0.8212   0.6608   0.8095     N
N       0.8212   0.8392   0.3095     N
H       0.8282   0.6057   0.7428     H
H       0.8282   0.8943   0.2428     H
H       0.8299   0.1203   0.4403     H
H       0.8299   0.3797   0.9403     H
O       0.8307  0.51558   0.8176     O
O       0.8307  0.98442   0.3176     O
C       0.8325   0.1622   0.1698     C
C       0.8325   0.3378   0.6698     C
H       0.8351   0.2387   0.5854     H
H       0.8351   0.2613   0.0854     H
H       0.8388   0.1281   0.9353     H
H       0.8388   0.3719   0.4353     H
O       0.8428  0.01636  0.41389     O
O       0.8428  0.48364  0.91389     O
H       0.8479   0.1777   0.5512     H
H       0.8479   0.3223   0.0512     H
H       0.8711   0.0565   0.0839     H
H       0.8711   0.4435   0.5839     H
H       0.8715   0.7127   0.4793     H
H       0.8715   0.7873   0.9793     H
C       0.8845   0.2052   0.5906     C
C       0.8845   0.2948   0.0906     C
C       0.8859   0.0567   0.6037     C
C       0.8859   0.4433   0.1037     C
C       0.8862   0.0915   0.1121     C
C       0.8862   0.4085   0.6121     C
F        0.888   0.6198   0.6163     F
F        0.888   0.8802   0.1163     F
Cd     0.89992  0.59126  0.90197    Cd
Cd     0.89992  0.90874  0.40197    Cd
C        0.917   0.1686    0.655     C
C        0.917   0.3314    0.155     C
C        0.919   0.1028   0.6606     C
C        0.919   0.3972   0.1606     C
O       0.9206  0.06436  0.56257     O
O       0.9206  0.43564  0.06257     O
H       0.9226    0.099   0.2961     H
H       0.9226    0.401   0.7961     H
H        0.923   0.6951   0.2991     H
H        0.923   0.8049   0.7991     H
H       0.9262   0.5065   0.2232     H
H       0.9262   0.9935   0.7232     H
O       0.9315   0.6756     0.97     O
O       0.9315   0.8244     0.47     O
C       0.9332   0.1926   0.1985     C
C       0.9332   0.3074   0.6985     C
F        0.934   0.1125   0.8542     F
F        0.934   0.3875   0.3542     F
O       0.9378  0.59123     0.03     O
O       0.9378  0.90877     0.53     O
H       0.9384   0.0233   0.7901     H
H       0.9384   0.4767   0.2901     H
H       0.9388   0.6569   0.5291     H
H       0.9388   0.8431   0.0291     H
C       0.9421   0.7003   0.5183     C
C       0.9421   0.7997   0.0183     C
C       0.9441   0.6503   0.0244     C
C       0.9441   0.8497   0.5244     C
C       0.9482   0.1924   0.7208     C
C       0.9482   0.3076   0.2208     C
C       0.9493   0.0877   0.7283     C
C       0.9493   0.4123   0.2283     C
H       0.9498   0.2226    0.594     H
H       0.9498   0.2774    0.094     H
H       0.9539   0.6076   0.3696     H
H       0.9539   0.8924   0.8696     H
H       0.9565   0.5138   0.7153     H
H       0.9565   0.9862   0.2153     H
C       0.9577   0.2447   0.2452     C
C       0.9577   0.2553   0.7452     C
H       0.9626   0.5832   0.1373     H
H       0.9626   0.9168   0.6373     H
C       0.9658   0.0239   0.7593     C
C       0.9658   0.4761   0.2593     C
H       0.9671   0.6106   0.2028     H
H       0.9671   0.8894   0.7028     H
C       0.9679   0.6933   0.0823     C
C       0.9679   0.8067   0.5823     C
N       0.9682   0.1417   0.7651     N
N       0.9682   0.3583   0.2651     N
C       0.9688   0.7401   0.5787     C
C       0.9688   0.7599   0.0787     C
C       0.9874   0.2334   0.3142     C
C       0.9874   0.2666   0.8142     C
C       0.9893   0.6729   0.3176     C
C       0.9893   0.8271   0.8176     C
N       0.9931   0.7168   0.6405     N
N       0.9931   0.7832   0.1405     N
C       0.9933   0.1216   0.1401     C
C       0.9933   0.3784   0.6401     C
C        0.995   0.6767   0.1495     C
C        0.995   0.8233   0.6495     C
B       0.9967   0.6469   0.6589     B
B       0.9967   0.8531   0.1589     B
H       0.9986   0.7054   0.5074     H
H       0.9986   0.7946   0.0074     H
C       0.9989   0.1116   0.3243     C
C       0.9989   0.3884   0.8243     C
