data_I
_chemical_name_common  '/home/zhangsd/repos/MofS-CGCNN/ML/data/TSD/clean_cifs/JUJZIZ_clean'
_cell_length_a  9.24700
_cell_length_b  9.97000
_cell_length_c 15.02500
_cell_angle_alpha 100.15100
_cell_angle_beta  91.37200
_cell_angle_gamma 91.77600
_space_group_name_H-M_alt      'P 1'


loop_
_space_group_symop_operation_xyz
  'x, y, z' 

loop_
_atom_site_label
_atom_site_fract_x
_atom_site_fract_y
_atom_site_fract_z
_atom_site_type_symbol
Co         0.0      0.0      0.0    Co
O       0.0232   0.6971   0.0756     O
O       0.0508   0.8082  0.93805     O
Co     0.06792  0.84395  0.80653    Co
H       0.0713   0.5243    0.678     H
O        0.084   0.9976  0.13207     O
P      0.11377  0.71019  0.99383     P
O       0.1387   0.5755  0.93437     O
H       0.1659   0.1738   0.7529     H
C       0.1659   0.5648   0.6884     C
Co     0.17063  0.38669  0.93748    Co
H        0.187    0.151   0.5121     H
O       0.1932   0.0847  0.96881     O
C       0.1943   0.9528   0.1685     C
N       0.1997   0.6873   0.7435     N
O       0.2136   0.9633   0.2512     O
H        0.216   0.2804   0.3992     H
O       0.2568   0.9552   0.8405     O
C       0.2577   0.2201   0.7635     C
O       0.2755   0.3703  0.04902     O
C        0.281   0.1833   0.5002     C
C       0.2829   0.0429    0.911     C
C       0.2859   0.5107   0.6513     C
C       0.2868   0.7839   0.0343     C
N       0.2886   0.3227     0.83     N
H       0.2897   0.0271   0.6243     H
H       0.2918   0.4273   0.6101     H
C       0.2978   0.2604   0.4334     C
C        0.312    0.891   0.1079     C
C       0.3406   0.7044    0.739     C
C       0.3502    0.271    0.068     C
O       0.3507   0.2379  0.14274     O
H       0.3519   0.6944   0.5473     H
N       0.3736   0.1901   0.7129     N
C       0.3799   0.0845   0.6317     C
H        0.383   0.8305   0.4381     H
H       0.3848   0.6617   0.9324     H
H       0.3869   0.3692   0.2954     H
H       0.3951   0.7815   0.7702     H
N       0.3978    0.599   0.6844     N
C       0.3984   0.1522   0.5501     C
C       0.4023   0.7349   0.9816     C
H       0.4205   0.7181   0.2726     H
H       0.4303   0.4946   0.3746     H
C       0.4309   0.3601   0.8209     C
C       0.4323    0.105   0.9276     C
C       0.4364   0.3092   0.4161     C
C       0.4465   0.7255   0.5354     C
C       0.4536   0.9406   0.1261     C
C       0.4547   0.4006   0.3474     C
C       0.4588   0.2107   0.0011     C
H       0.4623   0.0253   0.6377     H
C        0.465   0.8051   0.4698     C
H        0.473   0.0092   0.1779     H
H       0.4836    0.432   0.8593     H
C        0.484   0.2785   0.7489     C
C        0.516   0.7215   0.2511     C
H       0.5164    0.568   0.1407     H
H        0.527   0.9908   0.8221     H
C        0.535   0.1949   0.5302     C
H       0.5377   0.9747   0.3623     H
C       0.5412   0.7893   0.9989     C
C       0.5453   0.5994   0.6526     C
C       0.5464   0.0594   0.8739     C
C       0.5535   0.2745   0.4646     C
C       0.5636   0.6908   0.5839     C
C       0.5677    0.895   0.0724     C
C       0.5691   0.6399   0.1791     C
H       0.5697   0.5054   0.6254     H
H       0.5795   0.2819   0.7274     H
C       0.5977   0.2651   0.0184     C
C       0.6016   0.8478   0.4499     C
N       0.6022    0.401   0.3156     N
H       0.6049   0.2185   0.2298     H
H       0.6131   0.6308   0.7046     H
H       0.6152   0.3383   0.0676     H
H        0.617   0.1695   0.5619     H
C       0.6201   0.9155   0.3683     C
N       0.6264   0.8099   0.2871     N
H       0.6481   0.3056   0.4527     H
O       0.6493   0.7621  0.85726     O
C       0.6498    0.729    0.932     C
C       0.6594   0.2956    0.261     C
C        0.688    0.109   0.8921     C
C       0.7022   0.7396   0.5666     C
H       0.7082   0.5727   0.3899     H
H       0.7103   0.9729   0.3757     H
N       0.7114   0.6773     0.17     N
C       0.7132   0.2161   0.9657     C
C       0.7141   0.4893   0.3487     C
C       0.7171   0.9571    0.089     C
C        0.719   0.8167   0.4998     C
O       0.7245   0.6297  0.95098     O
C       0.7423   0.7799   0.2365     C
O       0.7432   0.0448   0.1595     O
H        0.784   0.7196   0.6008     H
O       0.7864   0.0367   0.7488     O
N       0.8003   0.3127   0.2565     N
C       0.8057   0.0472   0.8315     C
O       0.8068   0.9153  0.03119     O
H        0.813    0.849   0.4879     H
Co     0.82937  0.61331  0.06252    Co
C       0.8341   0.4352   0.3116     C
H       0.8341   0.8262   0.2471     H
O       0.8613   0.4245  0.06563     O
P      0.88623  0.28981  0.00617     P
O        0.916   0.0024  0.86793     O
H       0.9287   0.4757    0.322     H
Co     0.93208  0.15605  0.19347    Co
O       0.9492   0.1918  0.06195     O
O       0.9768   0.3029   0.9244     O
