data_I
_chemical_name_common  '/home/zhangsd/repos/MofS-CGCNN/ML/data/TSD/clean_cifs/JUJZEV_clean'
_cell_length_a 10.10320
_cell_length_b  9.22990
_cell_length_c 31.77300
_cell_angle_alpha 90.00000
_cell_angle_beta  107.48600
_cell_angle_gamma 90.00000
_space_group_name_H-M_alt      'P 1'


loop_
_space_group_symop_operation_xyz
  'x, y, z' 

loop_
_atom_site_label
_atom_site_fract_x
_atom_site_fract_y
_atom_site_fract_z
_atom_site_type_symbol
C       0.0028     0.37   0.7578     C
C       0.0028     0.63   0.2578     C
C        0.008   0.2739   0.0812     C
C        0.008   0.7261   0.5812     C
O       0.0135   0.1823  0.11081     O
O       0.0135   0.8177  0.61081     O
O       0.0149   0.0884   0.5604     O
O       0.0149   0.9116   0.0604     O
O       0.0406   0.2539   0.0462     O
O       0.0406   0.7461   0.5462     O
H       0.0442   0.4311   0.7412     H
H       0.0442   0.5689   0.2412     H
H       0.0449   0.4849   0.3878     H
H       0.0449   0.5151   0.8878     H
C       0.0747   0.3896   0.3346     C
C       0.0747   0.6104   0.8346     C
Co     0.09958  0.09649  0.71953    Co
Co     0.09958  0.90351  0.21953    Co
C       0.1092   0.4296   0.3779     C
C       0.1092   0.5704   0.8779     C
Co      0.1146  0.01311  0.62488    Co
Co      0.1146  0.98689  0.12488    Co
Co     0.13184  0.07046  0.02967    Co
Co     0.13184  0.92954  0.52967    Co
H        0.146   0.2829     0.29     H
H        0.146   0.7171     0.79     H
H       0.1665   0.4056    0.011     H
H       0.1665   0.5944    0.511     H
C       0.1686    0.311   0.3201     C
C       0.1686    0.689   0.8201     C
O       0.1803   0.2848  0.70224     O
O       0.1803   0.7152  0.20224     O
H       0.2123   0.3792   0.4699     H
H       0.2123   0.6208   0.9699     H
C       0.2134   0.3534    0.994     C
C       0.2134   0.6466    0.494     C
O       0.2164   0.0611   0.1895     O
O       0.2164   0.9389   0.6895     O
O       0.2176   0.2067   0.6406     O
O       0.2176   0.7933   0.1406     O
C       0.2181   0.3013   0.6681     C
C       0.2181   0.6987   0.1681     C
N       0.2301   0.2116   0.9959     N
N       0.2301   0.7884   0.4959     N
H       0.2317   0.4458   0.2115     H
H       0.2317   0.5542   0.7115     H
C       0.2375   0.3913   0.4084     C
C       0.2375   0.6087   0.9084     C
O       0.2474   0.3503    0.555     O
O       0.2474   0.6497    0.055     O
O       0.2595   0.0438   0.0943     O
O       0.2595   0.9562   0.5943     O
C        0.263   0.4328   0.1864     C
C        0.263   0.5672   0.6864     C
C       0.2679   0.4482     0.66     C
C       0.2679   0.5518     0.16     C
N       0.2706   0.4162    0.965     N
N       0.2706   0.5838    0.465     N
C       0.2759   0.4302   0.4565     C
C       0.2759   0.5698   0.9565     C
C       0.2841   0.1739   0.2069     C
C       0.2841   0.8261   0.7069     C
C       0.2955   0.2731   0.3492     C
C       0.2955   0.7269   0.8492     C
C       0.3025   0.2966   0.1771     C
C       0.3025   0.7034   0.6771     C
C       0.3027   0.1825   0.9668     C
C       0.3027   0.8175   0.4668     C
C       0.3214    0.468   0.6241     C
C       0.3214    0.532   0.1241     C
C       0.3297   0.3044   0.9483     C
C       0.3297   0.3129   0.3929     C
C       0.3297   0.6871   0.8929     C
C       0.3297   0.6956   0.4483     C
H       0.3301   0.0884   0.9606     H
H       0.3301   0.9116   0.4606     H
O       0.3349   0.1912   0.2471     O
O       0.3349   0.8088   0.7471     O
C       0.3353   0.3523   0.5921     C
C       0.3353   0.6477   0.0921     C
C       0.3566   0.2764   0.1415     C
C       0.3566   0.7236   0.6415     C
H       0.3598   0.2191    0.339     H
H       0.3598   0.7809    0.839     H
C       0.3667    0.396    0.116     C
C       0.3667    0.604    0.616     C
H       0.3711   0.3948   0.4712     H
H       0.3711   0.6052   0.9712     H
H         0.38   0.3124   0.9275     H
H         0.38   0.6876   0.4275     H
H       0.3934   0.4577   0.2901     H
H       0.3934   0.5423   0.7901     H
P       0.3998   0.1059   0.1217     P
P       0.3998   0.8941   0.6217     P
H       0.4056   0.3842   0.0925     H
H       0.4056   0.6158   0.5925     H
H       0.4077   0.3755   0.8047     H
H       0.4077   0.6245   0.3047     H
H       0.4173   0.2862   0.4126     H
H       0.4173   0.7138   0.9126     H
O       0.4441    0.275   0.6017     O
O       0.4441    0.725   0.1017     O
C       0.4593   0.4604   0.7988     C
C       0.4593   0.5396   0.2988     C
H       0.4677   0.2126   0.7487     H
H       0.4677   0.7874   0.2487     H
O       0.4724   0.0121  0.16119     O
O       0.4724   0.9879  0.66119     O
O       0.4888    0.137   0.0919     O
O       0.4888    0.863   0.5919     O
C       0.5079   0.2979   0.7411     C
C       0.5079   0.7021   0.2411     C
N        0.517   0.4263   0.7623     N
N        0.517   0.5737   0.2623     N
Co     0.54788  0.17972  0.65698    Co
Co     0.54788  0.82028  0.15698    Co
N       0.5623    0.308   0.7089     N
N       0.5623    0.692   0.2089     N
C       0.5733   0.4998   0.8402     C
C       0.5733   0.5002   0.3402     C
H       0.5818   0.4634   0.0448     H
H       0.5818   0.5366   0.5448     H
C        0.584   0.4773   0.2429     C
C        0.584   0.5227   0.7429     C
H       0.5878   0.2857   0.3244     H
H       0.5878   0.7143   0.8244     H
H       0.5888   0.3025   0.8689     H
H       0.5888   0.6975   0.3689     H
H       0.6056   0.3789   0.2508     H
H       0.6056   0.6211   0.7508     H
C       0.6123   0.4492   0.7105     C
C       0.6123   0.5508   0.2105     C
C       0.6257   0.3582   0.3458     C
C       0.6257   0.6418   0.8458     C
C       0.6265   0.3976   0.8722     C
C       0.6265   0.6024   0.3722     C
C       0.6266   0.4041   0.0288     C
C       0.6266   0.5959   0.5288     C
H        0.643   0.4621   0.4783     H
H        0.643   0.5379   0.9783     H
H       0.6597   0.4877   0.6914     H
H       0.6597   0.5123   0.1914     H
C       0.6599   0.4458   0.9922     C
C       0.6599   0.5542   0.4922     C
N       0.6668   0.2657    0.039     N
N       0.6668   0.7343    0.539     N
Co     0.67981  0.15545  0.09389    Co
Co     0.67981  0.84455  0.59389    Co
N       0.7223   0.3299   0.9792     N
N       0.7223   0.6701   0.4792     N
C       0.7256   0.2214   0.0084     C
C       0.7256   0.7786   0.5084     C
C       0.7336   0.3261   0.3833     C
C       0.7336   0.6739   0.8833     C
C       0.7352   0.4325   0.9095     C
C       0.7352   0.5675   0.4095     C
O       0.7395   0.1611  0.65723     O
O       0.7395   0.8389  0.15723     O
O       0.7569   0.0363   0.5883     O
O       0.7569   0.9637   0.0883     O
H       0.7639   0.1279   0.0074     H
H       0.7639   0.8721   0.5074     H
H       0.7706   0.2307   0.3873     H
H       0.7706   0.7693   0.8873     H
H       0.7804   0.2233   0.9322     H
H       0.7804   0.7767   0.4322     H
O       0.7841   0.2486   0.1487     O
O       0.7841   0.7514   0.6487     O
C       0.7886   0.4301   0.4148     C
C       0.7886   0.5699   0.9148     C
C       0.7926   0.3215   0.9453     C
C       0.7926   0.6785   0.4453     C
H       0.8239   0.4101   0.6569     H
H       0.8239   0.5899   0.1569     H
P       0.8289   0.1315  0.62781     P
P       0.8289   0.8685  0.12781     P
H       0.8503   0.3001   0.8273     H
H       0.8503   0.6999   0.3273     H
C       0.8618   0.4225   0.6332     C
C       0.8618   0.5775   0.1332     C
H       0.8633   0.4064   0.4402     H
H       0.8633   0.5936   0.9402     H
H       0.8637   0.4217    0.316     H
H       0.8637   0.5783    0.816     H
C       0.8712   0.3015   0.6074     C
C       0.8712   0.6985   0.1074     C
H       0.8932   0.3384   0.9589     H
H       0.8932   0.6616   0.4589     H
C       0.8948   0.3281   0.1589     C
C       0.8948   0.6719   0.6589     C
C       0.8968   0.2999   0.8054     C
C       0.8968   0.7001   0.3054     C
O       0.9029   0.2202   0.5017     O
O       0.9029   0.7798   0.0017     O
C       0.9056   0.4416   0.1253     C
C       0.9056   0.5584   0.6253     C
H       0.9155   0.0836   0.7908     H
H       0.9155   0.9164   0.2908     H
H        0.918   0.3672   0.2762     H
H        0.918   0.6328   0.7762     H
C       0.9253   0.3232    0.572     C
C       0.9253   0.6768    0.072     C
C       0.9325   0.1817    0.785     C
C       0.9325   0.8183    0.285     C
C       0.9387   0.4326   0.3021     C
C       0.9387   0.5674   0.8021     C
N       0.9421   0.4174   0.7875     N
N       0.9421   0.5826   0.2875     N
C       0.9467   0.2009    0.543     C
C       0.9467   0.7991    0.043     C
C        0.956   0.4198   0.0896     C
C        0.956   0.5802   0.5896     C
C       0.9627   0.4631   0.5631     C
C       0.9627   0.5369   0.0631     C
O       0.9685   0.0699  0.65512     O
O       0.9685   0.9301  0.15512     O
O       0.9813   0.3309   0.1957     O
O       0.9813   0.6691   0.6957     O
H       0.9938   0.4783   0.5381     H
H       0.9938   0.5217   0.0381     H
N       0.9972   0.2277   0.7546     N
N       0.9972   0.7723   0.2546     N
