data_I
_chemical_name_common  '/home/zhangsd/repos/MofS-CGCNN/ML/data/TSD/clean_cifs/JUKNUA_clean'
_cell_length_a 29.39480
_cell_length_b 21.29380
_cell_length_c 28.61800
_cell_angle_alpha 90.00000
_cell_angle_beta  110.72200
_cell_angle_gamma 90.00000
_space_group_name_H-M_alt      'P 1'


loop_
_space_group_symop_operation_xyz
  'x, y, z' 

loop_
_atom_site_label
_atom_site_fract_x
_atom_site_fract_y
_atom_site_fract_z
_atom_site_type_symbol
P          0.0   0.2947     0.75     P
P          0.0   0.7053     0.25     P
O       0.0024   0.2482   0.8592     O
O       0.0024   0.7518   0.3592     O
N       0.0026   0.1066    0.049     N
N       0.0026   0.8934    0.549     N
N       0.0055   0.0451   0.0623     N
N       0.0055   0.9549   0.5623     N
O       0.0073   0.4015   0.0605     O
O       0.0073   0.5985   0.5605     O
O       0.0081    0.332   0.3662     O
O       0.0081   0.3751   0.6257     O
O       0.0081   0.6249   0.1257     O
O       0.0081    0.668   0.8662     O
W       0.0098  0.41522  0.38786     W
W       0.0098  0.58478  0.88786     W
O       0.0144   0.4603   0.7286     O
O       0.0144   0.5397   0.2286     O
N       0.0153   0.2239   0.0294     N
N       0.0153   0.7761   0.5294     N
H       0.0179   0.0219   0.4362     H
H       0.0179   0.9781   0.9362     H
O        0.018   0.4945   0.8995     O
O        0.018   0.5055   0.3995     O
H       0.0183   0.0884   0.5835     H
H       0.0183   0.9116   0.0835     H
Cu     0.01847  0.35312  0.51196    Cu
Cu     0.01847  0.64688  0.01196    Cu
O        0.019   0.3352   0.7172     O
O        0.019   0.6648   0.2172     O
O       0.0205   0.2534   0.2083     O
O       0.0205   0.7466   0.7083     O
Na      0.0248   0.4596   0.7097    Na
Na      0.0248   0.5404   0.2097    Na
O       0.0252   0.1604    0.709     O
O       0.0252   0.8396    0.209     O
N       0.0257   0.2788   0.0113     N
N       0.0257   0.7212   0.5113     N
O       0.0313    0.439   0.3251     O
O       0.0313    0.561   0.8251     O
W      0.03188  0.18099  0.83799     W
W      0.03188  0.81901  0.33799     W
O       0.0332   0.4013   0.9715     O
O       0.0332   0.5987   0.4715     O
O       0.0407   0.2515   0.7826     O
O       0.0407   0.7485   0.2826     O
Cu     0.04385  0.17689  0.46778    Cu
Cu     0.04385  0.82311  0.96778    Cu
W      0.04448  0.26602   0.3494     W
W      0.04448  0.73398   0.8494     W
W      0.04679   0.4168  0.91727     W
W      0.04679   0.5832  0.41727     W
C       0.0471    0.123   0.0519     C
C       0.0471    0.877   0.5519     C
W      0.04955  0.30855  0.66051     W
W      0.04955  0.69145  0.16051     W
C       0.0502    0.028   0.0725     C
C       0.0502    0.972   0.5725     C
C        0.052   0.0871   0.5927     C
C        0.052   0.9129   0.0927     C
O       0.0523   0.3375   0.2921     O
O       0.0523   0.6625   0.7921     O
O       0.0525   0.4331   0.1585     O
O       0.0525   0.5669   0.6585     O
C       0.0537   0.1874   0.0375     C
C       0.0537   0.8126   0.5375     C
H       0.0592   0.4959   0.0581     H
H       0.0592   0.5041   0.5581     H
H       0.0618   0.1772   0.6085     H
H       0.0618   0.8228   0.1085     H
O       0.0631   0.4235   0.8498     O
O       0.0631   0.5765   0.3498     O
P        0.067  0.40683  0.30451     P
P        0.067  0.59317  0.80451     P
O       0.0691   0.4395   0.2579     O
O       0.0691   0.5605   0.7579     O
C       0.0697   0.2722   0.0096     C
C       0.0697   0.7278   0.5096     C
N       0.0714   0.4124   0.5497     N
N       0.0714   0.5876   0.0497     N
O        0.072    0.223    0.307     O
O        0.072    0.777    0.807     O
O       0.0737   0.1426   0.8077     O
O       0.0737   0.8574   0.3077     O
C       0.0738   0.0315   0.5892     C
C       0.0738   0.9685   0.0892     C
N       0.0757   0.3026   0.5134     N
N       0.0757   0.6974   0.0134     N
C       0.0772    0.139   0.6087     C
C       0.0772    0.861   0.1087     C
O       0.0777   0.4056    0.422     O
O       0.0777   0.5944    0.922     O
N       0.0785   0.0767   0.0666     N
N       0.0785   0.9233   0.5666     N
W      0.08139  0.26596  0.25156     W
W      0.08139  0.73404  0.75156     W
C       0.0821   0.4721   0.5649     C
C       0.0821   0.5279   0.0649     C
O       0.0826   0.3378   0.9227     O
O       0.0826   0.6622   0.4227     O
N       0.0845   0.2443   0.5012     N
N       0.0845   0.7557   0.0012     N
O       0.0856   0.2488   0.7097     O
O       0.0856   0.7512   0.2097     O
H        0.086   0.3033   0.9989     H
H        0.086   0.6967   0.4989     H
N       0.0884   0.2141   0.0254     N
N       0.0884   0.7859   0.5254     N
W      0.09319  0.18882  0.76028     W
W      0.09319  0.81118  0.26028     W
H       0.0936   0.0489   0.4605     H
H       0.0936   0.9511   0.9605     H
O       0.0938   0.3353    0.217     O
O       0.0938   0.6647    0.717     O
O       0.0945   0.2266   0.8818     O
O       0.0945   0.7734   0.3818     O
O        0.098   0.3704   0.6938     O
O        0.098   0.6296   0.1938     O
O       0.0997   0.3009   0.3906     O
O       0.0997   0.6991   0.8906     O
O       0.1002   0.4201   0.7826     O
O       0.1002   0.5799   0.2826     O
P       0.1084   0.4091  0.83713     P
P       0.1084   0.5909  0.33713     P
O       0.1087   0.4537    0.949     O
O       0.1087   0.5463    0.449     O
N       0.1095   0.1329   0.4912     N
N       0.1095   0.8671   0.9912     N
W      0.11353  0.42109  0.21183     W
W      0.11353  0.57891  0.71183     W
C       0.1176   0.3848   0.5676     C
C       0.1176   0.6152   0.0676     C
C       0.1187   0.3204   0.5497     C
C       0.1187   0.6796   0.0497     C
C       0.1188    0.074   0.4806     C
C       0.1188    0.926   0.9806     C
O       0.1189   0.4063   0.3456     O
O       0.1189   0.5937   0.8456     O
O       0.1218   0.4912   0.7162     O
O       0.1218   0.5088   0.2162     O
N       0.1227   0.0281   0.6053     N
N       0.1227   0.9719   0.1053     N
O        0.125   0.3403   0.8509     O
O        0.125   0.6597   0.3509     O
C       0.1267   0.1346   0.6254     C
C       0.1267   0.8654   0.1254     C
N       0.1288   0.4801   0.5905     N
N       0.1288   0.5199   0.0905     N
C       0.1297   0.2301   0.5289     C
C       0.1297   0.7699   0.0289     C
W      0.13267  0.28684  0.91911     W
W      0.13267  0.71316  0.41911     W
W      0.14101  0.37889  0.42587     W
W      0.14101  0.62111  0.92587     W
O       0.1437   0.2298   0.8054     O
O       0.1437   0.7702   0.3054     O
O       0.1453   0.2976   0.3059     O
O       0.1453   0.7024   0.8059     O
H       0.1455   0.1702   0.6375     H
H       0.1455   0.8298   0.1375     H
C       0.1469   0.1681   0.5201     C
C       0.1469   0.8319   0.0201     C
Cu      0.1484  0.06004  0.10103    Cu
Cu      0.1484  0.93996  0.60103    Cu
C       0.1489   0.0784   0.6246     C
C       0.1489   0.9216   0.1246     C
W      0.14996  0.41187  0.73967     W
W      0.14996  0.58813  0.23967     W
O       0.1509   0.4515   0.8716     O
O       0.1509   0.5485   0.3716     O
N       0.1512   0.4226   0.5927     N
N       0.1512   0.5774   0.0927     N
O       0.1515   0.2504   0.9778     O
O       0.1515   0.7496   0.4778     O
Cu     0.15258  0.18364  0.02662    Cu
Cu     0.15258  0.81636  0.52662    Cu
N        0.153    0.277   0.5602     N
N        0.153    0.723   0.0602     N
O       0.1643   0.4081   0.2744     O
O       0.1643   0.5919   0.7744     O
C       0.1661   0.0503   0.4995     C
C       0.1661   0.9497   0.9995     C
O       0.1675   0.1442   0.0905     O
O       0.1675   0.8558   0.5905     O
O       0.1685   0.4561   0.4433     O
O       0.1685   0.5439   0.9433     O
Cu     0.17027   0.4433  0.11062    Cu
Cu     0.17027   0.5567  0.61062    Cu
O       0.1705   0.3349   0.7771     O
O       0.1705   0.6651   0.2771     O
H       0.1721   0.0087   0.4935     H
H       0.1721   0.9913   0.9935     H
O       0.1739   0.3662   0.9509     O
O       0.1739   0.6338   0.4509     O
W      0.17676  0.45098  0.95798     W
W      0.17676  0.54902  0.45798     W
H       0.1826   0.0756   0.6377     H
H       0.1826   0.9244   0.1377     H
H       0.1852   0.1673   0.1186     H
H       0.1852   0.8327   0.6186     H
W      0.18555  0.36181  0.33497     W
W      0.18555  0.63819  0.83497     W
O       0.1876   0.2644   0.9007     O
O       0.1876   0.7356   0.4007     O
O       0.1891   0.3451   0.4017     O
O       0.1891   0.6549   0.9017     O
W      0.19327  0.29692  0.84071     W
W      0.19327  0.70308  0.34071     W
O       0.1944    0.454   0.7998     O
O       0.1944    0.546   0.2998     O
C       0.1945   0.1484   0.5374     C
C       0.1945   0.8516   0.0374     C
C       0.2033   0.0881   0.5267     C
C       0.2033   0.9119   0.0267     C
O       0.2127   0.4494   0.3645     O
O       0.2127   0.5506   0.8645     O
O       0.2151   0.0322   0.1236     O
O       0.2151   0.9678   0.6236     O
H       0.2197    0.175   0.5556     H
H       0.2197    0.825   0.0556     H
Cu     0.22198  0.41499  0.63811    Cu
Cu     0.22198  0.58501  0.13811    Cu
O       0.2227   0.3695   0.8695     O
O       0.2227   0.6305   0.3695     O
W       0.2228  0.46801  0.86769     W
W       0.2228  0.53199  0.36769     W
O       0.2229   0.4965   0.1443     O
O       0.2229   0.5035   0.6443     O
O       0.2322   0.4599   0.9381     O
O       0.2322   0.5401   0.4381     O
H        0.235   0.0728    0.538     H
H        0.235   0.9272    0.038     H
H       0.2486   0.0221   0.8345     H
H       0.2486   0.9779   0.3345     H
H       0.2514   0.4779   0.1655     H
H       0.2514   0.5221   0.6655     H
H        0.265   0.4272    0.462     H
H        0.265   0.5728    0.962     H
O       0.2678   0.0401   0.0619     O
O       0.2678   0.9599   0.5619     O
O       0.2771   0.0035   0.8557     O
O       0.2771   0.9965   0.3557     O
W       0.2772  0.03199  0.13231     W
W       0.2772  0.96801  0.63231     W
O       0.2773   0.1305   0.1305     O
O       0.2773   0.8695   0.6305     O
Cu     0.27802  0.08501  0.36189    Cu
Cu     0.27802  0.91499  0.86189    Cu
H       0.2803    0.325   0.4444     H
H       0.2803    0.675   0.9444     H
O       0.2849   0.4678   0.8764     O
O       0.2849   0.5322   0.3764     O
O       0.2873   0.0506   0.6355     O
O       0.2873   0.9494   0.1355     O
C       0.2967   0.4119   0.4733     C
C       0.2967   0.5881   0.9733     C
C       0.3055   0.3516   0.4626     C
C       0.3055   0.6484   0.9626     C
O       0.3056    0.046   0.2002     O
O       0.3056    0.954   0.7002     O
W      0.30673  0.20308  0.15929     W
W      0.30673  0.79692  0.65929     W
O       0.3109   0.1549   0.5983     O
O       0.3109   0.8451   0.0983     O
O       0.3124   0.2356   0.0993     O
O       0.3124   0.7644   0.5993     O
W      0.31445  0.13819  0.66503     W
W      0.31445  0.86181  0.16503     W
H       0.3148   0.3327   0.8814     H
H       0.3148   0.6673   0.3814     H
H       0.3174   0.4244   0.3623     H
H       0.3174   0.5756   0.8623     H
W      0.32324  0.04902  0.04202     W
W      0.32324  0.95098  0.54202     W
O       0.3261   0.1338   0.0491     O
O       0.3261   0.8662   0.5491     O
H       0.3279   0.4913   0.5065     H
H       0.3279   0.5087   0.0065     H
O       0.3295   0.1651   0.2229     O
O       0.3295   0.8349   0.7229     O
Cu     0.32973   0.0567  0.88938    Cu
Cu     0.32973   0.9433  0.38938    Cu
O       0.3315   0.0439   0.5567     O
O       0.3315   0.9561   0.0567     O
O       0.3325   0.3558   0.9095     O
O       0.3325   0.6442   0.4095     O
C       0.3339   0.4497   0.5005     C
C       0.3339   0.5503   0.0005     C
O       0.3357   0.0919   0.7256     O
O       0.3357   0.9081   0.2256     O
N        0.347    0.223   0.4398     N
N        0.347    0.777   0.9398     N
Cu     0.34742  0.31636  0.97338    Cu
Cu     0.34742  0.68364  0.47338    Cu
O       0.3485   0.2496   0.0222     O
O       0.3485   0.7504   0.5222     O
N       0.3488   0.0774   0.4073     N
N       0.3488   0.9226   0.9073     N
O       0.3491   0.0485   0.1284     O
O       0.3491   0.9515   0.6284     O
W      0.35004  0.08813  0.26033     W
W      0.35004  0.91187  0.76033     W
C       0.3511   0.4216   0.3754     C
C       0.3511   0.5784   0.8754     C
Cu      0.3516  0.43996  0.89897    Cu
Cu      0.3516  0.56004  0.39897    Cu
C       0.3531   0.3319   0.4799     C
C       0.3531   0.6681   0.9799     C
H       0.3545   0.3298   0.3625     H
H       0.3545   0.6702   0.8625     H
O       0.3547   0.2024   0.6941     O
O       0.3547   0.7976   0.1941     O
O       0.3563   0.2702   0.1946     O
O       0.3563   0.7298   0.6946     O
W      0.35899  0.12111  0.57413     W
W      0.35899  0.87889  0.07413     W
W      0.36733  0.21316  0.08089     W
W      0.36733  0.78684  0.58089     W
C       0.3703   0.2699   0.4711     C
C       0.3703   0.7301   0.9711     C
N       0.3712   0.0199   0.4095     N
N       0.3712   0.9801   0.9095     N
C       0.3733   0.3654   0.3746     C
C       0.3733   0.6346   0.8746     C
O        0.375   0.1597   0.1491     O
O        0.375   0.8403   0.6491     O
N       0.3773   0.4719   0.3947     N
N       0.3773   0.5281   0.8947     N
O       0.3782   0.0088   0.2838     O
O       0.3782   0.9912   0.7838     O
O       0.3811   0.0937   0.6544     O
O       0.3811   0.9063   0.1544     O
C       0.3812    0.426   0.5194     C
C       0.3812    0.574   0.0194     C
C       0.3813   0.1796   0.4503     C
C       0.3813   0.8204   0.9503     C
C       0.3824   0.1152   0.4324     C
C       0.3824   0.8848   0.9324     C
W      0.38647  0.07891  0.78817     W
W      0.38647  0.92109  0.28817     W
N       0.3905   0.3671   0.5088     N
N       0.3905   0.6329   0.0088     N
O       0.3913   0.0463    0.051     O
O       0.3913   0.9537    0.551     O
P       0.3916   0.0909  0.16287     P
P       0.3916   0.9091  0.66287     P
O       0.3998   0.0799   0.2174     O
O       0.3998   0.9201   0.7174     O
O       0.4003   0.1991   0.6094     O
O       0.4003   0.8009   0.1094     O
O        0.402   0.1296   0.3062     O
O        0.402   0.8704   0.8062     O
O       0.4055   0.2734   0.1182     O
O       0.4055   0.7266   0.6182     O
O       0.4062   0.1647    0.783     O
O       0.4062   0.8353    0.283     O
H       0.4064   0.4511   0.5395     H
H       0.4064   0.5489   0.0395     H
W      0.40681  0.31118  0.23972     W
W      0.40681  0.68882  0.73972     W
N       0.4116   0.2859   0.9746     N
N       0.4116   0.7141   0.4746     N
H        0.414   0.1967   0.0011     H
H        0.414   0.8033   0.5011     H
O       0.4144   0.2512   0.2903     O
O       0.4144   0.7488   0.7903     O
N       0.4155   0.2557   0.4988     N
N       0.4155   0.7443   0.9988     N
O       0.4174   0.1622   0.0773     O
O       0.4174   0.8378   0.5773     O
C       0.4179   0.0279   0.4351     C
C       0.4179   0.9721   0.9351     C
W      0.41861  0.23404  0.74844     W
W      0.41861  0.76596  0.24844     W
N       0.4215   0.4233   0.9334     N
N       0.4215   0.5767   0.4334     N
O       0.4223   0.0944    0.578     O
O       0.4223   0.9056    0.078     O
C       0.4228    0.361   0.3913     C
C       0.4228    0.639   0.8913     C
N       0.4243   0.1974   0.4866     N
N       0.4243   0.8026   0.9866     N
C       0.4262   0.4685   0.4108     C
C       0.4262   0.5315   0.9108     C
O       0.4263   0.3574   0.1923     O
O       0.4263   0.6426   0.6923     O
O        0.428    0.277    0.693     O
O        0.428    0.723    0.193     O
N       0.4286   0.0876   0.4503     N
N       0.4286   0.9124   0.9503     N
C       0.4303   0.2278   0.9904     C
C       0.4303   0.7722   0.4904     C
O       0.4309   0.0605   0.7421     O
O       0.4309   0.9395   0.2421     O
P        0.433  0.09317  0.69549     P
P        0.433  0.90683  0.19549     P
O       0.4369   0.0765   0.1502     O
O       0.4369   0.9235   0.6502     O
H       0.4382   0.3228   0.3915     H
H       0.4382   0.6772   0.8915     H
H       0.4408   0.0041   0.9419     H
H       0.4408   0.9959   0.4419     H
C       0.4463   0.3126   0.9625     C
C       0.4463   0.6874   0.4625     C
O       0.4475   0.0669   0.8415     O
O       0.4475   0.9331   0.3415     O
O       0.4477   0.1625   0.7079     O
O       0.4477   0.8375   0.2079     O
C        0.448   0.4129   0.4073     C
C        0.448   0.5871   0.9073     C
C       0.4498    0.472   0.9275     C
C       0.4498    0.528   0.4275     C
W      0.45045  0.19145  0.33949     W
W      0.45045  0.80855  0.83949     W
C       0.4529    0.377   0.9481     C
C       0.4529    0.623   0.4481     C
W      0.45321   0.0832  0.08273     W
W      0.45321   0.9168  0.58273     W
W      0.45552  0.23398   0.6506     W
W      0.45552  0.76602   0.1506     W
Cu     0.45615  0.32311  0.53222    Cu
Cu     0.45615  0.67689  0.03222    Cu
O       0.4593   0.2485   0.2174     O
O       0.4593   0.7515   0.7174     O
O       0.4668   0.0987   0.0285     O
O       0.4668   0.9013   0.5285     O
W      0.46812  0.31901  0.16201     W
W      0.46812  0.68099  0.66201     W
O       0.4687    0.061   0.6749     O
O       0.4687    0.939   0.1749     O
N       0.4743   0.2212   0.9887     N
N       0.4743   0.7788   0.4887     N
O       0.4748   0.3396    0.291     O
O       0.4748   0.6604    0.791     O
Na      0.4752   0.0404   0.2903    Na
Na      0.4752   0.9596   0.7903    Na
O       0.4795   0.2466   0.7917     O
O       0.4795   0.7534   0.2917     O
O        0.481   0.1648   0.2828     O
O        0.481   0.8352   0.7828     O
Cu     0.48153  0.14688  0.48804    Cu
Cu     0.48153  0.85312  0.98804    Cu
H       0.4817   0.4116   0.4165     H
H       0.4817   0.5884   0.9165     H
O        0.482   0.0055   0.1005     O
O        0.482   0.9945   0.6005     O
H       0.4821   0.4781   0.5638     H
H       0.4821   0.5219   0.0638     H
N       0.4847   0.2761   0.9706     N
N       0.4847   0.7239   0.4706     N
O       0.4856   0.0397   0.2714     O
O       0.4856   0.9603   0.7714     O
W       0.4902  0.08478  0.61214     W
W       0.4902  0.91522  0.11214     W
O       0.4919   0.1249   0.3743     O
O       0.4919    0.168   0.6338     O
O       0.4919    0.832   0.1338     O
O       0.4919   0.8751   0.8743     O
O       0.4927   0.0985   0.9395     O
O       0.4927   0.9015   0.4395     O
N       0.4945   0.4549   0.9377     N
N       0.4945   0.5451   0.4377     N
N       0.4974   0.3934    0.951     N
N       0.4974   0.6066    0.451     N
O       0.4976   0.2518   0.1408     O
O       0.4976   0.7482   0.6408     O
P          0.5   0.2053     0.25     P
P          0.5   0.7947     0.75     P
O       0.5024   0.2518   0.3592     O
O       0.5024   0.7482   0.8592     O
N       0.5026   0.3934    0.549     N
N       0.5026   0.6066    0.049     N
N       0.5055   0.4549   0.5623     N
N       0.5055   0.5451   0.0623     N
O       0.5073   0.0985   0.5605     O
O       0.5073   0.9015   0.0605     O
O       0.5081   0.1249   0.1257     O
O       0.5081    0.168   0.8662     O
O       0.5081    0.832   0.3662     O
O       0.5081   0.8751   0.6257     O
W       0.5098  0.08478  0.88786     W
W       0.5098  0.91522  0.38786     W
O       0.5144   0.0397   0.2286     O
O       0.5144   0.9603   0.7286     O
N       0.5153   0.2761   0.5294     N
N       0.5153   0.7239   0.0294     N
H       0.5179   0.4781   0.9362     H
H       0.5179   0.5219   0.4362     H
O        0.518   0.0055   0.3995     O
O        0.518   0.9945   0.8995     O
H       0.5183   0.4116   0.0835     H
H       0.5183   0.5884   0.5835     H
Cu     0.51847  0.14688  0.01196    Cu
Cu     0.51847  0.85312  0.51196    Cu
O        0.519   0.1648   0.2172     O
O        0.519   0.8352   0.7172     O
O       0.5205   0.2466   0.7083     O
O       0.5205   0.7534   0.2083     O
Na      0.5248   0.0404   0.2097    Na
Na      0.5248   0.9596   0.7097    Na
O       0.5252   0.3396    0.209     O
O       0.5252   0.6604    0.709     O
N       0.5257   0.2212   0.5113     N
N       0.5257   0.7788   0.0113     N
O       0.5313    0.061   0.8251     O
O       0.5313    0.939   0.3251     O
W      0.53188  0.31901  0.33799     W
W      0.53188  0.68099  0.83799     W
O       0.5332   0.0987   0.4715     O
O       0.5332   0.9013   0.9715     O
O       0.5407   0.2485   0.2826     O
O       0.5407   0.7515   0.7826     O
Cu     0.54385  0.32311  0.96778    Cu
Cu     0.54385  0.67689  0.46778    Cu
W      0.54448  0.23398   0.8494     W
W      0.54448  0.76602   0.3494     W
W      0.54679   0.0832  0.41727     W
W      0.54679   0.9168  0.91727     W
C       0.5471    0.377   0.5519     C
C       0.5471    0.623   0.0519     C
W      0.54955  0.19145  0.16051     W
W      0.54955  0.80855  0.66051     W
C       0.5502    0.472   0.5725     C
C       0.5502    0.528   0.0725     C
C        0.552   0.4129   0.0927     C
C        0.552   0.5871   0.5927     C
O       0.5523   0.1625   0.7921     O
O       0.5523   0.8375   0.2921     O
O       0.5525   0.0669   0.6585     O
O       0.5525   0.9331   0.1585     O
C       0.5537   0.3126   0.5375     C
C       0.5537   0.6874   0.0375     C
H       0.5592   0.0041   0.5581     H
H       0.5592   0.9959   0.0581     H
H       0.5618   0.3228   0.1085     H
H       0.5618   0.6772   0.6085     H
O       0.5631   0.0765   0.3498     O
O       0.5631   0.9235   0.8498     O
P        0.567  0.09317  0.80451     P
P        0.567  0.90683  0.30451     P
O       0.5691   0.0605   0.7579     O
O       0.5691   0.9395   0.2579     O
C       0.5697   0.2278   0.5096     C
C       0.5697   0.7722   0.0096     C
N       0.5714   0.0876   0.0497     N
N       0.5714   0.9124   0.5497     N
O        0.572    0.277    0.807     O
O        0.572    0.723    0.307     O
O       0.5737   0.3574   0.3077     O
O       0.5737   0.6426   0.8077     O
C       0.5738   0.4685   0.0892     C
C       0.5738   0.5315   0.5892     C
N       0.5757   0.1974   0.0134     N
N       0.5757   0.8026   0.5134     N
C       0.5772    0.361   0.1087     C
C       0.5772    0.639   0.6087     C
O       0.5777   0.0944    0.922     O
O       0.5777   0.9056    0.422     O
N       0.5785   0.4233   0.5666     N
N       0.5785   0.5767   0.0666     N
W      0.58139  0.23404  0.75156     W
W      0.58139  0.76596  0.25156     W
C       0.5821   0.0279   0.0649     C
C       0.5821   0.9721   0.5649     C
O       0.5826   0.1622   0.4227     O
O       0.5826   0.8378   0.9227     O
N       0.5845   0.2557   0.0012     N
N       0.5845   0.7443   0.5012     N
O       0.5856   0.2512   0.2097     O
O       0.5856   0.7488   0.7097     O
H        0.586   0.1967   0.4989     H
H        0.586   0.8033   0.9989     H
N       0.5884   0.2859   0.5254     N
N       0.5884   0.7141   0.0254     N
W      0.59319  0.31118  0.26028     W
W      0.59319  0.68882  0.76028     W
H       0.5936   0.4511   0.9605     H
H       0.5936   0.5489   0.4605     H
O       0.5938   0.1647    0.717     O
O       0.5938   0.8353    0.217     O
O       0.5945   0.2734   0.3818     O
O       0.5945   0.7266   0.8818     O
O        0.598   0.1296   0.1938     O
O        0.598   0.8704   0.6938     O
O       0.5997   0.1991   0.8906     O
O       0.5997   0.8009   0.3906     O
O       0.6002   0.0799   0.2826     O
O       0.6002   0.9201   0.7826     O
P       0.6084   0.0909  0.33713     P
P       0.6084   0.9091  0.83713     P
O       0.6087   0.0463    0.449     O
O       0.6087   0.9537    0.949     O
N       0.6095   0.3671   0.9912     N
N       0.6095   0.6329   0.4912     N
W      0.61353  0.07891  0.71183     W
W      0.61353  0.92109  0.21183     W
C       0.6176   0.1152   0.0676     C
C       0.6176   0.8848   0.5676     C
C       0.6187   0.1796   0.0497     C
C       0.6187   0.8204   0.5497     C
C       0.6188    0.426   0.9806     C
C       0.6188    0.574   0.4806     C
O       0.6189   0.0937   0.8456     O
O       0.6189   0.9063   0.3456     O
O       0.6218   0.0088   0.2162     O
O       0.6218   0.9912   0.7162     O
N       0.6227   0.4719   0.1053     N
N       0.6227   0.5281   0.6053     N
O        0.625   0.1597   0.3509     O
O        0.625   0.8403   0.8509     O
C       0.6267   0.3654   0.1254     C
C       0.6267   0.6346   0.6254     C
N       0.6288   0.0199   0.0905     N
N       0.6288   0.9801   0.5905     N
C       0.6297   0.2699   0.0289     C
C       0.6297   0.7301   0.5289     C
W      0.63267  0.21316  0.41911     W
W      0.63267  0.78684  0.91911     W
W      0.64101  0.12111  0.92587     W
W      0.64101  0.87889  0.42587     W
O       0.6437   0.2702   0.3054     O
O       0.6437   0.7298   0.8054     O
O       0.6453   0.2024   0.8059     O
O       0.6453   0.7976   0.3059     O
H       0.6455   0.3298   0.1375     H
H       0.6455   0.6702   0.6375     H
C       0.6469   0.3319   0.0201     C
C       0.6469   0.6681   0.5201     C
Cu      0.6484  0.43996  0.60103    Cu
Cu      0.6484  0.56004  0.10103    Cu
C       0.6489   0.4216   0.1246     C
C       0.6489   0.5784   0.6246     C
W      0.64996  0.08813  0.23967     W
W      0.64996  0.91187  0.73967     W
O       0.6509   0.0485   0.3716     O
O       0.6509   0.9515   0.8716     O
N       0.6512   0.0774   0.0927     N
N       0.6512   0.9226   0.5927     N
O       0.6515   0.2496   0.4778     O
O       0.6515   0.7504   0.9778     O
Cu     0.65258  0.31636  0.52662    Cu
Cu     0.65258  0.68364  0.02662    Cu
N        0.653    0.223   0.0602     N
N        0.653    0.777   0.5602     N
O       0.6643   0.0919   0.7744     O
O       0.6643   0.9081   0.2744     O
C       0.6661   0.4497   0.9995     C
C       0.6661   0.5503   0.4995     C
O       0.6675   0.3558   0.5905     O
O       0.6675   0.6442   0.0905     O
O       0.6685   0.0439   0.9433     O
O       0.6685   0.9561   0.4433     O
Cu     0.67027   0.0567  0.61062    Cu
Cu     0.67027   0.9433  0.11062    Cu
O       0.6705   0.1651   0.2771     O
O       0.6705   0.8349   0.7771     O
H       0.6721   0.4913   0.9935     H
H       0.6721   0.5087   0.4935     H
O       0.6739   0.1338   0.4509     O
O       0.6739   0.8662   0.9509     O
W      0.67676  0.04902  0.45798     W
W      0.67676  0.95098  0.95798     W
H       0.6826   0.4244   0.1377     H
H       0.6826   0.5756   0.6377     H
H       0.6852   0.3327   0.6186     H
H       0.6852   0.6673   0.1186     H
W      0.68555  0.13819  0.83497     W
W      0.68555  0.86181  0.33497     W
O       0.6876   0.2356   0.4007     O
O       0.6876   0.7644   0.9007     O
O       0.6891   0.1549   0.9017     O
O       0.6891   0.8451   0.4017     O
W      0.69327  0.20308  0.34071     W
W      0.69327  0.79692  0.84071     W
O       0.6944    0.046   0.2998     O
O       0.6944    0.954   0.7998     O
C       0.6945   0.3516   0.0374     C
C       0.6945   0.6484   0.5374     C
C       0.7033   0.4119   0.0267     C
C       0.7033   0.5881   0.5267     C
O       0.7127   0.0506   0.8645     O
O       0.7127   0.9494   0.3645     O
O       0.7151   0.4678   0.6236     O
O       0.7151   0.5322   0.1236     O
H       0.7197    0.325   0.0556     H
H       0.7197    0.675   0.5556     H
Cu     0.72198  0.08501  0.13811    Cu
Cu     0.72198  0.91499  0.63811    Cu
O       0.7227   0.1305   0.3695     O
O       0.7227   0.8695   0.8695     O
W       0.7228  0.03199  0.36769     W
W       0.7228  0.96801  0.86769     W
O       0.7229   0.0035   0.6443     O
O       0.7229   0.9965   0.1443     O
O       0.7322   0.0401   0.4381     O
O       0.7322   0.9599   0.9381     O
H        0.735   0.4272    0.038     H
H        0.735   0.5728    0.538     H
H       0.7486   0.4779   0.3345     H
H       0.7486   0.5221   0.8345     H
H       0.7514   0.0221   0.6655     H
H       0.7514   0.9779   0.1655     H
H        0.765   0.0728    0.962     H
H        0.765   0.9272    0.462     H
O       0.7678   0.4599   0.5619     O
O       0.7678   0.5401   0.0619     O
O       0.7771   0.4965   0.3557     O
O       0.7771   0.5035   0.8557     O
W       0.7772  0.46801  0.63231     W
W       0.7772  0.53199  0.13231     W
O       0.7773   0.3695   0.6305     O
O       0.7773   0.6305   0.1305     O
Cu     0.77802  0.41499  0.86189    Cu
Cu     0.77802  0.58501  0.36189    Cu
H       0.7803    0.175   0.9444     H
H       0.7803    0.825   0.4444     H
O       0.7849   0.0322   0.3764     O
O       0.7849   0.9678   0.8764     O
O       0.7873   0.4494   0.1355     O
O       0.7873   0.5506   0.6355     O
C       0.7967   0.0881   0.9733     C
C       0.7967   0.9119   0.4733     C
C       0.8055   0.1484   0.9626     C
C       0.8055   0.8516   0.4626     C
O       0.8056    0.454   0.7002     O
O       0.8056    0.546   0.2002     O
W      0.80673  0.29692  0.65929     W
W      0.80673  0.70308  0.15929     W
O       0.8109   0.3451   0.0983     O
O       0.8109   0.6549   0.5983     O
O       0.8124   0.2644   0.5993     O
O       0.8124   0.7356   0.0993     O
W      0.81445  0.36181  0.16503     W
W      0.81445  0.63819  0.66503     W
H       0.8148   0.1673   0.3814     H
H       0.8148   0.8327   0.8814     H
H       0.8174   0.0756   0.8623     H
H       0.8174   0.9244   0.3623     H
W      0.82324  0.45098  0.54202     W
W      0.82324  0.54902  0.04202     W
O       0.8261   0.3662   0.5491     O
O       0.8261   0.6338   0.0491     O
H       0.8279   0.0087   0.0065     H
H       0.8279   0.9913   0.5065     H
O       0.8295   0.3349   0.7229     O
O       0.8295   0.6651   0.2229     O
Cu     0.82973   0.4433  0.38938    Cu
Cu     0.82973   0.5567  0.88938    Cu
O       0.8315   0.4561   0.0567     O
O       0.8315   0.5439   0.5567     O
O       0.8325   0.1442   0.4095     O
O       0.8325   0.8558   0.9095     O
C       0.8339   0.0503   0.0005     C
C       0.8339   0.9497   0.5005     C
O       0.8357   0.4081   0.2256     O
O       0.8357   0.5919   0.7256     O
N        0.847    0.277   0.9398     N
N        0.847    0.723   0.4398     N
Cu     0.84742  0.18364  0.47338    Cu
Cu     0.84742  0.81636  0.97338    Cu
O       0.8485   0.2504   0.5222     O
O       0.8485   0.7496   0.0222     O
N       0.8488   0.4226   0.9073     N
N       0.8488   0.5774   0.4073     N
O       0.8491   0.4515   0.6284     O
O       0.8491   0.5485   0.1284     O
W      0.85004  0.41187  0.76033     W
W      0.85004  0.58813  0.26033     W
C       0.8511   0.0784   0.8754     C
C       0.8511   0.9216   0.3754     C
Cu      0.8516  0.06004  0.39897    Cu
Cu      0.8516  0.93996  0.89897    Cu
C       0.8531   0.1681   0.9799     C
C       0.8531   0.8319   0.4799     C
H       0.8545   0.1702   0.8625     H
H       0.8545   0.8298   0.3625     H
O       0.8547   0.2976   0.1941     O
O       0.8547   0.7024   0.6941     O
O       0.8563   0.2298   0.6946     O
O       0.8563   0.7702   0.1946     O
W      0.85899  0.37889  0.07413     W
W      0.85899  0.62111  0.57413     W
W      0.86733  0.28684  0.58089     W
W      0.86733  0.71316  0.08089     W
C       0.8703   0.2301   0.9711     C
C       0.8703   0.7699   0.4711     C
N       0.8712   0.4801   0.9095     N
N       0.8712   0.5199   0.4095     N
C       0.8733   0.1346   0.8746     C
C       0.8733   0.8654   0.3746     C
O        0.875   0.3403   0.6491     O
O        0.875   0.6597   0.1491     O
N       0.8773   0.0281   0.8947     N
N       0.8773   0.9719   0.3947     N
O       0.8782   0.4912   0.7838     O
O       0.8782   0.5088   0.2838     O
O       0.8811   0.4063   0.1544     O
O       0.8811   0.5937   0.6544     O
C       0.8812    0.074   0.0194     C
C       0.8812    0.926   0.5194     C
C       0.8813   0.3204   0.9503     C
C       0.8813   0.6796   0.4503     C
C       0.8824   0.3848   0.9324     C
C       0.8824   0.6152   0.4324     C
W      0.88647  0.42109  0.28817     W
W      0.88647  0.57891  0.78817     W
N       0.8905   0.1329   0.0088     N
N       0.8905   0.8671   0.5088     N
O       0.8913   0.4537    0.551     O
O       0.8913   0.5463    0.051     O
P       0.8916   0.4091  0.66287     P
P       0.8916   0.5909  0.16287     P
O       0.8998   0.4201   0.7174     O
O       0.8998   0.5799   0.2174     O
O       0.9003   0.3009   0.1094     O
O       0.9003   0.6991   0.6094     O
O        0.902   0.3704   0.8062     O
O        0.902   0.6296   0.3062     O
O       0.9055   0.2266   0.6182     O
O       0.9055   0.7734   0.1182     O
O       0.9062   0.3353    0.283     O
O       0.9062   0.6647    0.783     O
H       0.9064   0.0489   0.0395     H
H       0.9064   0.9511   0.5395     H
W      0.90681  0.18882  0.73972     W
W      0.90681  0.81118  0.23972     W
N       0.9116   0.2141   0.4746     N
N       0.9116   0.7859   0.9746     N
H        0.914   0.3033   0.5011     H
H        0.914   0.6967   0.0011     H
O       0.9144   0.2488   0.7903     O
O       0.9144   0.7512   0.2903     O
N       0.9155   0.2443   0.9988     N
N       0.9155   0.7557   0.4988     N
O       0.9174   0.3378   0.5773     O
O       0.9174   0.6622   0.0773     O
C       0.9179   0.4721   0.9351     C
C       0.9179   0.5279   0.4351     C
W      0.91861  0.26596  0.24844     W
W      0.91861  0.73404  0.74844     W
N       0.9215   0.0767   0.4334     N
N       0.9215   0.9233   0.9334     N
O       0.9223   0.4056    0.078     O
O       0.9223   0.5944    0.578     O
C       0.9228    0.139   0.8913     C
C       0.9228    0.861   0.3913     C
N       0.9243   0.3026   0.9866     N
N       0.9243   0.6974   0.4866     N
C       0.9262   0.0315   0.9108     C
C       0.9262   0.9685   0.4108     C
O       0.9263   0.1426   0.6923     O
O       0.9263   0.8574   0.1923     O
O        0.928    0.223    0.193     O
O        0.928    0.777    0.693     O
N       0.9286   0.4124   0.9503     N
N       0.9286   0.5876   0.4503     N
C       0.9303   0.2722   0.4904     C
C       0.9303   0.7278   0.9904     C
O       0.9309   0.4395   0.2421     O
O       0.9309   0.5605   0.7421     O
P        0.933  0.40683  0.19549     P
P        0.933  0.59317  0.69549     P
O       0.9369   0.4235   0.6502     O
O       0.9369   0.5765   0.1502     O
H       0.9382   0.1772   0.8915     H
H       0.9382   0.8228   0.3915     H
H       0.9408   0.4959   0.4419     H
H       0.9408   0.5041   0.9419     H
C       0.9463   0.1874   0.4625     C
C       0.9463   0.8126   0.9625     C
O       0.9475   0.4331   0.3415     O
O       0.9475   0.5669   0.8415     O
O       0.9477   0.3375   0.2079     O
O       0.9477   0.6625   0.7079     O
C        0.948   0.0871   0.9073     C
C        0.948   0.9129   0.4073     C
C       0.9498    0.028   0.4275     C
C       0.9498    0.972   0.9275     C
W      0.95045  0.30855  0.83949     W
W      0.95045  0.69145  0.33949     W
C       0.9529    0.123   0.4481     C
C       0.9529    0.877   0.9481     C
W      0.95321   0.4168  0.58273     W
W      0.95321   0.5832  0.08273     W
W      0.95552  0.26602   0.1506     W
W      0.95552  0.73398   0.6506     W
Cu     0.95615  0.17689  0.03222    Cu
Cu     0.95615  0.82311  0.53222    Cu
O       0.9593   0.2515   0.7174     O
O       0.9593   0.7485   0.2174     O
O       0.9668   0.4013   0.5285     O
O       0.9668   0.5987   0.0285     O
W      0.96812  0.18099  0.66201     W
W      0.96812  0.81901  0.16201     W
O       0.9687    0.439   0.1749     O
O       0.9687    0.561   0.6749     O
N       0.9743   0.2788   0.4887     N
N       0.9743   0.7212   0.9887     N
O       0.9748   0.1604    0.791     O
O       0.9748   0.8396    0.291     O
Na      0.9752   0.4596   0.7903    Na
Na      0.9752   0.5404   0.2903    Na
O       0.9795   0.2534   0.2917     O
O       0.9795   0.7466   0.7917     O
O        0.981   0.3352   0.7828     O
O        0.981   0.6648   0.2828     O
Cu     0.98153  0.35312  0.98804    Cu
Cu     0.98153  0.64688  0.48804    Cu
H       0.9817   0.0884   0.9165     H
H       0.9817   0.9116   0.4165     H
O        0.982   0.4945   0.6005     O
O        0.982   0.5055   0.1005     O
H       0.9821   0.0219   0.0638     H
H       0.9821   0.9781   0.5638     H
N       0.9847   0.2239   0.4706     N
N       0.9847   0.7761   0.9706     N
O       0.9856   0.4603   0.7714     O
O       0.9856   0.5397   0.2714     O
W       0.9902  0.41522  0.11214     W
W       0.9902  0.58478  0.61214     W
O       0.9919    0.332   0.1338     O
O       0.9919   0.3751   0.8743     O
O       0.9919   0.6249   0.3743     O
O       0.9919    0.668   0.6338     O
O       0.9927   0.4015   0.4395     O
O       0.9927   0.5985   0.9395     O
N       0.9945   0.0451   0.4377     N
N       0.9945   0.9549   0.9377     N
N       0.9974   0.1066    0.451     N
N       0.9974   0.8934    0.951     N
O       0.9976   0.2482   0.6408     O
O       0.9976   0.7518   0.1408     O
