data_I
_chemical_name_common  '/home/zhangsd/repos/MofS-CGCNN/ML/data/TSD/clean_cifs/JUNBOL_clean'
_cell_length_a 13.92600
_cell_length_b 16.59000
_cell_length_c 16.18100
_cell_angle_alpha 90.00000
_cell_angle_beta  110.29600
_cell_angle_gamma 90.00000
_space_group_name_H-M_alt      'P 1'


loop_
_space_group_symop_operation_xyz
  'x, y, z' 

loop_
_atom_site_label
_atom_site_fract_x
_atom_site_fract_y
_atom_site_fract_z
_atom_site_type_symbol
C       0.0002   0.6286   0.6912     C
C       0.0002   0.8714   0.1912     C
C       0.0064   0.0997   0.2809     C
C       0.0064   0.4003   0.7809     C
H       0.0137   0.0959   0.3402     H
H       0.0137   0.4041   0.8402     H
C       0.0144   0.6098    0.395     C
C       0.0144   0.8902    0.895     C
C       0.0174   0.1217   0.6679     C
C       0.0174   0.3783   0.1679     C
H       0.0214   0.6128   0.4542     H
H       0.0214   0.8872   0.9542     H
O      0.03597  0.14084   0.8991     O
O      0.03597  0.35916   0.3991     O
H       0.0583   0.1254   0.6333     H
H       0.0583   0.3746   0.1333     H
C       0.0593   0.1356   0.7573     C
C       0.0593   0.3644   0.2573     C
O       0.0658    0.592  0.00861     O
O       0.0658    0.908  0.50861     O
C         0.08   0.1187   0.1695     C
C         0.08   0.3813   0.6695     C
C       0.0851   0.6025   0.8706     C
C       0.0851   0.8975   0.3706     C
H       0.0898   0.2177   0.4565     H
H       0.0898   0.2823   0.9565     H
C         0.09   0.5899   0.2836     C
C         0.09   0.9101   0.7836     C
C       0.0907   0.1148   0.2574     C
C       0.0907   0.3852   0.7574     C
H       0.0955   0.5821   0.0609     H
H       0.0955   0.9179   0.5609     H
C       0.0985   0.5962   0.3709     C
C       0.0985   0.9038   0.8709     C
C       0.1025   0.6078   0.7283     C
C       0.1025   0.8922   0.2283     C
H        0.128   0.1497   0.7827     H
H        0.128   0.3503   0.2827     H
C       0.1306   0.5857   0.9659     C
C       0.1306   0.9143   0.4659     C
C       0.1355   0.1704   0.9387     C
C       0.1355   0.3296   0.4387     C
H       0.1428   0.6029   0.6931     H
H       0.1428   0.8971   0.1931     H
C       0.1438   0.5947   0.8172     C
C       0.1438   0.9053   0.3172     C
C       0.1468   0.2493   0.9676     C
C       0.1468   0.2507   0.4676     C
H       0.1546   0.1224   0.3007     H
H       0.1546   0.3776   0.8007     H
O      0.16091  0.12677  0.13979     O
O      0.16091  0.37323  0.63979     O
H       0.1626   0.5912   0.4145     H
H       0.1626   0.9088   0.9145     H
O      0.16677  0.55185  0.17982     O
O      0.16677  0.94815  0.67982     O
O      0.17953  0.10142  0.55386     O
O      0.17953  0.39858  0.05386     O
C        0.181  0.57138   0.2587     C
C        0.181  0.92862   0.7587     C
H       0.2056   0.2299   0.7055     H
H       0.2056   0.2701   0.2055     H
H       0.2103   0.0661   0.9365     H
H       0.2103   0.4339   0.4365     H
H       0.2124   0.5803   0.8422     H
H       0.2124   0.9197   0.3422     H
C       0.2191   0.1192   0.9561     C
C       0.2191   0.3808   0.4561     C
O      0.22023   0.5669  0.00173     O
O      0.22023   0.9331  0.50173     O
C       0.2444   0.2209   0.5135     C
C       0.2444   0.2791   0.0135     C
C       0.2546   0.1568   0.1963     C
C       0.2546   0.3432   0.6963     C
C       0.2575   0.1379   0.5527     C
C       0.2575   0.3621   0.0527     C
C        0.263   0.2369   0.2221     C
C        0.263   0.2631   0.7221     C
O      0.26894  0.57761   0.3172     O
O      0.26894  0.92239   0.8172     O
Cd     0.29152  0.00093  0.64202    Cd
Cd     0.29152  0.49907  0.14202    Cd
O      0.30283  0.09557  0.76802     O
O      0.30283  0.40443  0.26802     O
C       0.3162   0.1487  0.00342     C
C       0.3162   0.3513  0.50342     C
C       0.3287   0.2287   0.0307     C
C       0.3287   0.2713   0.5307     C
H       0.3315   0.0536   0.1969     H
H       0.3315   0.4464   0.6969     H
C       0.3387   0.1069    0.216     C
C       0.3387   0.3931    0.716     C
O      0.34638   0.1094  0.58587     O
O      0.34638   0.3906  0.08587     O
C       0.3582   0.2331   0.7729     C
C       0.3582   0.2669   0.2729     C
C        0.372   0.1464    0.802     C
C        0.372   0.3536    0.302     C
O      0.38976    0.614  0.16068     O
O      0.38976    0.886  0.66068     O
O       0.3929  0.01991   0.0038     O
O       0.3929  0.48009   0.5038     O
H        0.394   0.2486   0.0606     H
H        0.394   0.2514   0.5606     H
C       0.4054   0.0923   0.0307     C
C       0.4054   0.4077   0.5307     C
Cd     0.41891  0.50416   0.3735    Cd
Cd     0.41891  0.99584   0.8735    Cd
C       0.4343   0.1375    0.265     C
C       0.4343   0.3625    0.765     C
C       0.4429    0.217   0.2946     C
C       0.4429    0.283   0.7946     C
O      0.45559  0.12757  0.86271     O
O      0.45559  0.37243  0.36271     O
C        0.471   0.5872   0.2149     C
C        0.471   0.9128   0.7149     C
O       0.4761  0.51847  0.25054     O
O       0.4761  0.98153  0.75054     O
O      0.49016   0.1178  0.08315     O
O      0.49016   0.3822  0.58315     O
H       0.4935   0.7368   0.1705     H
H       0.4935   0.7632   0.6705     H
H       0.5065   0.2368   0.3295     H
H       0.5065   0.2632   0.8295     H
O      0.50984   0.6178  0.41685     O
O      0.50984   0.8822  0.91685     O
O       0.5239  0.01847  0.24946     O
O       0.5239  0.48153  0.74946     O
C        0.529   0.0872   0.2851     C
C        0.529   0.4128   0.7851     C
O      0.54441  0.62757  0.63729     O
O      0.54441  0.87243  0.13729     O
C       0.5571    0.717   0.2054     C
C       0.5571    0.783   0.7054     C
C       0.5657   0.6375    0.235     C
C       0.5657   0.8625    0.735     C
Cd     0.58109  0.00416   0.1265    Cd
Cd     0.58109  0.49584   0.6265    Cd
C       0.5946   0.5923   0.4693     C
C       0.5946   0.9077   0.9693     C
H        0.606   0.7486   0.4394     H
H        0.606   0.7514   0.9394     H
O       0.6071  0.51991   0.4962     O
O       0.6071  0.98009   0.9962     O
O      0.61024    0.114  0.33932     O
O      0.61024    0.386  0.83932     O
C        0.628   0.6464    0.698     C
C        0.628   0.8536    0.198     C
C       0.6418   0.7331   0.7271     C
C       0.6418   0.7669   0.2271     C
O      0.65362   0.6094  0.91413     O
O      0.65362   0.8906  0.41413     O
C       0.6613   0.6069    0.284     C
C       0.6613   0.8931    0.784     C
H       0.6685   0.5536   0.3031     H
H       0.6685   0.9464   0.8031     H
C       0.6713   0.7287   0.4693     C
C       0.6713   0.7713   0.9693     C
C       0.6838   0.6487  0.49658     C
C       0.6838   0.8513  0.99658     C
O      0.69717  0.59557  0.73198     O
O      0.69717  0.90443  0.23198     O
Cd     0.70848  0.50093  0.85798    Cd
Cd     0.70848  0.99907  0.35798    Cd
O      0.73106  0.07761   0.1828     O
O      0.73106  0.42239   0.6828     O
C        0.737   0.7369   0.2779     C
C        0.737   0.7631   0.7779     C
C       0.7425   0.6379   0.9473     C
C       0.7425   0.8621   0.4473     C
C       0.7454   0.6568   0.3037     C
C       0.7454   0.8432   0.8037     C
C       0.7556   0.7209   0.9865     C
C       0.7556   0.7791   0.4865     C
O      0.77977   0.0669  0.49827     O
O      0.77977   0.4331  0.99827     O
C       0.7809   0.6192   0.5439     C
C       0.7809   0.8808   0.0439     C
H       0.7876   0.0803   0.6578     H
H       0.7876   0.4197   0.1578     H
H       0.7897   0.5661   0.5635     H
H       0.7897   0.9339   0.0635     H
H       0.7944   0.7299   0.7945     H
H       0.7944   0.7701   0.2945     H
C        0.819  0.07138   0.2413     C
C        0.819  0.42862   0.7413     C
O      0.82047  0.60142  0.94614     O
O      0.82047  0.89858  0.44614     O
O      0.83323  0.05185  0.32018     O
O      0.83323  0.44815  0.82018     O
H       0.8374   0.0912   0.0855     H
H       0.8374   0.4088   0.5855     H
O      0.83909  0.62677  0.36021     O
O      0.83909  0.87323  0.86021     O
H       0.8454   0.6224   0.1993     H
H       0.8454   0.8776   0.6993     H
C       0.8532   0.7493   0.5324     C
C       0.8532   0.7507   0.0324     C
C       0.8562   0.0947   0.6828     C
C       0.8562   0.4053   0.1828     C
H       0.8572   0.1029   0.8069     H
H       0.8572   0.3971   0.3069     H
C       0.8645   0.6704   0.5613     C
C       0.8645   0.8296   0.0613     C
C       0.8694   0.0857   0.5341     C
C       0.8694   0.4143   0.0341     C
H        0.872   0.6497   0.7173     H
H        0.872   0.8503   0.2173     H
C       0.8975   0.1078   0.7717     C
C       0.8975   0.3922   0.2717     C
C       0.9015   0.0962   0.1291     C
C       0.9015   0.4038   0.6291     C
H       0.9045   0.0821   0.4391     H
H       0.9045   0.4179   0.9391     H
C       0.9093   0.6148   0.2426     C
C       0.9093   0.8852   0.7426     C
C         0.91   0.0899   0.2164     C
C         0.91   0.4101   0.7164     C
H       0.9102   0.7177   0.0435     H
H       0.9102   0.7823   0.5435     H
C       0.9149   0.1025   0.6294     C
C       0.9149   0.3975   0.1294     C
C         0.92   0.6187   0.3305     C
C         0.92   0.8813   0.8305     C
O       0.9342    0.092  0.49139     O
O       0.9342    0.408  0.99139     O
C       0.9407   0.6356   0.7427     C
C       0.9407   0.8644   0.2427     C
H       0.9417   0.6254   0.8667     H
H       0.9417   0.8746   0.3667     H
O      0.96403  0.64084   0.6009     O
O      0.96403  0.85916   0.1009     O
H       0.9786   0.1128   0.0458     H
H       0.9786   0.3872   0.5458     H
C       0.9826   0.6217   0.8321     C
C       0.9826   0.8783   0.3321     C
C       0.9856   0.1098    0.105     C
C       0.9856   0.3902    0.605     C
H       0.9863   0.5959   0.1598     H
H       0.9863   0.9041   0.6598     H
C       0.9936   0.5997   0.2191     C
C       0.9936   0.9003   0.7191     C
C       0.9998   0.1286   0.8088     C
C       0.9998   0.3714   0.3088     C
