data_I
_chemical_name_common  '/home/zhangsd/repos/MofS-CGCNN/ML/data/TSD/clean_cifs/JUPBUT_clean'
_cell_length_a  9.63000
_cell_length_b 10.09160
_cell_length_c 11.73350
_cell_angle_alpha 87.95800
_cell_angle_beta  67.63800
_cell_angle_gamma 68.18100
_space_group_name_H-M_alt      'P 1'


loop_
_space_group_symop_operation_xyz
  'x, y, z' 

loop_
_atom_site_label
_atom_site_fract_x
_atom_site_fract_y
_atom_site_fract_z
_atom_site_type_symbol
C       0.0071   0.3897   0.7477     C
C       0.0115   0.3121   0.5546     C
O       0.0165   0.1388   0.0818     O
C       0.0606   0.5761    0.842     C
C       0.0864   0.2604   0.4287     C
C       0.0944   0.7694   0.9431     C
N       0.0948   0.3474   0.6107     N
C       0.1025   0.4313   0.8085     C
C       0.1432   0.6133   0.9028     C
O       0.1693   0.7988      0.0     O
C       0.2239   0.3255   0.8338     C
C       0.2467   0.2472   0.3624     C
C       0.2475   0.3381   0.5471     C
O       0.2535   0.1423   0.1836     O
C       0.2653   0.5073   0.9287     C
Pr     0.29076  0.96267  0.02245    Pr
C        0.307   0.3633   0.8924     C
C       0.3246    0.289   0.4205     C
C       0.3364   0.1808   0.2258     C
C       0.4391   0.2474   0.9182     C
O       0.4422   0.1218    0.925     O
O       0.4507   0.7202   0.0688     O
O       0.4765   0.1729    0.173     O
O       0.5235   0.8271    0.827     O
O       0.5493   0.2798   0.9312     O
O       0.5578   0.8782    0.075     O
C       0.5609   0.7526   0.0818     C
C       0.6636   0.8192   0.7742     C
C       0.6754    0.711   0.5795     C
C        0.693   0.6367   0.1076     C
Pr     0.70924  0.03733  0.97755    Pr
C       0.7347   0.4927   0.0713     C
O       0.7465   0.8577   0.8164     O
C       0.7525   0.6619   0.4529     C
C       0.7533   0.7528   0.6376     C
C       0.7761   0.6745   0.1662     C
O       0.8307   0.2012      0.0     O
C       0.8568   0.3867   0.0972     C
C       0.8975   0.5687   0.1915     C
N       0.9052   0.6526   0.3893     N
C       0.9056   0.2306   0.0569     C
C       0.9136   0.7396   0.5713     C
C       0.9394   0.4239    0.158     C
O       0.9835   0.8612   0.9182     O
C       0.9885   0.6879   0.4454     C
C       0.9929   0.6103   0.2523     C
