data_I
_chemical_name_common  '/home/zhangsd/repos/MofS-CGCNN/ML/data/TSD/clean_cifs/JUQVAU_clean'
_cell_length_a 17.52790
_cell_length_b 17.52790
_cell_length_c 17.52790
_cell_angle_alpha 90.00000
_cell_angle_beta  90.00000
_cell_angle_gamma 90.00000
_space_group_name_H-M_alt      'P 1'


loop_
_space_group_symop_operation_xyz
  'x, y, z' 

loop_
_atom_site_label
_atom_site_fract_x
_atom_site_fract_y
_atom_site_fract_z
_atom_site_type_symbol
C       0.0005   0.3291   0.9798     C
H       0.0017   0.3743   0.9515     H
H       0.0098   0.6511   0.8698     H
C       0.0109   0.6686   0.8216     C
C        0.018   0.0181   0.2156     C
C       0.0181   0.2156    0.018     C
C       0.0202   0.5005   0.1709     C
H       0.0222   0.0332   0.1663     H
N       0.0257   0.2111   0.7924     N
C       0.0298   0.7511   0.4325     C
H       0.0332   0.1663   0.0222     H
N       0.0373   0.2653   0.9618     N
N       0.0382   0.5373   0.2347     N
N       0.0403   0.8247   0.4571     N
N       0.0429   0.9597   0.3247     N
C       0.0481   0.7146   0.7148     C
H       0.0485   0.5017   0.1257     H
C        0.052   0.1812   0.7231     C
C       0.0675   0.9702   0.2511     C
C       0.0686   0.7254   0.3619     C
O       0.0692   0.6559   0.3459     O
N       0.0745   0.6904   0.7819     N
H       0.0805   0.7338   0.6746     H
O      0.09876  0.77904  0.32184     O
Co     0.10553  0.23826  0.87133    Co
Co     0.11105  0.88895  0.38895    Co
H       0.1257   0.0485   0.5017     H
Co     0.12867  0.60553  0.26174    Co
H       0.1302   0.5098   0.8489     H
C       0.1343   0.1732   0.7128     C
C       0.1381   0.9314   0.2254     C
O       0.1454   0.6522  0.15965     O
H       0.1511   0.6302   0.9902     H
O       0.1522  0.34035   0.8546     O
O       0.1541   0.9308   0.1559     O
O       0.1559   0.1541   0.9308     O
O      0.15965   0.1454   0.6522     O
H       0.1663   0.0222   0.0332     H
C       0.1686   0.6784   0.9891     C
C       0.1709   0.0202   0.5005     C
C       0.1732   0.7128   0.1343     C
O      0.17342  0.19427  0.76964     O
H       0.1746   0.4195   0.2662     H
N       0.1753   0.9571   0.4597     N
O      0.17816  0.90124  0.27904     O
C       0.1784   0.5109   0.8314     C
C       0.1812   0.7231    0.052     C
Co     0.18409  0.68409  0.81591    Co
N       0.1904   0.7181   0.9255     N
O      0.19427  0.76964  0.17342     O
N       0.2076   0.5257   0.2889     N
N       0.2111   0.7924   0.0257     N
C       0.2128   0.3657   0.8268     C
Co     0.21296  0.78704  0.28704    Co
C       0.2146   0.7852   0.9519     C
C       0.2148   0.4519   0.2854     C
C       0.2156    0.018   0.0181     C
N       0.2181   0.5745   0.8096     N
O      0.22096  0.82184  0.40124     O
C       0.2231    0.448   0.8188     C
C       0.2254   0.1381   0.9314     C
O      0.23036  0.67342  0.30573     O
H       0.2338   0.8254   0.9195     H
N       0.2347   0.0382   0.5373     N
Co     0.23826  0.87133  0.10553    Co
C       0.2489   0.9325   0.4702     C
C       0.2511   0.0675   0.9702     C
Co     0.26174  0.12867  0.60553    Co
N       0.2653   0.9618   0.0373     N
H       0.2662   0.1746   0.4195     H
O      0.26964  0.32658  0.80573     O
C       0.2746   0.8619   0.4314     C
C       0.2769    0.552   0.3188     C
O      0.27904  0.17816  0.90124     O
N       0.2819   0.4255   0.3096     N
C       0.2844    0.982   0.5181     C
C       0.2852   0.5481   0.7854     C
C       0.2854   0.2148   0.4519     C
Co     0.28704  0.21296  0.78704    Co
C       0.2872   0.6343   0.3268     C
N       0.2889   0.2076   0.5257     N
N       0.2924   0.4743   0.7889     N
O      0.30573  0.23036  0.67342     O
N       0.3096   0.2819   0.4255     N
Co     0.31591  0.31591  0.31591    Co
C       0.3188   0.2769    0.552     C
C       0.3216   0.4891   0.3314     C
O      0.32184  0.09876  0.77904     O
N       0.3247   0.0429   0.9597     N
H       0.3254   0.5805   0.7662     H
O      0.32658  0.80573  0.26964     O
C       0.3268   0.2872   0.6343     C
C       0.3291   0.9798   0.0005     C
C       0.3314   0.3216   0.4891     C
H       0.3337   0.9778   0.5332     H
O      0.34035   0.8546   0.1522     O
O       0.3441   0.8459   0.4308     O
O       0.3459   0.0692   0.6559     O
O       0.3478  0.65965   0.3546     O
H       0.3489   0.3698   0.4902     H
O       0.3546   0.3478  0.65965     O
C       0.3619   0.0686   0.7254     C
C       0.3657   0.8268   0.2128     C
H       0.3698   0.4902   0.3489     H
Co     0.37133  0.39447  0.76174    Co
H       0.3743   0.9515   0.0017     H
Co     0.38895  0.11105  0.88895    Co
Co     0.39447  0.76174  0.37133    Co
O      0.40124  0.22096  0.82184     O
H       0.4195   0.2662   0.1746     H
N       0.4255   0.3096   0.2819     N
O       0.4308   0.3441   0.8459     O
C       0.4314   0.2746   0.8619     C
C       0.4325   0.0298   0.7511     C
C        0.448   0.8188   0.2231     C
H       0.4515   0.4983   0.6257     H
C       0.4519   0.2854   0.2148     C
N       0.4571   0.0403   0.8247     N
N       0.4597   0.1753   0.9571     N
N       0.4618   0.4627   0.7347     N
N       0.4627   0.7347   0.4618     N
H       0.4668   0.8337   0.5222     H
C       0.4702   0.2489   0.9325     C
N       0.4743   0.7889   0.2924     N
H       0.4778   0.9668   0.6663     H
C       0.4798   0.4995   0.6709     C
C       0.4819   0.7844    0.518     C
C        0.482   0.9819   0.7156     C
C       0.4891   0.3314   0.3216     C
H       0.4902   0.3489   0.3698     H
H       0.4983   0.6257   0.4515     H
C       0.4995   0.6709   0.4798     C
C       0.5005   0.1709   0.0202     C
H       0.5017   0.1257   0.0485     H
H       0.5098   0.8489   0.1302     H
C       0.5109   0.8314   0.1784     C
C        0.518   0.4819   0.7844     C
C       0.5181   0.2844    0.982     C
C       0.5202   0.9995   0.8291     C
H       0.5222   0.4668   0.8337     H
N       0.5257   0.2889   0.2076     N
C       0.5298   0.7489   0.5675     C
H       0.5332   0.3337   0.9778     H
N       0.5373   0.2347   0.0382     N
N       0.5382   0.9627   0.7653     N
N       0.5403   0.6753   0.5429     N
N       0.5429   0.5403   0.6753     N
C       0.5481   0.7854   0.2852     C
H       0.5485   0.9983   0.8743     H
C        0.552   0.3188   0.2769     C
C       0.5675   0.5298   0.7489     C
C       0.5686   0.7746   0.6381     C
O       0.5692   0.8441   0.6541     O
N       0.5745   0.8096   0.2181     N
H       0.5805   0.7662   0.3254     H
O      0.59876  0.72096  0.67816     O
Co     0.60553  0.26174  0.12867    Co
Co     0.61105  0.61105  0.61105    Co
H       0.6257   0.4515   0.4983     H
Co     0.62867  0.89447  0.73826    Co
H       0.6302   0.9902   0.1511     H
C       0.6343   0.3268   0.2872     C
C       0.6381   0.5686   0.7746     C
O       0.6454   0.8478  0.84035     O
H       0.6511   0.8698   0.0098     H
O       0.6522  0.15965   0.1454     O
O       0.6541   0.5692   0.8441     O
O       0.6559   0.3459   0.0692     O
O      0.65965   0.3546   0.3478     O
H       0.6663   0.4778   0.9668     H
C       0.6686   0.8216   0.0109     C
C       0.6709   0.4798   0.4995     C
C       0.6732   0.7872   0.8657     C
O      0.67342  0.30573  0.23036     O
H       0.6746   0.0805   0.7338     H
N       0.6753   0.5429   0.5403     N
O      0.67816  0.59876  0.72096     O
C       0.6784   0.9891   0.1686     C
C       0.6812   0.7769    0.948     C
Co     0.68409  0.81591  0.18409    Co
N       0.6904   0.7819   0.0745     N
O      0.69427  0.73036  0.82658     O
N       0.7076   0.9743   0.7111     N
N       0.7111   0.7076   0.9743     N
C       0.7128   0.1343   0.1732     C
Co     0.71296  0.71296  0.71296    Co
C       0.7146   0.7148   0.0481     C
C       0.7148   0.0481   0.7146     C
C       0.7156    0.482   0.9819     C
N       0.7181   0.9255   0.1904     N
O      0.72096  0.67816  0.59876     O
C       0.7231    0.052   0.1812     C
C       0.7254   0.3619   0.0686     C
O      0.73036  0.82658  0.69427     O
H       0.7338   0.6746   0.0805     H
N       0.7347   0.4618   0.4627     N
Co     0.73826  0.62867  0.89447    Co
C       0.7489   0.5675   0.5298     C
C       0.7511   0.4325   0.0298     C
Co     0.76174  0.37133  0.39447    Co
N       0.7653   0.5382   0.9627     N
H       0.7662   0.3254   0.5805     H
O      0.76964  0.17342  0.19427     O
C       0.7746   0.6381   0.5686     C
C       0.7769    0.948   0.6812     C
O      0.77904  0.32184  0.09876     O
N       0.7819   0.0745   0.6904     N
C       0.7844    0.518   0.4819     C
C       0.7852   0.9519   0.2146     C
C       0.7854   0.2852   0.5481     C
Co     0.78704  0.28704  0.21296    Co
C       0.7872   0.8657   0.6732     C
N       0.7889   0.2924   0.4743     N
N       0.7924   0.0257   0.2111     N
O      0.80573  0.26964  0.32658     O
N       0.8096   0.2181   0.5745     N
Co     0.81591  0.18409  0.68409    Co
C       0.8188   0.2231    0.448     C
C       0.8216   0.0109   0.6686     C
O      0.82184  0.40124  0.22096     O
N       0.8247   0.4571   0.0403     N
H       0.8254   0.9195   0.2338     H
O      0.82658  0.69427  0.73036     O
C       0.8268   0.2128   0.3657     C
C       0.8291   0.5202   0.9995     C
C       0.8314   0.1784   0.5109     C
H       0.8337   0.5222   0.4668     H
O      0.84035   0.6454   0.8478     O
O       0.8441   0.6541   0.5692     O
O       0.8459   0.4308   0.3441     O
O       0.8478  0.84035   0.6454     O
H       0.8489   0.1302   0.5098     H
O       0.8546   0.1522  0.34035     O
C       0.8619   0.4314   0.2746     C
C       0.8657   0.6732   0.7872     C
H       0.8698   0.0098   0.6511     H
Co     0.87133  0.10553  0.23826    Co
H       0.8743   0.5485   0.9983     H
Co     0.88895  0.38895  0.11105    Co
Co     0.89447  0.73826  0.62867    Co
O      0.90124  0.27904  0.17816     O
H       0.9195   0.2338   0.8254     H
N       0.9255   0.1904   0.7181     N
O       0.9308   0.1559   0.1541     O
C       0.9314   0.2254   0.1381     C
C       0.9325   0.4702   0.2489     C
C        0.948   0.6812   0.7769     C
H       0.9515   0.0017   0.3743     H
C       0.9519   0.2146   0.7852     C
N       0.9571   0.4597   0.1753     N
N       0.9597   0.3247   0.0429     N
N       0.9618   0.0373   0.2653     N
N       0.9627   0.7653   0.5382     N
H       0.9668   0.6663   0.4778     H
C       0.9702   0.2511   0.0675     C
N       0.9743   0.7111   0.7076     N
H       0.9778   0.5332   0.3337     H
C       0.9798   0.0005   0.3291     C
C       0.9819   0.7156    0.482     C
C        0.982   0.5181   0.2844     C
C       0.9891   0.1686   0.6784     C
H       0.9902   0.1511   0.6302     H
H       0.9983   0.8743   0.5485     H
C       0.9995   0.8291   0.5202     C
