data_I
_chemical_name_common  '/home/zhangsd/repos/MofS-CGCNN/ML/data/TSD/clean_cifs/JUSBAC_clean'
_cell_length_a 27.68170
_cell_length_b 10.26940
_cell_length_c 20.63560
_cell_angle_alpha 90.00000
_cell_angle_beta  123.24100
_cell_angle_gamma 90.00000
_space_group_name_H-M_alt      'P 1'


loop_
_space_group_symop_operation_xyz
  'x, y, z' 

loop_
_atom_site_label
_atom_site_fract_x
_atom_site_fract_y
_atom_site_fract_z
_atom_site_type_symbol
H        0.041   0.2083   0.0785     H
H        0.041   0.7917   0.5785     H
Cd     0.04293   0.0217  0.36461    Cd
Cd     0.04293   0.9783  0.86461    Cd
N      0.04496    0.122  0.21117     N
N      0.04496    0.878  0.71117     N
O      0.05212   0.0461  0.47964     O
O      0.05212   0.9539  0.97964     O
N      0.07156   0.1153  0.28797     N
N      0.07156   0.8847  0.78797     N
C      0.07263    0.234   0.1265     C
C      0.07263    0.766   0.6265     C
H       0.0736   0.0456   0.6128     H
H       0.0736   0.9544   0.1128     H
C       0.0785   0.1971  0.19672     C
C       0.0785   0.8029  0.69672     C
C      0.08537   0.1434  0.50386     C
C      0.08537   0.8566  0.00386     C
O      0.09432   0.2089   0.4594     O
O      0.09432   0.7911   0.9594     O
C      0.10442   0.1037  0.63523     C
C      0.10442   0.8963  0.13523     C
H       0.1135   0.3339   0.0879     H
H       0.1135   0.6661   0.5879     H
C      0.11558   0.3088   0.1326     C
C      0.11558   0.6912   0.6326     C
C      0.11614   0.1756  0.58831     C
C      0.11614   0.8244  0.08831     C
N       0.1209   0.1824  0.32386     N
N       0.1209   0.8176  0.82386     N
C      0.12669   0.2351  0.26807     C
C      0.12669   0.7649  0.76807     C
H       0.1292   0.0695   0.7453     H
H       0.1292   0.9305   0.2453     H
O      0.13171   0.0812  0.92985     O
O      0.13171   0.9188  0.42985     O
C      0.13801   0.1175  0.71484     C
C      0.13801   0.8825  0.21484     C
C      0.16004   0.2679   0.6228     C
C      0.16004   0.7321   0.1228     C
C      0.16314    0.349   0.2053     C
C      0.16314    0.651   0.7053     C
H       0.1644   0.3168   0.9511     H
H       0.1644   0.6832   0.4511     H
O       0.1645   0.4358  0.43786     O
O       0.1645   0.5642  0.93786     O
H       0.1667   0.3215   0.5922     H
H       0.1667   0.6785   0.0922     H
C      0.16981   0.3144   0.2732     C
C      0.16981   0.6856   0.7732     C
Cd     0.17511  0.20255  0.45175    Cd
Cd     0.17511  0.79745  0.95175    Cd
C      0.17616    0.071  0.99676     C
C      0.17616    0.929  0.49676     C
C      0.18487   0.2025  0.74993     C
C      0.18487   0.7975  0.24993     C
H       0.1911   0.4015   0.2068     H
H       0.1911   0.5985   0.7068     H
C      0.19223   0.3118  0.00395     C
C      0.19223   0.6882  0.50395     C
C      0.19385   0.2801   0.7028     C
C      0.19385   0.7199   0.2028     C
O      0.20076   0.0346  0.52978     O
O      0.20076   0.9654  0.02978     O
H       0.2014    0.342   0.3207     H
H       0.2014    0.658   0.8207     H
C      0.20505   0.1936  0.04203     C
C      0.20505   0.8064  0.54203     C
C      0.20719   0.4475  0.50559     C
C      0.20719   0.5525  0.00559     C
H       0.2193   0.0093   0.8486     H
H       0.2193   0.9907   0.3486     H
C      0.22126    0.423  0.04529     C
C      0.22126    0.577  0.54529     C
H       0.2232   0.3418   0.7252     H
H       0.2232   0.6582   0.2252     H
C      0.22543   0.2016  0.83566     C
C      0.22543   0.7984  0.33566     C
C      0.23831   0.0846  0.87565     C
C      0.23831   0.9154  0.37565     C
O      0.23838    0.349  0.54436     O
O      0.23838    0.651  0.04436     O
H       0.2458   0.3931   0.8533     H
H       0.2458   0.6069   0.3533     H
C      0.24589    0.187  0.12162     C
C      0.24589    0.813  0.62162     C
C      0.25411    0.313  0.87838     C
C      0.25411    0.687  0.37838     C
H       0.2542   0.1069   0.1467     H
H       0.2542   0.8931   0.6467     H
O      0.26162    0.151  0.45564     O
O      0.26162    0.849  0.95564     O
C      0.26169   0.4154  0.12435     C
C      0.26169   0.5846  0.62435     C
C      0.27457   0.2984  0.16434     C
C      0.27457   0.7016  0.66434     C
H       0.2768   0.1582   0.2748     H
H       0.2768   0.8418   0.7748     H
C      0.27874    0.077  0.95471     C
C      0.27874    0.923  0.45471     C
H       0.2807   0.4907   0.1514     H
H       0.2807   0.5093   0.6514     H
C      0.29281   0.0525  0.49441     C
C      0.29281   0.9475  0.99441     C
C      0.29495   0.3064  0.95797     C
C      0.29495   0.6936  0.45797     C
H       0.2986    0.158   0.6793     H
H       0.2986    0.842   0.1793     H
O      0.29924   0.4654  0.47022     O
O      0.29924   0.5346  0.97022     O
C      0.30615   0.2199   0.2972     C
C      0.30615   0.7801   0.7972     C
C      0.30777   0.1882  0.99605     C
C      0.30777   0.8118  0.49605     C
H       0.3089   0.0985   0.7932     H
H       0.3089   0.9015   0.2932     H
C      0.31513   0.2975  0.25007     C
C      0.31513   0.7025  0.75007     C
C      0.32384    0.429  0.00324     C
C      0.32384    0.571  0.50324     C
Cd     0.32489  0.29745  0.54825    Cd
Cd     0.32489  0.70255  0.04825    Cd
C      0.33019   0.1856   0.7268     C
C      0.33019   0.8144   0.2268     C
H       0.3333   0.1785   0.4078     H
H       0.3333   0.8215   0.9078     H
O       0.3355   0.0642  0.56214     O
O       0.3355   0.9358  0.06214     O
H       0.3356   0.1832   0.0489     H
H       0.3356   0.8168   0.5489     H
C      0.33686    0.151   0.7947     C
C      0.33686    0.849   0.2947     C
C      0.33996   0.2321   0.3772     C
C      0.33996   0.7679   0.8772     C
C      0.36199   0.3825  0.28516     C
C      0.36199   0.6175  0.78516     C
O      0.36829   0.4188  0.07015     O
O      0.36829   0.5812  0.57015     O
H       0.3708   0.4305   0.2547     H
H       0.3708   0.5695   0.7547     H
C      0.37331   0.2649  0.73193     C
C      0.37331   0.7351  0.23193     C
N       0.3791   0.3176  0.67614     N
N       0.3791   0.6824  0.17614     N
C      0.38386   0.3244  0.41169     C
C      0.38386   0.6756  0.91169     C
C      0.38442   0.1912   0.8674     C
C      0.38442   0.8088   0.3674     C
H       0.3865   0.1661   0.9121     H
H       0.3865   0.8339   0.4121     H
C      0.39558   0.3963  0.36477     C
C      0.39558   0.6037  0.86477     C
O      0.40568   0.2911   0.5406     O
O      0.40568   0.7089   0.0406     O
C      0.41463   0.3566  0.49614     C
C      0.41463   0.6434  0.99614     C
C       0.4215   0.3029  0.80328     C
C       0.4215   0.6971  0.30328     C
H       0.4264   0.4544   0.3872     H
H       0.4264   0.5456   0.8872     H
C      0.42737    0.266   0.8735     C
C      0.42737    0.734   0.3735     C
N      0.42844   0.3847  0.71203     N
N      0.42844   0.6153  0.21203     N
O      0.44788   0.4539  0.52036     O
O      0.44788   0.5461  0.02036     O
N      0.45504    0.378  0.78883     N
N      0.45504    0.622  0.28883     N
Cd     0.45707   0.4783  0.63539    Cd
Cd     0.45707   0.5217  0.13539    Cd
H        0.459   0.2917   0.9215     H
H        0.459   0.7083   0.4215     H
H        0.541   0.2917   0.5785     H
H        0.541   0.7083   0.0785     H
Cd     0.54293   0.4783  0.86461    Cd
Cd     0.54293   0.5217  0.36461    Cd
N      0.54496    0.378  0.71117     N
N      0.54496    0.622  0.21117     N
O      0.55212   0.4539  0.97964     O
O      0.55212   0.5461  0.47964     O
N      0.57156   0.3847  0.78797     N
N      0.57156   0.6153  0.28797     N
C      0.57263    0.266   0.6265     C
C      0.57263    0.734   0.1265     C
H       0.5736   0.4544   0.1128     H
H       0.5736   0.5456   0.6128     H
C       0.5785   0.3029  0.69672     C
C       0.5785   0.6971  0.19672     C
C      0.58537   0.3566  0.00386     C
C      0.58537   0.6434  0.50386     C
O      0.59432   0.2911   0.9594     O
O      0.59432   0.7089   0.4594     O
C      0.60442   0.3963  0.13523     C
C      0.60442   0.6037  0.63523     C
H       0.6135   0.1661   0.5879     H
H       0.6135   0.8339   0.0879     H
C      0.61558   0.1912   0.6326     C
C      0.61558   0.8088   0.1326     C
C      0.61614   0.3244  0.08831     C
C      0.61614   0.6756  0.58831     C
N       0.6209   0.3176  0.82386     N
N       0.6209   0.6824  0.32386     N
C      0.62669   0.2649  0.76807     C
C      0.62669   0.7351  0.26807     C
H       0.6292   0.4305   0.2453     H
H       0.6292   0.5695   0.7453     H
O      0.63171   0.4188  0.42985     O
O      0.63171   0.5812  0.92985     O
C      0.63801   0.3825  0.21484     C
C      0.63801   0.6175  0.71484     C
C      0.66004   0.2321   0.1228     C
C      0.66004   0.7679   0.6228     C
C      0.66314    0.151   0.7053     C
C      0.66314    0.849   0.2053     C
H       0.6644   0.1832   0.4511     H
H       0.6644   0.8168   0.9511     H
O       0.6645   0.0642  0.93786     O
O       0.6645   0.9358  0.43786     O
H       0.6667   0.1785   0.0922     H
H       0.6667   0.8215   0.5922     H
C      0.66981   0.1856   0.7732     C
C      0.66981   0.8144   0.2732     C
Cd     0.67511  0.29745  0.95175    Cd
Cd     0.67511  0.70255  0.45175    Cd
C      0.67616    0.429  0.49676     C
C      0.67616    0.571  0.99676     C
C      0.68487   0.2975  0.24993     C
C      0.68487   0.7025  0.74993     C
H       0.6911   0.0985   0.7068     H
H       0.6911   0.9015   0.2068     H
C      0.69223   0.1882  0.50395     C
C      0.69223   0.8118  0.00395     C
C      0.69385   0.2199   0.2028     C
C      0.69385   0.7801   0.7028     C
O      0.70076   0.4654  0.02978     O
O      0.70076   0.5346  0.52978     O
H       0.7014    0.158   0.8207     H
H       0.7014    0.842   0.3207     H
C      0.70505   0.3064  0.54203     C
C      0.70505   0.6936  0.04203     C
C      0.70719   0.0525  0.00559     C
C      0.70719   0.9475  0.50559     C
H       0.7193   0.4907   0.3486     H
H       0.7193   0.5093   0.8486     H
C      0.72126    0.077  0.54529     C
C      0.72126    0.923  0.04529     C
H       0.7232   0.1582   0.2252     H
H       0.7232   0.8418   0.7252     H
C      0.72543   0.2984  0.33566     C
C      0.72543   0.7016  0.83566     C
C      0.73831   0.4154  0.37565     C
C      0.73831   0.5846  0.87565     C
O      0.73838    0.151  0.04436     O
O      0.73838    0.849  0.54436     O
H       0.7458   0.1069   0.3533     H
H       0.7458   0.8931   0.8533     H
C      0.74589    0.313  0.62162     C
C      0.74589    0.687  0.12162     C
C      0.75411    0.187  0.37838     C
C      0.75411    0.813  0.87838     C
H       0.7542   0.3931   0.6467     H
H       0.7542   0.6069   0.1467     H
O      0.76162    0.349  0.95564     O
O      0.76162    0.651  0.45564     O
C      0.76169   0.0846  0.62435     C
C      0.76169   0.9154  0.12435     C
C      0.77457   0.2016  0.66434     C
C      0.77457   0.7984  0.16434     C
H       0.7768   0.3418   0.7748     H
H       0.7768   0.6582   0.2748     H
C      0.77874    0.423  0.45471     C
C      0.77874    0.577  0.95471     C
H       0.7807   0.0093   0.6514     H
H       0.7807   0.9907   0.1514     H
C      0.79281   0.4475  0.99441     C
C      0.79281   0.5525  0.49441     C
C      0.79495   0.1936  0.45797     C
C      0.79495   0.8064  0.95797     C
H       0.7986    0.342   0.1793     H
H       0.7986    0.658   0.6793     H
O      0.79924   0.0346  0.97022     O
O      0.79924   0.9654  0.47022     O
C      0.80615   0.2801   0.7972     C
C      0.80615   0.7199   0.2972     C
C      0.80777   0.3118  0.49605     C
C      0.80777   0.6882  0.99605     C
H       0.8089   0.4015   0.2932     H
H       0.8089   0.5985   0.7932     H
C      0.81513   0.2025  0.75007     C
C      0.81513   0.7975  0.25007     C
C      0.82384    0.071  0.50324     C
C      0.82384    0.929  0.00324     C
Cd     0.82489  0.20255  0.04825    Cd
Cd     0.82489  0.79745  0.54825    Cd
C      0.83019   0.3144   0.2268     C
C      0.83019   0.6856   0.7268     C
H       0.8333   0.3215   0.9078     H
H       0.8333   0.6785   0.4078     H
O       0.8355   0.4358  0.06214     O
O       0.8355   0.5642  0.56214     O
H       0.8356   0.3168   0.5489     H
H       0.8356   0.6832   0.0489     H
C      0.83686    0.349   0.2947     C
C      0.83686    0.651   0.7947     C
C      0.83996   0.2679   0.8772     C
C      0.83996   0.7321   0.3772     C
C      0.86199   0.1175  0.78516     C
C      0.86199   0.8825  0.28516     C
O      0.86829   0.0812  0.57015     O
O      0.86829   0.9188  0.07015     O
H       0.8708   0.0695   0.7547     H
H       0.8708   0.9305   0.2547     H
C      0.87331   0.2351  0.23193     C
C      0.87331   0.7649  0.73193     C
N       0.8791   0.1824  0.17614     N
N       0.8791   0.8176  0.67614     N
C      0.88386   0.1756  0.91169     C
C      0.88386   0.8244  0.41169     C
C      0.88442   0.3088   0.3674     C
C      0.88442   0.6912   0.8674     C
H       0.8865   0.3339   0.4121     H
H       0.8865   0.6661   0.9121     H
C      0.89558   0.1037  0.86477     C
C      0.89558   0.8963  0.36477     C
O      0.90568   0.2089   0.0406     O
O      0.90568   0.7911   0.5406     O
C      0.91463   0.1434  0.99614     C
C      0.91463   0.8566  0.49614     C
C       0.9215   0.1971  0.30328     C
C       0.9215   0.8029  0.80328     C
H       0.9264   0.0456   0.8872     H
H       0.9264   0.9544   0.3872     H
C      0.92737    0.234   0.3735     C
C      0.92737    0.766   0.8735     C
N      0.92844   0.1153  0.21203     N
N      0.92844   0.8847  0.71203     N
O      0.94788   0.0461  0.02036     O
O      0.94788   0.9539  0.52036     O
N      0.95504    0.122  0.28883     N
N      0.95504    0.878  0.78883     N
Cd     0.95707   0.0217  0.13539    Cd
Cd     0.95707   0.9783  0.63539    Cd
H        0.959   0.2083   0.4215     H
H        0.959   0.7917   0.9215     H
