data_I
_chemical_name_common  '/home/zhangsd/repos/MofS-CGCNN/ML/data/TSD/clean_cifs/KAJZIH_clean'
_cell_length_a 19.21000
_cell_length_b 19.21000
_cell_length_c  6.91580
_cell_angle_alpha 90.00000
_cell_angle_beta  90.00000
_cell_angle_gamma 90.00000
_space_group_name_H-M_alt      'P 1'


loop_
_space_group_symop_operation_xyz
  'x, y, z' 

loop_
_atom_site_label
_atom_site_fract_x
_atom_site_fract_y
_atom_site_fract_z
_atom_site_type_symbol
C       0.0092     0.75   0.6532     C
H       0.0116     0.25   0.4714     H
C      0.01203  0.61889   0.6492     C
C      0.01203  0.88111   0.6492     C
O       0.0159  0.11823   0.5124     O
O       0.0159  0.38177   0.5124     O
C      0.02472   0.6873   0.7454     C
C      0.02472   0.8127   0.7454     C
Cu     0.03003  0.03003  0.64811    Cu
Cu     0.03003  0.46997  0.64811    Cu
O      0.03227  0.56614   0.7385     O
O      0.03227  0.93386   0.7385     O
C       0.0565  0.68759   0.9276     C
C       0.0565  0.81241   0.9276     C
H       0.0659   0.6449   0.9917     H
H       0.0659   0.8551   0.9917     H
O      0.06614  0.53227   0.2615     O
O      0.06614  0.96773   0.2615     O
C       0.0742     0.75   0.0145     C
C       0.1153     0.75   0.1982     C
O      0.11823   0.0159   0.5124     O
O      0.11823   0.4841   0.5124     O
C      0.11889  0.51203   0.3508     C
C      0.11889  0.98797   0.3508     C
O      0.13198  0.69197   0.2665     O
O      0.13198  0.80803   0.2665     O
H       0.1449   0.5659   0.0083     H
H       0.1449   0.9341   0.0083     H
Cu     0.17264  0.67264      0.5    Cu
Cu     0.17264  0.82736      0.5    Cu
C       0.1873  0.52472   0.2546     C
C       0.1873  0.97528   0.2546     C
C      0.18759   0.5565   0.0724     C
C      0.18759   0.9435   0.0724     C
O      0.19197  0.63198   0.7335     O
O      0.19197  0.86802   0.7335     O
H         0.25   0.0116   0.4714     H
H         0.25   0.4884   0.4714     H
C         0.25   0.5092   0.3468     C
C         0.25   0.5742   0.9855     C
C         0.25   0.6153   0.8018     C
C         0.25   0.8847   0.8018     C
C         0.25   0.9258   0.9855     C
C         0.25   0.9908   0.3468     C
O      0.30803  0.63198   0.7335     O
O      0.30803  0.86802   0.7335     O
C      0.31241   0.5565   0.0724     C
C      0.31241   0.9435   0.0724     C
C       0.3127  0.52472   0.2546     C
C       0.3127  0.97528   0.2546     C
Cu     0.32736  0.67264      0.5    Cu
Cu     0.32736  0.82736      0.5    Cu
H       0.3551   0.5659   0.0083     H
H       0.3551   0.9341   0.0083     H
O      0.36802  0.69197   0.2665     O
O      0.36802  0.80803   0.2665     O
C      0.38111  0.51203   0.3508     C
C      0.38111  0.98797   0.3508     C
O      0.38177   0.0159   0.5124     O
O      0.38177   0.4841   0.5124     O
C       0.3847     0.75   0.1982     C
C       0.4258     0.75   0.0145     C
O      0.43386  0.53227   0.2615     O
O      0.43386  0.96773   0.2615     O
H       0.4341   0.6449   0.9917     H
H       0.4341   0.8551   0.9917     H
C       0.4435  0.68759   0.9276     C
C       0.4435  0.81241   0.9276     C
O      0.46773  0.56614   0.7385     O
O      0.46773  0.93386   0.7385     O
Cu     0.46997  0.03003  0.64811    Cu
Cu     0.46997  0.46997  0.64811    Cu
C      0.47528   0.6873   0.7454     C
C      0.47528   0.8127   0.7454     C
O       0.4841  0.11823   0.5124     O
O       0.4841  0.38177   0.5124     O
C      0.48797  0.61889   0.6492     C
C      0.48797  0.88111   0.6492     C
H       0.4884     0.25   0.4714     H
C       0.4908     0.75   0.6532     C
C       0.5092     0.25   0.3468     C
H       0.5116     0.75   0.5286     H
C      0.51203  0.11889   0.3508     C
C      0.51203  0.38111   0.3508     C
O       0.5159  0.61823   0.4876     O
O       0.5159  0.88177   0.4876     O
C      0.52472   0.1873   0.2546     C
C      0.52472   0.3127   0.2546     C
Cu     0.53003  0.53003  0.35189    Cu
Cu     0.53003  0.96997  0.35189    Cu
O      0.53227  0.06614   0.2615     O
O      0.53227  0.43386   0.2615     O
C       0.5565  0.18759   0.0724     C
C       0.5565  0.31241   0.0724     C
H       0.5659   0.1449   0.0083     H
H       0.5659   0.3551   0.0083     H
O      0.56614  0.03227   0.7385     O
O      0.56614  0.46773   0.7385     O
C       0.5742     0.25   0.9855     C
C       0.6153     0.25   0.8018     C
O      0.61823   0.5159   0.4876     O
O      0.61823   0.9841   0.4876     O
C      0.61889  0.01203   0.6492     C
C      0.61889  0.48797   0.6492     C
O      0.63198  0.19197   0.7335     O
O      0.63198  0.30803   0.7335     O
H       0.6449   0.0659   0.9917     H
H       0.6449   0.4341   0.9917     H
Cu     0.67264  0.17264      0.5    Cu
Cu     0.67264  0.32736      0.5    Cu
C       0.6873  0.02472   0.7454     C
C       0.6873  0.47528   0.7454     C
C      0.68759   0.0565   0.9276     C
C      0.68759   0.4435   0.9276     C
O      0.69197  0.13198   0.2665     O
O      0.69197  0.36802   0.2665     O
C         0.75   0.0092   0.6532     C
C         0.75   0.0742   0.0145     C
C         0.75   0.1153   0.1982     C
C         0.75   0.3847   0.1982     C
C         0.75   0.4258   0.0145     C
C         0.75   0.4908   0.6532     C
H         0.75   0.5116   0.5286     H
H         0.75   0.9884   0.5286     H
O      0.80803  0.13198   0.2665     O
O      0.80803  0.36802   0.2665     O
C      0.81241   0.0565   0.9276     C
C      0.81241   0.4435   0.9276     C
C       0.8127  0.02472   0.7454     C
C       0.8127  0.47528   0.7454     C
Cu     0.82736  0.17264      0.5    Cu
Cu     0.82736  0.32736      0.5    Cu
H       0.8551   0.0659   0.9917     H
H       0.8551   0.4341   0.9917     H
O      0.86802  0.19197   0.7335     O
O      0.86802  0.30803   0.7335     O
C      0.88111  0.01203   0.6492     C
C      0.88111  0.48797   0.6492     C
O      0.88177   0.5159   0.4876     O
O      0.88177   0.9841   0.4876     O
C       0.8847     0.25   0.8018     C
C       0.9258     0.25   0.9855     C
O      0.93386  0.03227   0.7385     O
O      0.93386  0.46773   0.7385     O
H       0.9341   0.1449   0.0083     H
H       0.9341   0.3551   0.0083     H
C       0.9435  0.18759   0.0724     C
C       0.9435  0.31241   0.0724     C
O      0.96773  0.06614   0.2615     O
O      0.96773  0.43386   0.2615     O
Cu     0.96997  0.53003  0.35189    Cu
Cu     0.96997  0.96997  0.35189    Cu
C      0.97528   0.1873   0.2546     C
C      0.97528   0.3127   0.2546     C
O       0.9841  0.61823   0.4876     O
O       0.9841  0.88177   0.4876     O
C      0.98797  0.11889   0.3508     C
C      0.98797  0.38111   0.3508     C
H       0.9884     0.75   0.5286     H
C       0.9908     0.25   0.3468     C
