data_I
_chemical_name_common  '/home/zhangsd/repos/MofS-CGCNN/ML/data/TSD/clean_cifs/KAKBUW_clean'
_cell_length_a 28.28100
_cell_length_b 20.84900
_cell_length_c 30.69900
_cell_angle_alpha 90.00000
_cell_angle_beta  90.99400
_cell_angle_gamma 90.00000
_space_group_name_H-M_alt      'P 1'


loop_
_space_group_symop_operation_xyz
  'x, y, z' 

loop_
_atom_site_label
_atom_site_fract_x
_atom_site_fract_y
_atom_site_fract_z
_atom_site_type_symbol
C          0.0   0.0385     0.25     C
C          0.0   0.0969     0.75     C
C          0.0   0.1097     0.25     C
C          0.0   0.1676     0.75     C
C          0.0   0.3011     0.75     C
H          0.0   0.3457     0.75     H
H          0.0   0.6543     0.25     H
C          0.0   0.6989     0.25     C
C          0.0   0.8324     0.25     C
C          0.0   0.8903     0.75     C
C          0.0   0.9031     0.25     C
C          0.0   0.9615     0.75     C
H       0.0011   0.4361   0.6182     H
H       0.0011   0.5639   0.1182     H
C       0.0034   0.3621   0.6632     C
C       0.0034   0.6379   0.1632     C
C       0.0042    0.004   0.2884     C
C       0.0042    0.996   0.7884     C
C       0.0043    0.061   0.7883     C
C       0.0043    0.939   0.2883     C
O       0.0062   0.1377   0.2142     O
O       0.0062   0.8623   0.7142     O
H        0.007   0.0258   0.3147     H
H        0.007   0.9742   0.8147     H
H       0.0073   0.0825   0.8147     H
H       0.0073   0.9175   0.3147     H
O       0.0077   0.0038   0.4541     O
O       0.0077   0.9962   0.9541     O
C       0.0091   0.2697   0.7116     C
C       0.0091   0.7303   0.2116     C
C       0.0095   0.2015   0.7127     C
C       0.0095   0.7985   0.2127     C
Ca      0.0098    0.238   0.3128    Ca
Ca      0.0098    0.762   0.8128    Ca
C       0.0113    0.394   0.6218     C
C       0.0113    0.606   0.1218     C
H       0.0126   0.3834   0.8149     H
H       0.0126   0.6166   0.3149     H
H       0.0165   0.1791   0.6874     H
H       0.0165   0.8209   0.1874     H
C       0.0184   0.3035   0.6697     C
C       0.0184   0.6965   0.1697     C
C       0.0213   0.0075   0.9151     C
C       0.0213   0.9925   0.4151     C
O       0.0286   0.2135   0.1198     O
O       0.0286   0.7865   0.6198     O
Ca       0.029   0.0844   0.0033    Ca
Ca       0.029   0.9156   0.5033    Ca
O       0.0301   0.1349   0.0728     O
O       0.0301   0.8651   0.5728     O
C       0.0323   0.3655   0.5897     C
C       0.0323   0.6345   0.0897     C
O       0.0334   0.4552   0.5434     O
O       0.0334   0.5448   0.0434     O
O       0.0393   0.3192   0.3619     O
O       0.0393   0.6808   0.8619     O
C       0.0394   0.2769   0.6367     C
C       0.0394   0.7231   0.1367     C
C       0.0402   0.3967   0.5464     C
C       0.0402   0.6033   0.0464     C
Ca      0.0406   0.2088   0.4308    Ca
Ca      0.0406   0.7912   0.9308    Ca
N       0.0428   0.0697   0.9195     N
N       0.0428   0.9303   0.4195     N
O       0.0432    0.146   0.5016     O
O       0.0432    0.854   0.0016     O
C       0.0452   0.3057   0.5969     C
C       0.0452   0.6943   0.0969     C
C       0.0482   0.1651    0.104     C
C       0.0482   0.8349    0.604     C
H       0.0509   0.0977   0.5783     H
H       0.0509   0.9023   0.0783     H
H       0.0513   0.2356   0.6404     H
H       0.0513   0.7644   0.1404     H
O        0.052   0.3635   0.5146     O
O        0.052   0.6365   0.0146     O
O       0.0544   0.2612   0.2525     O
O       0.0544   0.7388   0.7525     O
O       0.0557    0.314   0.1909     O
O       0.0557    0.686   0.6909     O
H       0.0587   0.2824   0.5745     H
H       0.0587   0.7176   0.0745     H
H       0.0628   0.4217   0.3243     H
H       0.0628   0.5783   0.8243     H
O       0.0704   0.1864   0.3536     O
O       0.0704   0.8136   0.8536     O
C       0.0747   0.2958   0.2259     C
C       0.0747   0.7042   0.7259     C
C       0.0767   0.3306   0.3821     C
C       0.0767   0.6694   0.8821     C
C       0.0782   0.1768   0.5156     C
C       0.0782   0.8232   0.0156     C
C       0.0794   0.1168   0.5864     C
C       0.0794   0.8832   0.0864     C
H        0.085   0.0751   0.6454     H
H        0.085   0.9249   0.1454     H
O       0.0875   0.3048   0.4186     O
O       0.0875   0.6952   0.9186     O
C       0.0885   0.1347   0.3681     C
C       0.0885   0.8653   0.8681     C
O       0.0891    0.122    0.408     O
O       0.0891    0.878    0.908     O
O       0.0942   0.2242   0.4948     O
O       0.0942   0.7758   0.9948     O
H       0.0944   0.1363   0.2816     H
H       0.0944   0.8637   0.7816     H
C       0.0945   0.4223   0.3331     C
C       0.0945   0.5777   0.8331     C
C       0.0951   0.1445   0.1225     C
C       0.0951   0.8555   0.6225     C
H       0.0956   0.0552    0.097     H
H       0.0956   0.9448    0.597     H
C       0.1005   0.1026   0.6266     C
C       0.1005   0.8974   0.1266     C
C       0.1011   0.1594   0.5587     C
C       0.1011   0.8406   0.0587     C
C       0.1073   0.0984   0.2925     C
C       0.1073   0.9016   0.7925     C
C       0.1088   0.0878   0.3369     C
C       0.1088   0.9122   0.8369     C
H       0.1102   0.2282   0.1533     H
H       0.1102   0.7718   0.6533     H
C       0.1107   0.3785   0.3637     C
C       0.1107   0.6215   0.8637     C
C       0.1123   0.0833    0.115     C
C       0.1123   0.9167    0.615     C
H       0.1131   0.4959   0.2947     H
H       0.1131   0.5041   0.7947     H
H       0.1164   0.0489   0.7026     H
H       0.1164   0.9511   0.2026     H
C       0.1213   0.1868   0.1486     C
C       0.1213   0.8132   0.6486     C
H       0.1229   0.0598   0.2344     H
H       0.1229   0.9402   0.7344     H
Ca      0.1239   0.3285   0.4863    Ca
Ca      0.1239   0.6715   0.9863    Ca
C       0.1247   0.4672   0.3155     C
C       0.1247   0.5328   0.8155     C
C       0.1249   0.0527   0.2643     C
C       0.1249   0.9473   0.7643     C
C       0.1251   0.3144   0.2359     C
C       0.1251   0.6856   0.7359     C
C       0.1289   0.0321   0.3527     C
C       0.1289   0.9679   0.8527     C
H       0.1297   0.3811   0.1882     H
H       0.1297   0.6189   0.6882     H
H       0.1302   0.0245   0.3825     H
H       0.1302   0.9755   0.8825     H
H       0.1371   0.2554   0.2863     H
H       0.1371   0.7446   0.7863     H
H       0.1398   0.3636   0.6293     H
H       0.1398   0.6364   0.1293     H
C       0.1435   0.1277   0.6395     C
C       0.1435   0.8723   0.1395     C
C       0.1439    0.184   0.5707     C
C       0.1439    0.816   0.0707     C
C       0.1452   0.0028   0.7796     C
C       0.1452   0.0675   0.7105     C
C       0.1452   0.9325   0.2105     C
C       0.1452   0.9972   0.2796     C
C       0.1464   0.3619    0.211     C
C       0.1464   0.6381    0.711     C
C       0.1472   0.0128   0.8242     C
C       0.1472   0.9872   0.3242     C
H       0.1496   0.3966   0.6996     H
H       0.1496   0.6034   0.1996     H
C       0.1511   0.2868   0.2692     C
C       0.1511   0.7132   0.7692     C
C       0.1547   0.0639   0.1346     C
C       0.1547   0.9361   0.6346     C
C       0.1577   0.3804   0.3766     C
C       0.1577   0.6196   0.8766     C
H       0.1592   0.2117   0.5518     H
H       0.1592   0.7883   0.0518     H
H        0.161   0.0501   0.8352     H
H        0.161   0.9499   0.3352     H
O       0.1623   0.3424   0.5521     O
O       0.1623   0.6576   0.0521     O
C       0.1639   0.1674   0.1675     C
C       0.1639   0.8326   0.6675     C
C       0.1653   0.1686   0.6103     C
C       0.1653   0.8314   0.1103     C
H        0.166   0.0227   0.1295     H
H        0.166   0.9773   0.6295     H
C       0.1662   0.1112   0.6825     C
C       0.1662   0.8888   0.1825     C
C       0.1666   0.0511   0.7502     C
C       0.1666   0.9489   0.2502     C
H       0.1688   0.3515   0.3975     H
H       0.1688   0.6485   0.8975     H
C       0.1702   0.3669   0.6412     C
C       0.1702   0.6331   0.1412     C
H       0.1719   0.4751   0.7512     H
H       0.1719   0.5249   0.2512     H
C        0.172   0.4701   0.3283     C
C        0.172   0.5299   0.8283     C
C       0.1761   0.3869   0.6832     C
C       0.1761   0.6131   0.1832     C
C       0.1807   0.1051   0.1617     C
C       0.1807   0.8949   0.6617     C
H       0.1814   0.1963   0.1843     H
H       0.1814   0.8037   0.6843     H
C       0.1885   0.4242   0.3592     C
C       0.1885   0.5758   0.8592     C
C       0.1926   0.3806   0.2204     C
C       0.1926   0.6194   0.7204     C
H       0.1947    0.186   0.6175     H
H       0.1947    0.814   0.1175     H
C        0.197   0.3042    0.278     C
C        0.197   0.6958    0.778     C
C        0.198   0.4605   0.7671     C
C        0.198   0.5395   0.2671     C
C       0.2018   0.3323   0.5691     C
C       0.2018   0.6677   0.0691     C
C       0.2055   0.4835   0.8086     C
C       0.2055   0.5165   0.3086     C
H       0.2064   0.4118   0.2031     H
H       0.2064   0.5882   0.7031     H
C       0.2084   0.3516    0.616     C
C       0.2084   0.6484    0.116     C
C       0.2096   0.1369   0.6943     C
C       0.2096   0.8631   0.1943     C
H         0.21   0.1216   0.3101     H
H         0.21   0.8784   0.8101     H
C       0.2104   0.0783   0.7608     C
C       0.2104   0.9217   0.2608     C
H       0.2119    0.133   0.2406     H
H       0.2119    0.867   0.7406     H
H       0.2141   0.2826   0.2996     H
H       0.2141   0.7174   0.7996     H
C       0.2191   0.3544   0.2547     C
C       0.2191   0.6456   0.7547     C
H       0.2202   0.1574   0.3811     H
H       0.2202   0.8426   0.8811     H
H       0.2203   0.4237   0.3676     H
H       0.2203   0.5763   0.8676     H
C       0.2214   0.3931   0.7024     C
C       0.2214   0.6069   0.2024     C
C       0.2238    0.083   0.1854     C
C       0.2238    0.917   0.6854     C
H       0.2239   0.1657   0.6755     H
H       0.2239   0.8343   0.1755     H
H       0.2249    0.067   0.7871     H
H       0.2249    0.933   0.2871     H
C       0.2283    0.416    0.748     C
C       0.2283    0.584    0.248     C
C       0.2329   0.1042    0.228     C
C       0.2329   0.8958    0.728     C
C       0.2331   0.1208   0.7341     C
C       0.2331   0.8792   0.2341     C
O       0.2356   0.3077   0.5501     O
O       0.2356   0.6923   0.0501     O
C       0.2403   0.1242   0.3222     C
C       0.2403   0.8758   0.8222     C
C       0.2448   0.4616   0.8325     C
C       0.2448   0.5384   0.3325     C
C       0.2463   0.1453   0.3651     C
C       0.2463   0.8547   0.8651     C
H       0.2498   0.0232   0.1394     H
H       0.2498   0.9768   0.6394     H
H       0.2502   0.4768   0.8606     H
H       0.2502   0.5232   0.3606     H
C       0.2537   0.3547   0.6349     C
C       0.2537   0.6453   0.1349     C
C       0.2552   0.0384   0.1675     C
C       0.2552   0.9616   0.6675     C
C       0.2597   0.3758   0.6778     C
C       0.2597   0.6242   0.1778     C
O       0.2644   0.1923   0.4499     O
O       0.2644   0.8077   0.9499     O
C       0.2669   0.3792   0.2659     C
C       0.2669   0.6208   0.7659     C
C       0.2671   0.3958    0.772     C
C       0.2671   0.6042    0.272     C
C       0.2717    0.084    0.252     C
C       0.2717    0.916    0.752     C
H       0.2751    0.433   0.2129     H
H       0.2751    0.567   0.7129     H
H       0.2761   0.3343   0.3245     H
H       0.2761   0.6657   0.8245     H
C       0.2762    0.417   0.8146     C
C       0.2762    0.583   0.3146     C
C       0.2786   0.1069   0.2976     C
C       0.2786   0.8931   0.7976     C
H       0.2797   0.0763   0.6324     H
H       0.2797   0.9237   0.1324     H
H       0.2798   0.3426   0.6189     H
H       0.2798   0.6574   0.1189     H
C       0.2809   0.1456   0.7453     C
C       0.2809   0.8544   0.2453     C
H       0.2859   0.2174   0.7004     H
H       0.2859   0.7826   0.2004     H
H       0.2881    0.367   0.7594     H
H       0.2881    0.633   0.2594     H
C       0.2896   0.4217   0.2392     C
C       0.2896   0.5783   0.7392     C
H         0.29   0.3784   0.6899     H
H         0.29   0.6216   0.1899     H
C       0.2904   0.3631   0.3057     C
C       0.2904   0.6369   0.8057     C
C       0.2916   0.1484    0.384     C
C       0.2916   0.8516    0.884     C
H       0.2936   0.0882   0.7969     H
H       0.2936   0.9118   0.2969     H
C       0.2945   0.0165   0.1914     C
C       0.2945   0.9835   0.6914     C
C       0.2982   0.1677   0.4309     C
C       0.2982   0.8323   0.9309     C
C        0.302   0.0395   0.2329     C
C        0.302   0.9605   0.7329     C
C        0.303   0.1958    0.722     C
C        0.303   0.8042    0.222     C
H       0.3053    0.314   0.3825     H
H       0.3053    0.686   0.8825     H
C       0.3074   0.1194   0.7796     C
C       0.3074   0.8806   0.2796     C
C       0.3115   0.0758   0.6408     C
C       0.3115   0.9242   0.1408     C
H       0.3186   0.3037   0.8157     H
H       0.3186   0.6963   0.3157     H
C       0.3193   0.3949   0.8383     C
C       0.3193   0.6051   0.3383     C
C       0.3239   0.1131   0.3168     C
C       0.3239   0.8869   0.8168     C
C        0.328   0.0299   0.6717     C
C        0.328   0.9701   0.1717     C
H       0.3281   0.0249   0.2488     H
H       0.3281   0.9751   0.7488     H
C       0.3298   0.1331   0.3588     C
C       0.3298   0.8669   0.8588     C
H       0.3312   0.1485   0.6025     H
H       0.3312   0.8515   0.1025     H
C       0.3334   0.4489   0.2498     C
C       0.3334   0.5511   0.7498     C
C       0.3338   0.3888   0.3175     C
C       0.3338   0.6112   0.8175     C
H        0.334   0.4773   0.8705     H
H        0.334   0.5227   0.3705     H
C       0.3347   0.3314   0.3897     C
C       0.3347   0.6686   0.8897     C
C       0.3361   0.3326   0.8325     C
C       0.3361   0.6674   0.3325     C
O       0.3377   0.1576   0.4479     O
O       0.3377   0.8424   0.9479     O
H        0.339   0.4499   0.1648     H
H        0.339   0.5501   0.6648     H
H       0.3408   0.2883   0.4482     H
H       0.3408   0.7117   0.9482     H
C       0.3423   0.1196   0.6234     C
C       0.3423   0.8804   0.1234     C
C       0.3453   0.4361   0.8654     C
C       0.3453   0.5639   0.3654     C
C       0.3489   0.2132   0.7308     C
C       0.3489   0.7868   0.2308     C
H       0.3504   0.1034   0.3004     H
H       0.3504   0.8966   0.8004     H
C       0.3528   0.4872   0.1758     C
C       0.3528   0.5128   0.6758     C
C       0.3536   0.1381    0.789     C
C       0.3536   0.8619    0.289     C
C       0.3548   0.4325   0.2895     C
C       0.3548   0.4972   0.2204     C
C       0.3548   0.5028   0.7204     C
C       0.3548   0.5675   0.7895     C
C       0.3561    0.316   0.4293     C
C       0.3561    0.684   0.9293     C
C       0.3565   0.3723   0.3605     C
C       0.3565   0.6277   0.8605     C
H       0.3602   0.1364   0.3707     H
H       0.3602   0.8636   0.8707     H
H       0.3629   0.2446   0.7137     H
H       0.3629   0.7554   0.2137     H
H       0.3698   0.4755   0.6175     H
H       0.3698   0.5245   0.1175     H
H       0.3703   0.1189   0.8118     H
H       0.3703   0.8811   0.3118     H
C       0.3711   0.4679   0.6473     C
C       0.3711   0.5321   0.1473     C
C       0.3749   0.1856   0.7641     C
C       0.3749   0.8144   0.2641     C
C       0.3751   0.4473   0.7357     C
C       0.3751   0.5527   0.2357     C
C       0.3753   0.0328   0.6845     C
C       0.3753   0.9672   0.1845     C
Ca      0.3761   0.1715   0.5137    Ca
Ca      0.3761   0.8285   0.0137    Ca
H       0.3771   0.4402   0.7656     H
H       0.3771   0.5598   0.2656     H
C       0.3787   0.3132   0.8514     C
C       0.3787   0.6868   0.3514     C
H       0.3836   0.4511   0.2974     H
H       0.3836   0.5489   0.7974     H
H       0.3869   0.0041   0.7053     H
H       0.3869   0.9959   0.2053     H
C       0.3877   0.4167    0.885     C
C       0.3877   0.5833    0.385     C
C       0.3893   0.1215   0.6363     C
C       0.3893   0.8785   0.1363     C
H       0.3898   0.2718   0.8467     H
H       0.3898   0.7282   0.3467     H
C       0.3912   0.4122   0.6631     C
C       0.3912   0.5878   0.1631     C
C       0.3927   0.4016   0.7075     C
C       0.3927   0.5984   0.2075     C
C       0.3989   0.3406   0.4413     C
C       0.3989   0.6594   0.9413     C
C       0.3995   0.3974   0.3734     C
C       0.3995   0.6026   0.8734     C
H       0.4044   0.4448    0.903     H
H       0.4044   0.5552    0.403     H
C       0.4049   0.3555   0.8775     C
C       0.4049   0.6445   0.3775     C
C       0.4055   0.0777   0.6669     C
C       0.4055   0.9223   0.1669     C
H       0.4056   0.3637   0.7184     H
H       0.4056   0.6363   0.2184     H
O       0.4058   0.2758   0.5052     O
O       0.4058   0.7242   0.0052     O
O       0.4109    0.378    0.592     O
O       0.4109    0.622    0.092     O
C       0.4115   0.3653   0.6319     C
C       0.4115   0.6347   0.1319     C
O       0.4125   0.1952   0.5814     O
O       0.4125   0.8048   0.0814     O
H        0.415   0.4249   0.3546     H
H        0.415   0.5751   0.8546     H
C       0.4206   0.3832   0.4136     C
C       0.4206   0.6168   0.9136     C
C       0.4218   0.3232   0.4844     C
C       0.4218   0.6768   0.9844     C
C       0.4233   0.1694   0.6179     C
C       0.4233   0.8306   0.1179     C
C       0.4253   0.2042   0.7741     C
C       0.4253   0.7958   0.2741     C
O       0.4296   0.3136   0.6464     O
O       0.4296   0.6864   0.1464     O
H       0.4372   0.0783   0.6757     H
H       0.4372   0.9217   0.1757     H
H       0.4413   0.2176   0.4255     H
H       0.4413   0.7824   0.9255     H
O       0.4443    0.186   0.8091     O
O       0.4443    0.814   0.3091     O
O       0.4456   0.2388   0.7475     O
O       0.4456   0.7612   0.2475     O
O        0.448   0.1365   0.4854     O
O        0.448   0.8635   0.9854     O
H       0.4487   0.2644   0.3596     H
H       0.4487   0.7356   0.8596     H
H       0.4491   0.4023   0.4217     H
H       0.4491   0.5977   0.9217     H
C       0.4518   0.3349    0.896     C
C       0.4518   0.6651    0.396     C
C       0.4548   0.1943   0.4031     C
C       0.4548   0.8057   0.9031     C
O       0.4568    0.354   0.4984     O
O       0.4568    0.646   0.9984     O
N       0.4572   0.4303   0.0805     N
N       0.4572   0.5697   0.5805     N
Ca      0.4594   0.2912   0.5692    Ca
Ca      0.4594   0.7088   0.0692    Ca
C       0.4598   0.1033   0.4536     C
C       0.4598   0.8967   0.9536     C
C       0.4606   0.2231   0.3633     C
C       0.4606   0.7769   0.8633     C
O       0.4607   0.1808   0.6381     O
O       0.4607   0.8192   0.1381     O
O       0.4666   0.0448   0.4566     O
O       0.4666   0.9552   0.9566     O
C       0.4677   0.1345   0.4103     C
C       0.4677   0.8655   0.9103     C
O       0.4699   0.3651   0.9272     O
O       0.4699   0.6349   0.4272     O
Ca       0.471   0.4156   0.9967    Ca
Ca       0.471   0.5844   0.4967    Ca
O       0.4714   0.2865   0.8802     O
O       0.4714   0.7135   0.3802     O
C       0.4787   0.4925   0.0849     C
C       0.4787   0.5075   0.5849     C
C       0.4816   0.1965   0.3303     C
C       0.4816   0.8035   0.8303     C
H       0.4835   0.3209   0.3126     H
H       0.4835   0.6791   0.8126     H
H       0.4874   0.1166   0.1851     H
H       0.4874   0.8834   0.6851     H
C       0.4887    0.106   0.3782     C
C       0.4887    0.894   0.8782     C
Ca      0.4902    0.262   0.6872    Ca
Ca      0.4902    0.738   0.1872    Ca
C       0.4905   0.2985   0.2873     C
C       0.4905   0.7015   0.7873     C
C       0.4909   0.2303   0.2884     C
C       0.4909   0.7697   0.7884     C
O       0.4923   0.4962   0.5459     O
O       0.4923   0.5038   0.0459     O
H       0.4927   0.4175   0.1853     H
H       0.4927   0.5825   0.6853     H
H        0.493   0.4742   0.6853     H
H        0.493   0.5258   0.1853     H
O       0.4938   0.3623   0.7858     O
O       0.4938   0.6377   0.2858     O
C       0.4957    0.439   0.2117     C
C       0.4957    0.561   0.7117     C
C       0.4958    0.496   0.7116     C
C       0.4958    0.504   0.2116     C
C       0.4966   0.1379   0.3368     C
C       0.4966   0.8621   0.8368     C
H       0.4989   0.0639   0.3818     H
H       0.4989   0.9361   0.8818     H
H          0.5   0.1543     0.25     H
C          0.5   0.1989     0.25     C
C          0.5   0.3324     0.25     C
C          0.5   0.3903     0.75     C
C          0.5   0.4031     0.25     C
C          0.5   0.4615     0.75     C
C          0.5   0.5385     0.25     C
C          0.5   0.5969     0.75     C
C          0.5   0.6097     0.25     C
C          0.5   0.6676     0.75     C
C          0.5   0.8011     0.75     C
H          0.5   0.8457     0.75     H
H       0.5011   0.0639   0.1182     H
H       0.5011   0.9361   0.6182     H
C       0.5034   0.1379   0.1632     C
C       0.5034   0.8621   0.6632     C
C       0.5042    0.496   0.7884     C
C       0.5042    0.504   0.2884     C
C       0.5043    0.439   0.2883     C
C       0.5043    0.561   0.7883     C
O       0.5062   0.3623   0.7142     O
O       0.5062   0.6377   0.2142     O
H        0.507   0.4742   0.8147     H
H        0.507   0.5258   0.3147     H
H       0.5073   0.4175   0.3147     H
H       0.5073   0.5825   0.8147     H
O       0.5077   0.4962   0.9541     O
O       0.5077   0.5038   0.4541     O
C       0.5091   0.2303   0.2116     C
C       0.5091   0.7697   0.7116     C
C       0.5095   0.2985   0.2127     C
C       0.5095   0.7015   0.7127     C
Ca      0.5098    0.262   0.8128    Ca
Ca      0.5098    0.738   0.3128    Ca
C       0.5113    0.106   0.1218     C
C       0.5113    0.894   0.6218     C
H       0.5126   0.1166   0.3149     H
H       0.5126   0.8834   0.8149     H
H       0.5165   0.3209   0.1874     H
H       0.5165   0.6791   0.6874     H
C       0.5184   0.1965   0.1697     C
C       0.5184   0.8035   0.6697     C
C       0.5213   0.4925   0.4151     C
C       0.5213   0.5075   0.9151     C
O       0.5286   0.2865   0.6198     O
O       0.5286   0.7135   0.1198     O
Ca       0.529   0.4156   0.5033    Ca
Ca       0.529   0.5844   0.0033    Ca
O       0.5301   0.3651   0.5728     O
O       0.5301   0.6349   0.0728     O
C       0.5323   0.1345   0.0897     C
C       0.5323   0.8655   0.5897     C
O       0.5334   0.0448   0.0434     O
O       0.5334   0.9552   0.5434     O
O       0.5393   0.1808   0.8619     O
O       0.5393   0.8192   0.3619     O
C       0.5394   0.2231   0.1367     C
C       0.5394   0.7769   0.6367     C
C       0.5402   0.1033   0.0464     C
C       0.5402   0.8967   0.5464     C
Ca      0.5406   0.2912   0.9308    Ca
Ca      0.5406   0.7088   0.4308    Ca
N       0.5428   0.4303   0.4195     N
N       0.5428   0.5697   0.9195     N
O       0.5432    0.354   0.0016     O
O       0.5432    0.646   0.5016     O
C       0.5452   0.1943   0.0969     C
C       0.5452   0.8057   0.5969     C
C       0.5482   0.3349    0.604     C
C       0.5482   0.6651    0.104     C
H       0.5509   0.4023   0.0783     H
H       0.5509   0.5977   0.5783     H
H       0.5513   0.2644   0.1404     H
H       0.5513   0.7356   0.6404     H
O        0.552   0.1365   0.0146     O
O        0.552   0.8635   0.5146     O
O       0.5544   0.2388   0.7525     O
O       0.5544   0.7612   0.2525     O
O       0.5557    0.186   0.6909     O
O       0.5557    0.814   0.1909     O
H       0.5587   0.2176   0.0745     H
H       0.5587   0.7824   0.5745     H
H       0.5628   0.0783   0.8243     H
H       0.5628   0.9217   0.3243     H
O       0.5704   0.3136   0.8536     O
O       0.5704   0.6864   0.3536     O
C       0.5747   0.2042   0.7259     C
C       0.5747   0.7958   0.2259     C
C       0.5767   0.1694   0.8821     C
C       0.5767   0.8306   0.3821     C
C       0.5782   0.3232   0.0156     C
C       0.5782   0.6768   0.5156     C
C       0.5794   0.3832   0.0864     C
C       0.5794   0.6168   0.5864     C
H        0.585   0.4249   0.1454     H
H        0.585   0.5751   0.6454     H
O       0.5875   0.1952   0.9186     O
O       0.5875   0.8048   0.4186     O
C       0.5885   0.3653   0.8681     C
C       0.5885   0.6347   0.3681     C
O       0.5891    0.378    0.908     O
O       0.5891    0.622    0.408     O
O       0.5942   0.2758   0.9948     O
O       0.5942   0.7242   0.4948     O
H       0.5944   0.3637   0.7816     H
H       0.5944   0.6363   0.2816     H
C       0.5945   0.0777   0.8331     C
C       0.5945   0.9223   0.3331     C
C       0.5951   0.3555   0.6225     C
C       0.5951   0.6445   0.1225     C
H       0.5956   0.4448    0.597     H
H       0.5956   0.5552    0.097     H
C       0.6005   0.3974   0.1266     C
C       0.6005   0.6026   0.6266     C
C       0.6011   0.3406   0.0587     C
C       0.6011   0.6594   0.5587     C
C       0.6073   0.4016   0.7925     C
C       0.6073   0.5984   0.2925     C
C       0.6088   0.4122   0.8369     C
C       0.6088   0.5878   0.3369     C
H       0.6102   0.2718   0.6533     H
H       0.6102   0.7282   0.1533     H
C       0.6107   0.1215   0.8637     C
C       0.6107   0.8785   0.3637     C
C       0.6123   0.4167    0.615     C
C       0.6123   0.5833    0.115     C
H       0.6131   0.0041   0.7947     H
H       0.6131   0.9959   0.2947     H
H       0.6164   0.4511   0.2026     H
H       0.6164   0.5489   0.7026     H
C       0.6213   0.3132   0.6486     C
C       0.6213   0.6868   0.1486     C
H       0.6229   0.4402   0.7344     H
H       0.6229   0.5598   0.2344     H
Ca      0.6239   0.1715   0.9863    Ca
Ca      0.6239   0.8285   0.4863    Ca
C       0.6247   0.0328   0.8155     C
C       0.6247   0.9672   0.3155     C
C       0.6249   0.4473   0.7643     C
C       0.6249   0.5527   0.2643     C
C       0.6251   0.1856   0.7359     C
C       0.6251   0.8144   0.2359     C
C       0.6289   0.4679   0.8527     C
C       0.6289   0.5321   0.3527     C
H       0.6297   0.1189   0.6882     H
H       0.6297   0.8811   0.1882     H
H       0.6302   0.4755   0.8825     H
H       0.6302   0.5245   0.3825     H
H       0.6371   0.2446   0.7863     H
H       0.6371   0.7554   0.2863     H
H       0.6398   0.1364   0.1293     H
H       0.6398   0.8636   0.6293     H
C       0.6435   0.3723   0.1395     C
C       0.6435   0.6277   0.6395     C
C       0.6439    0.316   0.0707     C
C       0.6439    0.684   0.5707     C
C       0.6452   0.4325   0.2105     C
C       0.6452   0.4972   0.2796     C
C       0.6452   0.5028   0.7796     C
C       0.6452   0.5675   0.7105     C
C       0.6464   0.1381    0.711     C
C       0.6464   0.8619    0.211     C
C       0.6472   0.4872   0.3242     C
C       0.6472   0.5128   0.8242     C
H       0.6496   0.1034   0.1996     H
H       0.6496   0.8966   0.6996     H
C       0.6511   0.2132   0.7692     C
C       0.6511   0.7868   0.2692     C
C       0.6547   0.4361   0.6346     C
C       0.6547   0.5639   0.1346     C
C       0.6577   0.1196   0.8766     C
C       0.6577   0.8804   0.3766     C
H       0.6592   0.2883   0.0518     H
H       0.6592   0.7117   0.5518     H
H        0.661   0.4499   0.3352     H
H        0.661   0.5501   0.8352     H
O       0.6623   0.1576   0.0521     O
O       0.6623   0.8424   0.5521     O
C       0.6639   0.3326   0.6675     C
C       0.6639   0.6674   0.1675     C
C       0.6653   0.3314   0.1103     C
C       0.6653   0.6686   0.6103     C
H        0.666   0.4773   0.6295     H
H        0.666   0.5227   0.1295     H
C       0.6662   0.3888   0.1825     C
C       0.6662   0.6112   0.6825     C
C       0.6666   0.4489   0.2502     C
C       0.6666   0.5511   0.7502     C
H       0.6688   0.1485   0.8975     H
H       0.6688   0.8515   0.3975     H
C       0.6702   0.1331   0.1412     C
C       0.6702   0.8669   0.6412     C
H       0.6719   0.0249   0.2512     H
H       0.6719   0.9751   0.7512     H
C        0.672   0.0299   0.8283     C
C        0.672   0.9701   0.3283     C
C       0.6761   0.1131   0.1832     C
C       0.6761   0.8869   0.6832     C
C       0.6807   0.3949   0.6617     C
C       0.6807   0.6051   0.1617     C
H       0.6814   0.3037   0.6843     H
H       0.6814   0.6963   0.1843     H
C       0.6885   0.0758   0.8592     C
C       0.6885   0.9242   0.3592     C
C       0.6926   0.1194   0.7204     C
C       0.6926   0.8806   0.2204     C
H       0.6947    0.314   0.1175     H
H       0.6947    0.686   0.6175     H
C        0.697   0.1958    0.778     C
C        0.697   0.8042    0.278     C
C        0.698   0.0395   0.2671     C
C        0.698   0.9605   0.7671     C
C       0.7018   0.1677   0.0691     C
C       0.7018   0.8323   0.5691     C
C       0.7055   0.0165   0.3086     C
C       0.7055   0.9835   0.8086     C
H       0.7064   0.0882   0.7031     H
H       0.7064   0.9118   0.2031     H
C       0.7084   0.1484    0.116     C
C       0.7084   0.8516    0.616     C
C       0.7096   0.3631   0.1943     C
C       0.7096   0.6369   0.6943     C
H         0.71   0.3784   0.8101     H
H         0.71   0.6216   0.3101     H
C       0.7104   0.4217   0.2608     C
C       0.7104   0.5783   0.7608     C
H       0.7119    0.367   0.7406     H
H       0.7119    0.633   0.2406     H
H       0.7141   0.2174   0.7996     H
H       0.7141   0.7826   0.2996     H
C       0.7191   0.1456   0.7547     C
C       0.7191   0.8544   0.2547     C
H       0.7202   0.3426   0.8811     H
H       0.7202   0.6574   0.3811     H
H       0.7203   0.0763   0.8676     H
H       0.7203   0.9237   0.3676     H
C       0.7214   0.1069   0.2024     C
C       0.7214   0.8931   0.7024     C
C       0.7238    0.417   0.6854     C
C       0.7238    0.583   0.1854     C
H       0.7239   0.3343   0.1755     H
H       0.7239   0.6657   0.6755     H
H       0.7249    0.433   0.2871     H
H       0.7249    0.567   0.7871     H
C       0.7283    0.084    0.248     C
C       0.7283    0.916    0.748     C
C       0.7329   0.3958    0.728     C
C       0.7329   0.6042    0.228     C
C       0.7331   0.3792   0.2341     C
C       0.7331   0.6208   0.7341     C
O       0.7356   0.1923   0.0501     O
O       0.7356   0.8077   0.5501     O
C       0.7403   0.3758   0.8222     C
C       0.7403   0.6242   0.3222     C
C       0.7448   0.0384   0.3325     C
C       0.7448   0.9616   0.8325     C
C       0.7463   0.3547   0.8651     C
C       0.7463   0.6453   0.3651     C
H       0.7498   0.4768   0.6394     H
H       0.7498   0.5232   0.1394     H
H       0.7502   0.0232   0.3606     H
H       0.7502   0.9768   0.8606     H
C       0.7537   0.1453   0.1349     C
C       0.7537   0.8547   0.6349     C
C       0.7552   0.4616   0.6675     C
C       0.7552   0.5384   0.1675     C
C       0.7597   0.1242   0.1778     C
C       0.7597   0.8758   0.6778     C
O       0.7644   0.3077   0.9499     O
O       0.7644   0.6923   0.4499     O
C       0.7669   0.1208   0.7659     C
C       0.7669   0.8792   0.2659     C
C       0.7671   0.1042    0.272     C
C       0.7671   0.8958    0.772     C
C       0.7717    0.416    0.752     C
C       0.7717    0.584    0.252     C
H       0.7751    0.067   0.7129     H
H       0.7751    0.933   0.2129     H
H       0.7761   0.1657   0.8245     H
H       0.7761   0.8343   0.3245     H
C       0.7762    0.083   0.3146     C
C       0.7762    0.917   0.8146     C
C       0.7786   0.3931   0.7976     C
C       0.7786   0.6069   0.2976     C
H       0.7797   0.4237   0.1324     H
H       0.7797   0.5763   0.6324     H
H       0.7798   0.1574   0.1189     H
H       0.7798   0.8426   0.6189     H
C       0.7809   0.3544   0.2453     C
C       0.7809   0.6456   0.7453     C
H       0.7859   0.2826   0.2004     H
H       0.7859   0.7174   0.7004     H
H       0.7881    0.133   0.2594     H
H       0.7881    0.867   0.7594     H
C       0.7896   0.0783   0.7392     C
C       0.7896   0.9217   0.2392     C
H         0.79   0.1216   0.1899     H
H         0.79   0.8784   0.6899     H
C       0.7904   0.1369   0.8057     C
C       0.7904   0.8631   0.3057     C
C       0.7916   0.3516    0.884     C
C       0.7916   0.6484    0.384     C
H       0.7936   0.4118   0.2969     H
H       0.7936   0.5882   0.7969     H
C       0.7945   0.4835   0.6914     C
C       0.7945   0.5165   0.1914     C
C       0.7982   0.3323   0.9309     C
C       0.7982   0.6677   0.4309     C
C        0.802   0.4605   0.7329     C
C        0.802   0.5395   0.2329     C
C        0.803   0.3042    0.222     C
C        0.803   0.6958    0.722     C
H       0.8053    0.186   0.8825     H
H       0.8053    0.814   0.3825     H
C       0.8074   0.3806   0.2796     C
C       0.8074   0.6194   0.7796     C
C       0.8115   0.4242   0.1408     C
C       0.8115   0.5758   0.6408     C
H       0.8186   0.1963   0.3157     H
H       0.8186   0.8037   0.8157     H
C       0.8193   0.1051   0.3383     C
C       0.8193   0.8949   0.8383     C
C       0.8239   0.3869   0.8168     C
C       0.8239   0.6131   0.3168     C
C        0.828   0.4701   0.1717     C
C        0.828   0.5299   0.6717     C
H       0.8281   0.4751   0.7488     H
H       0.8281   0.5249   0.2488     H
C       0.8298   0.3669   0.8588     C
C       0.8298   0.6331   0.3588     C
H       0.8312   0.3515   0.1025     H
H       0.8312   0.6485   0.6025     H
C       0.8334   0.0511   0.7498     C
C       0.8334   0.9489   0.2498     C
C       0.8338   0.1112   0.8175     C
C       0.8338   0.8888   0.3175     C
H        0.834   0.0227   0.3705     H
H        0.834   0.9773   0.8705     H
C       0.8347   0.1686   0.8897     C
C       0.8347   0.8314   0.3897     C
C       0.8361   0.1674   0.3325     C
C       0.8361   0.8326   0.8325     C
O       0.8377   0.3424   0.9479     O
O       0.8377   0.6576   0.4479     O
H        0.839   0.0501   0.6648     H
H        0.839   0.9499   0.1648     H
H       0.8408   0.2117   0.9482     H
H       0.8408   0.7883   0.4482     H
C       0.8423   0.3804   0.1234     C
C       0.8423   0.6196   0.6234     C
C       0.8453   0.0639   0.3654     C
C       0.8453   0.9361   0.8654     C
C       0.8489   0.2868   0.2308     C
C       0.8489   0.7132   0.7308     C
H       0.8504   0.3966   0.8004     H
H       0.8504   0.6034   0.3004     H
C       0.8528   0.0128   0.6758     C
C       0.8528   0.9872   0.1758     C
C       0.8536   0.3619    0.289     C
C       0.8536   0.6381    0.789     C
C       0.8548   0.0028   0.7204     C
C       0.8548   0.0675   0.7895     C
C       0.8548   0.9325   0.2895     C
C       0.8548   0.9972   0.2204     C
C       0.8561    0.184   0.9293     C
C       0.8561    0.816   0.4293     C
C       0.8565   0.1277   0.8605     C
C       0.8565   0.8723   0.3605     C
H       0.8602   0.3636   0.8707     H
H       0.8602   0.6364   0.3707     H
H       0.8629   0.2554   0.2137     H
H       0.8629   0.7446   0.7137     H
H       0.8698   0.0245   0.1175     H
H       0.8698   0.9755   0.6175     H
H       0.8703   0.3811   0.3118     H
H       0.8703   0.6189   0.8118     H
C       0.8711   0.0321   0.1473     C
C       0.8711   0.9679   0.6473     C
C       0.8749   0.3144   0.2641     C
C       0.8749   0.6856   0.7641     C
C       0.8751   0.0527   0.2357     C
C       0.8751   0.9473   0.7357     C
C       0.8753   0.4672   0.1845     C
C       0.8753   0.5328   0.6845     C
Ca      0.8761   0.3285   0.0137    Ca
Ca      0.8761   0.6715   0.5137    Ca
H       0.8771   0.0598   0.2656     H
H       0.8771   0.9402   0.7656     H
C       0.8787   0.1868   0.3514     C
C       0.8787   0.8132   0.8514     C
H       0.8836   0.0489   0.7974     H
H       0.8836   0.9511   0.2974     H
H       0.8869   0.4959   0.2053     H
H       0.8869   0.5041   0.7053     H
C       0.8877   0.0833    0.385     C
C       0.8877   0.9167    0.885     C
C       0.8893   0.3785   0.1363     C
C       0.8893   0.6215   0.6363     C
H       0.8898   0.2282   0.3467     H
H       0.8898   0.7718   0.8467     H
C       0.8912   0.0878   0.1631     C
C       0.8912   0.9122   0.6631     C
C       0.8927   0.0984   0.2075     C
C       0.8927   0.9016   0.7075     C
C       0.8989   0.1594   0.9413     C
C       0.8989   0.8406   0.4413     C
C       0.8995   0.1026   0.8734     C
C       0.8995   0.8974   0.3734     C
H       0.9044   0.0552    0.403     H
H       0.9044   0.9448    0.903     H
C       0.9049   0.1445   0.3775     C
C       0.9049   0.8555   0.8775     C
C       0.9055   0.4223   0.1669     C
C       0.9055   0.5777   0.6669     C
H       0.9056   0.1363   0.2184     H
H       0.9056   0.8637   0.7184     H
O       0.9058   0.2242   0.0052     O
O       0.9058   0.7758   0.5052     O
O       0.9109    0.122    0.092     O
O       0.9109    0.878    0.592     O
C       0.9115   0.1347   0.1319     C
C       0.9115   0.8653   0.6319     C
O       0.9125   0.3048   0.0814     O
O       0.9125   0.6952   0.5814     O
H        0.915   0.0751   0.8546     H
H        0.915   0.9249   0.3546     H
C       0.9206   0.1168   0.9136     C
C       0.9206   0.8832   0.4136     C
C       0.9218   0.1768   0.9844     C
C       0.9218   0.8232   0.4844     C
C       0.9233   0.3306   0.1179     C
C       0.9233   0.6694   0.6179     C
C       0.9253   0.2958   0.2741     C
C       0.9253   0.7042   0.7741     C
O       0.9296   0.1864   0.1464     O
O       0.9296   0.8136   0.6464     O
H       0.9372   0.4217   0.1757     H
H       0.9372   0.5783   0.6757     H
H       0.9413   0.2824   0.9255     H
H       0.9413   0.7176   0.4255     H
O       0.9443    0.314   0.3091     O
O       0.9443    0.686   0.8091     O
O       0.9456   0.2612   0.2475     O
O       0.9456   0.7388   0.7475     O
O        0.948   0.3635   0.9854     O
O        0.948   0.6365   0.4854     O
H       0.9487   0.2356   0.8596     H
H       0.9487   0.7644   0.3596     H
H       0.9491   0.0977   0.9217     H
H       0.9491   0.9023   0.4217     H
C       0.9518   0.1651    0.396     C
C       0.9518   0.8349    0.896     C
C       0.9548   0.3057   0.9031     C
C       0.9548   0.6943   0.4031     C
O       0.9568    0.146   0.9984     O
O       0.9568    0.854   0.4984     O
N       0.9572   0.0697   0.5805     N
N       0.9572   0.9303   0.0805     N
Ca      0.9594   0.2088   0.0692    Ca
Ca      0.9594   0.7912   0.5692    Ca
C       0.9598   0.3967   0.9536     C
C       0.9598   0.6033   0.4536     C
C       0.9606   0.2769   0.8633     C
C       0.9606   0.7231   0.3633     C
O       0.9607   0.3192   0.1381     O
O       0.9607   0.6808   0.6381     O
O       0.9666   0.4552   0.9566     O
O       0.9666   0.5448   0.4566     O
C       0.9677   0.3655   0.9103     C
C       0.9677   0.6345   0.4103     C
O       0.9699   0.1349   0.4272     O
O       0.9699   0.8651   0.9272     O
Ca       0.971   0.0844   0.4967    Ca
Ca       0.971   0.9156   0.9967    Ca
O       0.9714   0.2135   0.3802     O
O       0.9714   0.7865   0.8802     O
C       0.9787   0.0075   0.5849     C
C       0.9787   0.9925   0.0849     C
C       0.9816   0.3035   0.8303     C
C       0.9816   0.6965   0.3303     C
H       0.9835   0.1791   0.8126     H
H       0.9835   0.8209   0.3126     H
H       0.9874   0.3834   0.6851     H
H       0.9874   0.6166   0.1851     H
C       0.9887    0.394   0.8782     C
C       0.9887    0.606   0.3782     C
Ca      0.9902    0.238   0.1872    Ca
Ca      0.9902    0.762   0.6872    Ca
C       0.9905   0.2015   0.7873     C
C       0.9905   0.7985   0.2873     C
C       0.9909   0.2697   0.7884     C
C       0.9909   0.7303   0.2884     C
O       0.9923   0.0038   0.0459     O
O       0.9923   0.9962   0.5459     O
H       0.9927   0.0825   0.6853     H
H       0.9927   0.9175   0.1853     H
H        0.993   0.0258   0.1853     H
H        0.993   0.9742   0.6853     H
O       0.9938   0.1377   0.2858     O
O       0.9938   0.8623   0.7858     O
C       0.9957    0.061   0.7117     C
C       0.9957    0.939   0.2117     C
C       0.9958    0.004   0.2116     C
C       0.9958    0.996   0.7116     C
C       0.9966   0.3621   0.8368     C
C       0.9966   0.6379   0.3368     C
H       0.9989   0.4361   0.8818     H
H       0.9989   0.5639   0.3818     H
