data_I
_chemical_name_common  '/home/zhangsd/repos/MofS-CGCNN/ML/data/TSD/clean_cifs/KAKCAD_clean'
_cell_length_a 18.21970
_cell_length_b 31.59780
_cell_length_c 29.86200
_cell_angle_alpha 90.00000
_cell_angle_beta  101.31100
_cell_angle_gamma 90.00000
_space_group_name_H-M_alt      'P 1'


loop_
_space_group_symop_operation_xyz
  'x, y, z' 

loop_
_atom_site_label
_atom_site_fract_x
_atom_site_fract_y
_atom_site_fract_z
_atom_site_type_symbol
C       0.0009   0.3379   0.1377     C
C       0.0009   0.6621   0.6377     C
H       0.0052   0.3647   0.1255     H
H       0.0052   0.6353   0.6255     H
H       0.0058   0.1791   0.4061     H
H       0.0058   0.8209   0.9061     H
O       0.0143  0.06876   0.4644     O
O       0.0143  0.93124   0.9644     O
C       0.0144   0.2597   0.3299     C
C       0.0144   0.7403   0.8299     C
H       0.0192   0.2329    0.318     H
H       0.0192   0.7671    0.818     H
C       0.0213    0.103   0.4447     C
C       0.0213    0.897   0.9447     C
C       0.0234   0.3189    0.591     C
C       0.0234   0.6811    0.091     C
C        0.034   0.2512   0.9613     C
C        0.034   0.7488   0.4613     C
C       0.0361   0.2885   0.1945     C
C       0.0361   0.7115   0.6945     C
C       0.0363   0.1731   0.0817     C
C       0.0363   0.8269   0.5817     C
C       0.0366   0.2657   0.5363     C
C       0.0366   0.7343   0.0363     C
H       0.0384   0.0203   0.9919     H
H       0.0384   0.9797   0.4919     H
C       0.0417  0.13518   0.0613     C
C       0.0417  0.86482   0.5613     C
H       0.0422   0.3419   0.6091     H
H       0.0422   0.6581   0.1091     H
C       0.0446   0.3277   0.1791     C
C       0.0446   0.6723   0.6791     C
C       0.0475   0.3046   0.9089     C
C       0.0475   0.6954   0.4089     C
C       0.0499   0.3092   0.3865     C
C       0.0499   0.6908   0.8865     C
H       0.0527   0.2276   0.9786     H
H       0.0527   0.7724   0.4786     H
C        0.056   0.2704   0.3703     C
C        0.056   0.7296   0.8703     C
H       0.0635   0.2531   0.5164     H
H       0.0635   0.7469   0.0164     H
H       0.0648   0.2802   0.2224     H
H       0.0648   0.7198   0.7224     H
H        0.067   0.0157   0.9523     H
H        0.067   0.9843   0.4523     H
C       0.0674   0.2992   0.5641     C
C       0.0674   0.7008   0.0641     C
O       0.0694  0.03006  0.97667     O
O       0.0694  0.96994  0.47667     O
H       0.0756   0.0053   0.8659     H
H       0.0756   0.9947   0.3659     H
H       0.0762   0.3185    0.891     H
H       0.0762   0.6815    0.391     H
C       0.0779  0.27009   0.9346     C
C       0.0779  0.72991   0.4346     C
O       0.0796  0.11239  0.42981     O
O       0.0796  0.88761  0.92981     O
H       0.0798   0.3172   0.4142     H
H       0.0798   0.6828   0.9142     H
H       0.0874   0.2291   0.0981     H
H       0.0874   0.7709   0.5981     H
C       0.0925   0.2031   0.0845     C
C       0.0925   0.7969   0.5845     C
O       0.0935  0.00509  0.39206     O
O       0.0935  0.99491  0.89206     O
C       0.0952   0.3601   0.2068     C
C       0.0952   0.6399   0.7068     C
H       0.0985   0.4037   0.9866     H
H       0.0985   0.5963   0.4866     H
C       0.1053    0.126   0.0443     C
C       0.1053    0.874   0.5443     C
H       0.1066   0.3989   0.1557     H
H       0.1066   0.6011   0.6557     H
H       0.1082    0.329   0.2671     H
H       0.1082    0.671   0.7671     H
H         0.11      0.1   0.0307     H
H         0.11      0.9   0.5307     H
C       0.1127   0.2387   0.3966     C
C       0.1127   0.7613   0.8966     C
O       0.1143  0.48255   0.9825     O
O       0.1143  0.51745   0.4825     O
C       0.1211    0.395   0.1871     C
C       0.1211    0.605   0.6871     C
C       0.1222   0.3534   0.2535     C
C       0.1222   0.6466   0.7535     C
O       0.1235   0.2058   0.3756     O
O       0.1235   0.7942   0.8756     O
H       0.1244   0.3354   0.0098     H
H       0.1244   0.6646   0.5098     H
H       0.1398   0.1934   0.9475     H
H       0.1398   0.8066   0.4475     H
H       0.1403   0.0089   0.3946     H
H       0.1403   0.9911   0.8946     H
O       0.1431   0.2465   0.4357     O
O       0.1431   0.7535   0.9357     O
C       0.1444   0.3151   0.5638     C
C       0.1444   0.6849   0.0638     C
C       0.1451   0.3971   0.0043     C
C       0.1451   0.6029   0.5043     C
H       0.1473   0.2784   0.0588     H
H       0.1473   0.7216   0.5588     H
Sr     0.14857  0.03944  0.46988    Sr
Sr     0.14857  0.96056  0.96988    Sr
C       0.1545   0.2557   0.9353     C
C       0.1545   0.7443   0.4353     C
C       0.1562  0.19453   0.0674     C
C       0.1562  0.80547   0.5674     C
C       0.1608   0.3561   0.0181     C
C       0.1608   0.6439   0.5181     C
C       0.1616   0.1557   0.0477     C
C       0.1616   0.8443   0.5477     C
O       0.1617  0.35192   0.5762     O
O       0.1617  0.64808   0.0762     O
C       0.1682   0.4246   0.2127     C
C       0.1682   0.5754   0.7127     C
C       0.1692   0.3823   0.2799     C
C       0.1692   0.6177   0.7799     C
H       0.1728   0.1286   0.9257     H
H       0.1728   0.8714   0.4257     H
C       0.1756   0.2132   0.9432     C
C       0.1756   0.7868   0.4432     C
C       0.1789    0.474   0.0006     C
C       0.1789    0.526   0.5006     C
H       0.1819   0.4365   0.3477     H
H       0.1819   0.5635   0.8477     H
O        0.191  0.29001  0.55255     O
O        0.191  0.70999  0.05255     O
C       0.1919   0.4175   0.2582     C
C       0.1919   0.5825   0.7582     C
H       0.1925   0.4371   0.1295     H
H       0.1925   0.5629   0.6295     H
C       0.1932   0.4632   0.1906     C
C       0.1932   0.5368   0.6906     C
C       0.1945   0.3762   0.3297     C
C       0.1945   0.6238   0.8297     C
Sr     0.19618  0.14982   0.4221    Sr
Sr     0.19618  0.85018   0.9221    Sr
C       0.1965   0.2698   0.0602     C
C       0.1965   0.7302   0.5602     C
H       0.1971   0.3129   0.9244     H
C       0.1971   0.4099   0.3592     C
C       0.1971   0.5901   0.8592     C
H       0.1971   0.6871   0.4244     H
C       0.1975  0.42881   0.0163     C
C       0.1975  0.57119   0.5163     C
H       0.1979   0.4977   0.7433     H
H       0.1979   0.5023   0.2433     H
H       0.2001     0.06   0.9486     H
H       0.2001     0.94   0.4486     H
C       0.2028    0.462   0.1462     C
C       0.2028    0.538   0.6462     C
H       0.2043   0.1492   0.0364     H
H       0.2043   0.8508   0.5364     H
O       0.2074   0.1043  0.35009     O
C       0.2074   0.4996   0.7139     C
C       0.2074   0.5004   0.2139     C
O       0.2074   0.8957  0.85009     O
O       0.2088  0.17596  0.51029     O
O       0.2088  0.82404  0.01029     O
C       0.2102   0.2847     0.93     C
C       0.2102   0.7153     0.43     C
H       0.2149   0.3136   0.3278     H
H       0.2149   0.6864   0.8278     H
C       0.2157  0.22725   0.0672     C
C       0.2157  0.77275   0.5672     C
C       0.2169   0.3367   0.3473     C
C       0.2169   0.6633   0.8473     C
C       0.2193   0.1225   0.9437     C
C       0.2193   0.8775   0.4437     C
C       0.2223   0.4049   0.4059     C
C       0.2223   0.5951   0.9059     C
H       0.2226   0.4279   0.4254     H
H       0.2226   0.5721   0.9254     H
H       0.2243   0.4369   0.2753     H
H       0.2243   0.5631   0.7753     H
O       0.2257  0.10772  0.50125     O
O       0.2257  0.89228  0.00125     O
C       0.2271  0.13944   0.5273     C
C       0.2271  0.86056   0.0273     C
C       0.2275  0.49719   0.1257     C
C       0.2275  0.50281   0.6257     C
C       0.2276  0.07187   0.3729     C
C       0.2276  0.92813   0.8729     C
O       0.2279  0.06952  0.41478     O
O       0.2279  0.93048  0.91478     O
C       0.2297   0.3449   0.0442     C
C       0.2297   0.6551   0.5442     C
O       0.2314  0.49926  0.50826     O
O       0.2314  0.50074  0.00826     O
H       0.2325   0.4958   0.0954     H
H       0.2325   0.5042   0.5954     H
C       0.2355  0.08115   0.9575     C
C       0.2355  0.91885   0.4575     C
C       0.2361   0.4641   0.6945     C
C       0.2361   0.5359   0.1945     C
C       0.2426   0.3314   0.3942     C
C       0.2426   0.6686   0.8942     C
H       0.2431   0.1954   0.5944     H
H       0.2431   0.8046   0.0944     H
C       0.2444   0.4664   0.6496     C
C       0.2444   0.5336   0.1496     C
C        0.247  0.36542   0.4239     C
C        0.247  0.63458   0.9239     C
C       0.2488  0.20023   0.9449     C
C       0.2488  0.79977   0.4449     C
H       0.2492   0.4397   0.7116     H
H       0.2492   0.5603   0.2116     H
Sr        0.25     0.25      0.5    Sr
Sr        0.25     0.75      0.0    Sr
H       0.2508   0.0603   0.2884     H
H       0.2508   0.9397   0.7884     H
C       0.2512  0.29977   0.0551     C
C       0.2512  0.70023   0.5551     C
C        0.253  0.13458   0.5761     C
C        0.253  0.86542   0.0761     C
C       0.2556   0.0336   0.3504     C
C       0.2556   0.9664   0.8504     C
H       0.2569   0.3046   0.4056     H
H       0.2569   0.6954   0.9056     H
C       0.2574   0.1686   0.6058     C
C       0.2574   0.8314   0.1058     C
C       0.2639   0.0359   0.3055     C
C       0.2639   0.9641   0.8055     C
C       0.2645  0.41885   0.0425     C
C       0.2645  0.58115   0.5425     C
H       0.2675   0.0042   0.9046     H
H       0.2675   0.9958   0.4046     H
O       0.2686  0.00074  0.49174     O
O       0.2686  0.99926  0.99174     O
C       0.2703   0.1551   0.9558     C
C       0.2703   0.8449   0.4558     C
O       0.2721  0.43048  0.58522     O
O       0.2721  0.56952  0.08522     O
C       0.2724  0.42813   0.6271     C
C       0.2724  0.57187   0.1271     C
C       0.2725  0.00281   0.8743     C
C       0.2725  0.99719   0.3743     C
C       0.2729  0.36056   0.4727     C
C       0.2729  0.63944   0.9727     C
O       0.2743  0.39228  0.49875     O
O       0.2743  0.60772  0.99875     O
H       0.2757   0.0631   0.7247     H
H       0.2757   0.9369   0.2247     H
H       0.2774   0.0721   0.5746     H
H       0.2774   0.9279   0.0746     H
C       0.2777   0.0951   0.5941     C
C       0.2777   0.9049   0.0941     C
C       0.2807   0.3775   0.0563     C
C       0.2807   0.6225   0.5563     C
C       0.2831   0.1633   0.6527     C
C       0.2831   0.8367   0.1527     C
C       0.2843  0.27275   0.9328     C
C       0.2843  0.72725   0.4328     C
H       0.2851   0.1864   0.6722     H
H       0.2851   0.8136   0.1722     H
C       0.2898   0.2153     0.07     C
C       0.2898   0.7847     0.57     C
O       0.2912  0.32404  0.48971     O
O       0.2912  0.67596  0.98971     O
C       0.2926   0.0004   0.2861     C
O       0.2926   0.3957  0.64991     O
O       0.2926   0.6043  0.14991     O
C       0.2926   0.9996   0.7861     C
H       0.2957   0.3508   0.9636     H
H       0.2957   0.6492   0.4636     H
C       0.2972    0.038   0.8538     C
C       0.2972    0.962   0.3538     C
H       0.2999     0.44   0.0514     H
H       0.2999     0.56   0.5514     H
H       0.3021   0.0023   0.2567     H
H       0.3021   0.9977   0.7567     H
C       0.3025  0.07119   0.9837     C
C       0.3025  0.92881   0.4837     C
C       0.3029   0.0901   0.6408     C
H       0.3029   0.1871   0.0756     H
H       0.3029   0.8129   0.5756     H
C       0.3029   0.9099   0.1408     C
C       0.3035   0.2302   0.9398     C
C       0.3035   0.7698   0.4398     C
Sr     0.30382  0.35018   0.5779    Sr
Sr     0.30382  0.64982   0.0779    Sr
C       0.3055   0.1238   0.6703     C
C       0.3055   0.8762   0.1703     C
C       0.3068   0.0368   0.8094     C
C       0.3068   0.9632   0.3094     C
H       0.3075   0.0629   0.8705     H
H       0.3075   0.9371   0.3705     H
C       0.3081   0.0825   0.7418     C
C       0.3081   0.9175   0.2418     C
O        0.309  0.20999  0.44745     O
O        0.309  0.79001  0.94745     O
H       0.3181   0.0635   0.6523     H
H       0.3181   0.9365   0.1523     H
C       0.3211    0.026   0.9994     C
C       0.3211    0.974   0.4994     C
C       0.3244   0.2868   0.0568     C
C       0.3244   0.7132   0.5568     C
H       0.3272   0.3714   0.0743     H
H       0.3272   0.6286   0.5743     H
C       0.3308   0.1177   0.7201     C
C       0.3308   0.8823   0.2201     C
C       0.3318   0.0754   0.7873     C
C       0.3318   0.9246   0.2873     C
O       0.3383  0.14808   0.4238     O
O       0.3383  0.85192   0.9238     O
C       0.3384   0.3443   0.9523     C
C       0.3384   0.6557   0.4523     C
C       0.3392   0.1439   0.9819     C
C       0.3392   0.8561   0.4819     C
C       0.3438  0.30547   0.9326     C
C       0.3438  0.69453   0.4326     C
C       0.3455   0.2443   0.0647     C
C       0.3455   0.7557   0.5647     C
Sr     0.35143  0.46056  0.53012    Sr
Sr     0.35143  0.53944  0.03012    Sr
H       0.3527   0.2216   0.9412     H
H       0.3527   0.7784   0.4412     H
C       0.3549   0.1029   0.9957     C
C       0.3549   0.8971   0.4957     C
C       0.3556   0.1849   0.4362     C
C       0.3556   0.8151   0.9362     C
O       0.3569   0.2535   0.5643     O
O       0.3569   0.7465   0.0643     O
H       0.3597   0.4911   0.6054     H
H       0.3597   0.5089   0.1054     H
H       0.3602   0.3066   0.0525     H
H       0.3602   0.6934   0.5525     H
H       0.3756   0.1646   0.9902     H
H       0.3756   0.8354   0.4902     H
O       0.3765   0.2942   0.6244     O
O       0.3765   0.7058   0.1244     O
C       0.3778   0.1466   0.7465     C
C       0.3778   0.8534   0.2465     C
C       0.3789    0.105   0.8129     C
C       0.3789    0.895   0.3129     C
O       0.3857  0.01745   0.0175     O
O       0.3857  0.98255   0.5175     O
C       0.3873   0.2613   0.6034     C
C       0.3873   0.7387   0.1034     C
H         0.39      0.4   0.9693     H
H         0.39      0.6   0.4693     H
H       0.3918    0.171   0.7329     H
H       0.3918    0.829   0.2329     H
H       0.3934   0.1011   0.8443     H
H       0.3934   0.8989   0.3443     H
C       0.3947    0.374   0.9557     C
C       0.3947    0.626   0.4557     C
H       0.4015   0.0963   0.0134     H
H       0.4015   0.9037   0.5134     H
C       0.4048   0.1399   0.7932     C
C       0.4048   0.8601   0.2932     C
O       0.4065  0.49491  0.60794     O
O       0.4065  0.50509  0.10794     O
C       0.4075   0.2969   0.9155     C
C       0.4075   0.7031   0.4155     C
H       0.4126   0.2709   0.9019     H
H       0.4126   0.7291   0.4019     H
H       0.4202   0.1828   0.5858     H
H       0.4202   0.8172   0.0858     H
O       0.4204  0.38761  0.57019     O
O       0.4204  0.61239  0.07019     O
C       0.4221  0.22991   0.0654     C
C       0.4221  0.77009   0.5654     C
H       0.4238   0.1815    0.109     H
H       0.4238   0.8185    0.609     H
H       0.4244   0.4947   0.1341     H
H       0.4244   0.5053   0.6341     H
O       0.4306  0.46994  0.02333     O
O       0.4306  0.53006  0.52333     O
C       0.4326   0.2008   0.4359     C
C       0.4326   0.7992   0.9359     C
H        0.433   0.4843   0.0477     H
H        0.433   0.5157   0.5477     H
H       0.4352   0.2198   0.7776     H
H       0.4352   0.7802   0.2776     H
H       0.4365   0.2469   0.4836     H
H       0.4365   0.7531   0.9836     H
C        0.444   0.2296   0.6297     C
C        0.444   0.7704   0.1297     C
H       0.4473   0.2724   0.0214     H
H       0.4473   0.7276   0.5214     H
C       0.4501   0.1908   0.6135     C
C       0.4501   0.8092   0.1135     C
C       0.4525   0.1954   0.0911     C
C       0.4525   0.8046   0.5911     C
C       0.4554   0.1723   0.8209     C
C       0.4554   0.8277   0.3209     C
H       0.4578   0.1581   0.3909     H
H       0.4578   0.8419   0.8909     H
C       0.4583  0.36482   0.9387     C
C       0.4583  0.63518   0.4387     C
H       0.4616   0.4797   0.0081     H
H       0.4616   0.5203   0.5081     H
C       0.4634   0.2343   0.4637     C
C       0.4634   0.7657   0.9637     C
C       0.4637   0.3269   0.9183     C
C       0.4637   0.6731   0.4183     C
C       0.4639   0.2115   0.8055     C
C       0.4639   0.7885   0.3055     C
C        0.466   0.2488   0.0387     C
C        0.466   0.7512   0.5387     C
C       0.4766   0.1811    0.409     C
C       0.4766   0.8189    0.909     C
C       0.4787    0.397   0.5553     C
C       0.4787    0.603   0.0553     C
H       0.4808   0.2671    0.682     H
H       0.4808   0.7329    0.182     H
C       0.4856   0.2403   0.6701     C
C       0.4856   0.7597   0.1701     C
O       0.4857  0.43124   0.5356     O
O       0.4857  0.56876   0.0356     O
H       0.4942   0.3209   0.5939     H
H       0.4942   0.6791   0.0939     H
H       0.4948   0.1353   0.8745     H
H       0.4948   0.8647   0.3745     H
C       0.4991   0.1621   0.8623     C
C       0.4991   0.8379   0.3623     C
C       0.5009   0.1621   0.6377     C
C       0.5009   0.8379   0.1377     C
H       0.5052   0.1353   0.6255     H
H       0.5052   0.8647   0.1255     H
H       0.5058   0.3209   0.9061     H
H       0.5058   0.6791   0.4061     H
O       0.5143  0.43124   0.9644     O
O       0.5143  0.56876   0.4644     O
C       0.5144   0.2403   0.8299     C
C       0.5144   0.7597   0.3299     C
H       0.5192   0.2671    0.818     H
H       0.5192   0.7329    0.318     H
C       0.5213    0.397   0.9447     C
C       0.5213    0.603   0.4447     C
C       0.5234   0.1811    0.091     C
C       0.5234   0.8189    0.591     C
C        0.534   0.2488   0.4613     C
C        0.534   0.7512   0.9613     C
C       0.5361   0.2115   0.6945     C
C       0.5361   0.7885   0.1945     C
C       0.5363   0.3269   0.5817     C
C       0.5363   0.6731   0.0817     C
C       0.5366   0.2343   0.0363     C
C       0.5366   0.7657   0.5363     C
H       0.5384   0.4797   0.4919     H
H       0.5384   0.5203   0.9919     H
C       0.5417  0.36482   0.5613     C
C       0.5417  0.63518   0.0613     C
H       0.5422   0.1581   0.1091     H
H       0.5422   0.8419   0.6091     H
C       0.5446   0.1723   0.6791     C
C       0.5446   0.8277   0.1791     C
C       0.5475   0.1954   0.4089     C
C       0.5475   0.8046   0.9089     C
C       0.5499   0.1908   0.8865     C
C       0.5499   0.8092   0.3865     C
H       0.5527   0.2724   0.4786     H
H       0.5527   0.7276   0.9786     H
C        0.556   0.2296   0.8703     C
C        0.556   0.7704   0.3703     C
H       0.5635   0.2469   0.0164     H
H       0.5635   0.7531   0.5164     H
H       0.5648   0.2198   0.7224     H
H       0.5648   0.7802   0.2224     H
H        0.567   0.4843   0.4523     H
H        0.567   0.5157   0.9523     H
C       0.5674   0.2008   0.0641     C
C       0.5674   0.7992   0.5641     C
O       0.5694  0.46994  0.47667     O
O       0.5694  0.53006  0.97667     O
H       0.5756   0.4947   0.3659     H
H       0.5756   0.5053   0.8659     H
H       0.5762   0.1815    0.391     H
H       0.5762   0.8185    0.891     H
C       0.5779  0.22991   0.4346     C
C       0.5779  0.77009   0.9346     C
O       0.5796  0.38761  0.92981     O
O       0.5796  0.61239  0.42981     O
H       0.5798   0.1828   0.9142     H
H       0.5798   0.8172   0.4142     H
H       0.5874   0.2709   0.5981     H
H       0.5874   0.7291   0.0981     H
C       0.5925   0.2969   0.5845     C
C       0.5925   0.7031   0.0845     C
O       0.5935  0.49491  0.89206     O
O       0.5935  0.50509  0.39206     O
C       0.5952   0.1399   0.7068     C
C       0.5952   0.8601   0.2068     C
H       0.5985   0.0963   0.4866     H
H       0.5985   0.9037   0.9866     H
C       0.6053    0.374   0.5443     C
C       0.6053    0.626   0.0443     C
H       0.6066   0.1011   0.6557     H
H       0.6066   0.8989   0.1557     H
H       0.6082    0.171   0.7671     H
H       0.6082    0.829   0.2671     H
H         0.61      0.4   0.5307     H
H         0.61      0.6   0.0307     H
C       0.6127   0.2613   0.8966     C
C       0.6127   0.7387   0.3966     C
O       0.6143  0.01745   0.4825     O
O       0.6143  0.98255   0.9825     O
C       0.6211    0.105   0.6871     C
C       0.6211    0.895   0.1871     C
C       0.6222   0.1466   0.7535     C
C       0.6222   0.8534   0.2535     C
O       0.6235   0.2942   0.8756     O
O       0.6235   0.7058   0.3756     O
H       0.6244   0.1646   0.5098     H
H       0.6244   0.8354   0.0098     H
H       0.6398   0.3066   0.4475     H
H       0.6398   0.6934   0.9475     H
H       0.6403   0.4911   0.8946     H
H       0.6403   0.5089   0.3946     H
O       0.6431   0.2535   0.9357     O
O       0.6431   0.7465   0.4357     O
C       0.6444   0.1849   0.0638     C
C       0.6444   0.8151   0.5638     C
C       0.6451   0.1029   0.5043     C
C       0.6451   0.8971   0.0043     C
H       0.6473   0.2216   0.5588     H
H       0.6473   0.7784   0.0588     H
Sr     0.64857  0.46056  0.96988    Sr
Sr     0.64857  0.53944  0.46988    Sr
C       0.6545   0.2443   0.4353     C
C       0.6545   0.7557   0.9353     C
C       0.6562  0.30547   0.5674     C
C       0.6562  0.69453   0.0674     C
C       0.6608   0.1439   0.5181     C
C       0.6608   0.8561   0.0181     C
C       0.6616   0.3443   0.5477     C
C       0.6616   0.6557   0.0477     C
O       0.6617  0.14808   0.0762     O
O       0.6617  0.85192   0.5762     O
C       0.6682   0.0754   0.7127     C
C       0.6682   0.9246   0.2127     C
C       0.6692   0.1177   0.7799     C
C       0.6692   0.8823   0.2799     C
H       0.6728   0.3714   0.4257     H
H       0.6728   0.6286   0.9257     H
C       0.6756   0.2868   0.4432     C
C       0.6756   0.7132   0.9432     C
C       0.6789    0.026   0.5006     C
C       0.6789    0.974   0.0006     C
H       0.6819   0.0635   0.8477     H
H       0.6819   0.9365   0.3477     H
O        0.691  0.20999  0.05255     O
O        0.691  0.79001  0.55255     O
C       0.6919   0.0825   0.7582     C
C       0.6919   0.9175   0.2582     C
H       0.6925   0.0629   0.6295     H
H       0.6925   0.9371   0.1295     H
C       0.6932   0.0368   0.6906     C
C       0.6932   0.9632   0.1906     C
C       0.6945   0.1238   0.8297     C
C       0.6945   0.8762   0.3297     C
Sr     0.69618  0.35018   0.9221    Sr
Sr     0.69618  0.64982   0.4221    Sr
C       0.6965   0.2302   0.5602     C
C       0.6965   0.7698   0.0602     C
C       0.6971   0.0901   0.8592     C
H       0.6971   0.1871   0.4244     H
H       0.6971   0.8129   0.9244     H
C       0.6971   0.9099   0.3592     C
C       0.6975  0.07119   0.5163     C
C       0.6975  0.92881   0.0163     C
H       0.6979   0.0023   0.2433     H
H       0.6979   0.9977   0.7433     H
H       0.7001     0.44   0.4486     H
H       0.7001     0.56   0.9486     H
C       0.7028    0.038   0.6462     C
C       0.7028    0.962   0.1462     C
H       0.7043   0.3508   0.5364     H
H       0.7043   0.6492   0.0364     H
C       0.7074   0.0004   0.2139     C
O       0.7074   0.3957  0.85009     O
O       0.7074   0.6043  0.35009     O
C       0.7074   0.9996   0.7139     C
O       0.7088  0.32404  0.01029     O
O       0.7088  0.67596  0.51029     O
C       0.7102   0.2153     0.43     C
C       0.7102   0.7847     0.93     C
H       0.7149   0.1864   0.8278     H
H       0.7149   0.8136   0.3278     H
C       0.7157  0.27275   0.5672     C
C       0.7157  0.72725   0.0672     C
C       0.7169   0.1633   0.8473     C
C       0.7169   0.8367   0.3473     C
C       0.7193   0.3775   0.4437     C
C       0.7193   0.6225   0.9437     C
C       0.7223   0.0951   0.9059     C
C       0.7223   0.9049   0.4059     C
H       0.7226   0.0721   0.9254     H
H       0.7226   0.9279   0.4254     H
H       0.7243   0.0631   0.7753     H
H       0.7243   0.9369   0.2753     H
O       0.7257  0.39228  0.00125     O
O       0.7257  0.60772  0.50125     O
C       0.7271  0.36056   0.0273     C
C       0.7271  0.63944   0.5273     C
C       0.7275  0.00281   0.6257     C
C       0.7275  0.99719   0.1257     C
C       0.7276  0.42813   0.8729     C
C       0.7276  0.57187   0.3729     C
O       0.7279  0.43048  0.91478     O
O       0.7279  0.56952  0.41478     O
C       0.7297   0.1551   0.5442     C
C       0.7297   0.8449   0.0442     C
O       0.7314  0.00074  0.00826     O
O       0.7314  0.99926  0.50826     O
H       0.7325   0.0042   0.5954     H
H       0.7325   0.9958   0.0954     H
C       0.7355  0.41885   0.4575     C
C       0.7355  0.58115   0.9575     C
C       0.7361   0.0359   0.1945     C
C       0.7361   0.9641   0.6945     C
C       0.7426   0.1686   0.8942     C
C       0.7426   0.8314   0.3942     C
H       0.7431   0.3046   0.0944     H
H       0.7431   0.6954   0.5944     H
C       0.7444   0.0336   0.1496     C
C       0.7444   0.9664   0.6496     C
C        0.747  0.13458   0.9239     C
C        0.747  0.86542   0.4239     C
C       0.7488  0.29977   0.4449     C
C       0.7488  0.70023   0.9449     C
H       0.7492   0.0603   0.2116     H
H       0.7492   0.9397   0.7116     H
Sr        0.75     0.25      0.0    Sr
Sr        0.75     0.75      0.5    Sr
H       0.7508   0.4397   0.7884     H
H       0.7508   0.5603   0.2884     H
C       0.7512  0.20023   0.5551     C
C       0.7512  0.79977   0.0551     C
C        0.753  0.36542   0.0761     C
C        0.753  0.63458   0.5761     C
C       0.7556   0.4664   0.8504     C
C       0.7556   0.5336   0.3504     C
H       0.7569   0.1954   0.9056     H
H       0.7569   0.8046   0.4056     H
C       0.7574   0.3314   0.1058     C
C       0.7574   0.6686   0.6058     C
C       0.7639   0.4641   0.8055     C
C       0.7639   0.5359   0.3055     C
C       0.7645  0.08115   0.5425     C
C       0.7645  0.91885   0.0425     C
H       0.7675   0.4958   0.4046     H
H       0.7675   0.5042   0.9046     H
O       0.7686  0.49926  0.99174     O
O       0.7686  0.50074  0.49174     O
C       0.7703   0.3449   0.4558     C
C       0.7703   0.6551   0.9558     C
O       0.7721  0.06952  0.08522     O
O       0.7721  0.93048  0.58522     O
C       0.7724  0.07187   0.1271     C
C       0.7724  0.92813   0.6271     C
C       0.7725  0.49719   0.3743     C
C       0.7725  0.50281   0.8743     C
C       0.7729  0.13944   0.9727     C
C       0.7729  0.86056   0.4727     C
O       0.7743  0.10772  0.99875     O
O       0.7743  0.89228  0.49875     O
H       0.7757   0.4369   0.2247     H
H       0.7757   0.5631   0.7247     H
H       0.7774   0.4279   0.0746     H
H       0.7774   0.5721   0.5746     H
C       0.7777   0.4049   0.0941     C
C       0.7777   0.5951   0.5941     C
C       0.7807   0.1225   0.5563     C
C       0.7807   0.8775   0.0563     C
C       0.7831   0.3367   0.1527     C
C       0.7831   0.6633   0.6527     C
C       0.7843  0.22725   0.4328     C
C       0.7843  0.77275   0.9328     C
H       0.7851   0.3136   0.1722     H
H       0.7851   0.6864   0.6722     H
C       0.7898   0.2847     0.57     C
C       0.7898   0.7153     0.07     C
O       0.7912  0.17596  0.98971     O
O       0.7912  0.82404  0.48971     O
O       0.7926   0.1043  0.14991     O
C       0.7926   0.4996   0.7861     C
C       0.7926   0.5004   0.2861     C
O       0.7926   0.8957  0.64991     O
H       0.7957   0.1492   0.4636     H
H       0.7957   0.8508   0.9636     H
C       0.7972    0.462   0.3538     C
C       0.7972    0.538   0.8538     C
H       0.7999     0.06   0.5514     H
H       0.7999     0.94   0.0514     H
H       0.8021   0.4977   0.7567     H
H       0.8021   0.5023   0.2567     H
C       0.8025  0.42881   0.4837     C
C       0.8025  0.57119   0.9837     C
H       0.8029   0.3129   0.5756     H
C       0.8029   0.4099   0.1408     C
C       0.8029   0.5901   0.6408     C
H       0.8029   0.6871   0.0756     H
C       0.8035   0.2698   0.4398     C
C       0.8035   0.7302   0.9398     C
Sr     0.80382  0.14982   0.0779    Sr
Sr     0.80382  0.85018   0.5779    Sr
C       0.8055   0.3762   0.1703     C
C       0.8055   0.6238   0.6703     C
C       0.8068   0.4632   0.3094     C
C       0.8068   0.5368   0.8094     C
H       0.8075   0.4371   0.3705     H
H       0.8075   0.5629   0.8705     H
C       0.8081   0.4175   0.2418     C
C       0.8081   0.5825   0.7418     C
O        0.809  0.29001  0.94745     O
O        0.809  0.70999  0.44745     O
H       0.8181   0.4365   0.1523     H
H       0.8181   0.5635   0.6523     H
C       0.8211    0.474   0.4994     C
C       0.8211    0.526   0.9994     C
C       0.8244   0.2132   0.5568     C
C       0.8244   0.7868   0.0568     C
H       0.8272   0.1286   0.5743     H
H       0.8272   0.8714   0.0743     H
C       0.8308   0.3823   0.2201     C
C       0.8308   0.6177   0.7201     C
C       0.8318   0.4246   0.2873     C
C       0.8318   0.5754   0.7873     C
O       0.8383  0.35192   0.9238     O
O       0.8383  0.64808   0.4238     O
C       0.8384   0.1557   0.4523     C
C       0.8384   0.8443   0.9523     C
C       0.8392   0.3561   0.4819     C
C       0.8392   0.6439   0.9819     C
C       0.8438  0.19453   0.4326     C
C       0.8438  0.80547   0.9326     C
C       0.8455   0.2557   0.5647     C
C       0.8455   0.7443   0.0647     C
Sr     0.85143  0.03944  0.03012    Sr
Sr     0.85143  0.96056  0.53012    Sr
H       0.8527   0.2784   0.4412     H
H       0.8527   0.7216   0.9412     H
C       0.8549   0.3971   0.4957     C
C       0.8549   0.6029   0.9957     C
C       0.8556   0.3151   0.9362     C
C       0.8556   0.6849   0.4362     C
O       0.8569   0.2465   0.0643     O
O       0.8569   0.7535   0.5643     O
H       0.8597   0.0089   0.1054     H
H       0.8597   0.9911   0.6054     H
H       0.8602   0.1934   0.5525     H
H       0.8602   0.8066   0.0525     H
H       0.8756   0.3354   0.4902     H
H       0.8756   0.6646   0.9902     H
O       0.8765   0.2058   0.1244     O
O       0.8765   0.7942   0.6244     O
C       0.8778   0.3534   0.2465     C
C       0.8778   0.6466   0.7465     C
C       0.8789    0.395   0.3129     C
C       0.8789    0.605   0.8129     C
O       0.8857  0.48255   0.5175     O
O       0.8857  0.51745   0.0175     O
C       0.8873   0.2387   0.1034     C
C       0.8873   0.7613   0.6034     C
H         0.89      0.1   0.4693     H
H         0.89      0.9   0.9693     H
H       0.8918    0.329   0.2329     H
H       0.8918    0.671   0.7329     H
H       0.8934   0.3989   0.3443     H
H       0.8934   0.6011   0.8443     H
C       0.8947    0.126   0.4557     C
C       0.8947    0.874   0.9557     C
H       0.9015   0.4037   0.5134     H
H       0.9015   0.5963   0.0134     H
C       0.9048   0.3601   0.2932     C
C       0.9048   0.6399   0.7932     C
O       0.9065  0.00509  0.10794     O
O       0.9065  0.99491  0.60794     O
C       0.9075   0.2031   0.4155     C
C       0.9075   0.7969   0.9155     C
H       0.9126   0.2291   0.4019     H
H       0.9126   0.7709   0.9019     H
H       0.9202   0.3172   0.0858     H
H       0.9202   0.6828   0.5858     H
O       0.9204  0.11239  0.07019     O
O       0.9204  0.88761  0.57019     O
C       0.9221  0.27009   0.5654     C
C       0.9221  0.72991   0.0654     C
H       0.9238   0.3185    0.609     H
H       0.9238   0.6815    0.109     H
H       0.9244   0.0053   0.6341     H
H       0.9244   0.9947   0.1341     H
O       0.9306  0.03006  0.52333     O
O       0.9306  0.96994  0.02333     O
C       0.9326   0.2992   0.9359     C
C       0.9326   0.7008   0.4359     C
H        0.933   0.0157   0.5477     H
H        0.933   0.9843   0.0477     H
H       0.9352   0.2802   0.2776     H
H       0.9352   0.7198   0.7776     H
H       0.9365   0.2531   0.9836     H
H       0.9365   0.7469   0.4836     H
C        0.944   0.2704   0.1297     C
C        0.944   0.7296   0.6297     C
H       0.9473   0.2276   0.5214     H
H       0.9473   0.7724   0.0214     H
C       0.9501   0.3092   0.1135     C
C       0.9501   0.6908   0.6135     C
C       0.9525   0.3046   0.5911     C
C       0.9525   0.6954   0.0911     C
C       0.9554   0.3277   0.3209     C
C       0.9554   0.6723   0.8209     C
H       0.9578   0.3419   0.8909     H
H       0.9578   0.6581   0.3909     H
C       0.9583  0.13518   0.4387     C
C       0.9583  0.86482   0.9387     C
H       0.9616   0.0203   0.5081     H
H       0.9616   0.9797   0.0081     H
C       0.9634   0.2657   0.9637     C
C       0.9634   0.7343   0.4637     C
C       0.9637   0.1731   0.4183     C
C       0.9637   0.8269   0.9183     C
C       0.9639   0.2885   0.3055     C
C       0.9639   0.7115   0.8055     C
C        0.966   0.2512   0.5387     C
C        0.966   0.7488   0.0387     C
C       0.9766   0.3189    0.909     C
C       0.9766   0.6811    0.409     C
C       0.9787    0.103   0.0553     C
C       0.9787    0.897   0.5553     C
H       0.9808   0.2329    0.182     H
H       0.9808   0.7671    0.682     H
C       0.9856   0.2597   0.1701     C
C       0.9856   0.7403   0.6701     C
O       0.9857  0.06876   0.0356     O
O       0.9857  0.93124   0.5356     O
H       0.9942   0.1791   0.0939     H
H       0.9942   0.8209   0.5939     H
H       0.9948   0.3647   0.3745     H
H       0.9948   0.6353   0.8745     H
C       0.9991   0.3379   0.3623     C
C       0.9991   0.6621   0.8623     C
