data_I
_chemical_name_common  '/home/zhangsd/repos/MofS-CGCNN/ML/data/TSD/clean_cifs/KAPHAL_clean'
_cell_length_a  8.30400
_cell_length_b  8.72800
_cell_length_c  9.17700
_cell_angle_alpha 95.59000
_cell_angle_beta  115.70000
_cell_angle_gamma 110.26000
_space_group_name_H-M_alt      'P 1'


loop_
_space_group_symop_operation_xyz
  'x, y, z' 

loop_
_atom_site_label
_atom_site_fract_x
_atom_site_fract_y
_atom_site_fract_z
_atom_site_type_symbol
O        0.071   0.4873   0.7629     O
Ce     0.08038  0.00805  0.26821    Ce
O       0.0894   0.2972   0.9061     O
C        0.149   0.4453   0.8902     C
O       0.1536   0.9752   0.0111     O
O       0.1891   0.1312   0.6773     O
C       0.3279   0.9958   0.1075     C
C       0.3308   0.5754   0.0399     C
C       0.3448     0.21   0.6764     C
O       0.3633   0.1975    0.549     O
O       0.3943   0.0122   0.2622     O
C       0.4534   0.9999   0.0329     C
C       0.4781   0.6745   0.1657     C
C       0.5219   0.3255   0.8343     C
C       0.5466   0.0001   0.9671     C
O       0.6057   0.9878   0.7378     O
O       0.6367   0.8025    0.451     O
C       0.6552     0.79   0.3236     C
C       0.6692   0.4246   0.9601     C
C       0.6721   0.0042   0.8925     C
O       0.8109   0.8688   0.3227     O
O       0.8464   0.0248   0.9889     O
C        0.851   0.5547   0.1098     C
O       0.9106   0.7028   0.0939     O
Ce     0.91962  0.99195  0.73179    Ce
O        0.929   0.5127   0.2371     O
