data_I
_chemical_name_common  '/home/zhangsd/repos/MofS-CGCNN/ML/data/TSD/clean_cifs/KAXFUM_clean'
_cell_length_a  9.52610
_cell_length_b 15.77000
_cell_length_c  4.31280
_cell_angle_alpha 90.00000
_cell_angle_beta  97.76700
_cell_angle_gamma 90.00000
_space_group_name_H-M_alt      'P 1'


loop_
_space_group_symop_operation_xyz
  'x, y, z' 

loop_
_atom_site_label
_atom_site_fract_x
_atom_site_fract_y
_atom_site_fract_z
_atom_site_type_symbol
Ba         0.0      0.0      0.5    Ba
H       0.0183   0.3514   0.2221     H
H       0.0183   0.6486   0.2221     H
H        0.036    0.215    0.261     H
H        0.036    0.785    0.261     H
O       0.1605   0.1553   0.5485     O
O       0.1605   0.8447   0.5485     O
O       0.1945      0.0   0.0703     O
H       0.2099   0.3165   0.6089     H
H       0.2099   0.6835   0.6089     H
H        0.246    0.044    0.062     H
H        0.246    0.956    0.062     H
C       0.2585   0.1942   0.7207     C
C       0.2585   0.8058   0.7207     C
C        0.274   0.2827   0.7354     C
C        0.274   0.7173   0.7354     C
N       0.3558   0.1444   0.9086     N
N       0.3558   0.8556   0.9086     N
C       0.3828   0.3212   0.9346     C
C       0.3828   0.6788   0.9346     C
O       0.4074      0.4   0.9671     O
O       0.4074      0.6   0.9671     O
C       0.4547   0.1825   0.0945     C
C       0.4547   0.8175   0.0945     C
N       0.4722   0.2663   0.1171     N
N       0.4722   0.7337   0.1171     N
Ba         0.5      0.5      0.5    Ba
H       0.5183   0.1486   0.2221     H
H       0.5183   0.8514   0.2221     H
H        0.536    0.285    0.261     H
H        0.536    0.715    0.261     H
O       0.6605   0.3447   0.5485     O
O       0.6605   0.6553   0.5485     O
O       0.6945      0.5   0.0703     O
H       0.7099   0.1835   0.6089     H
H       0.7099   0.8165   0.6089     H
H        0.746    0.456    0.062     H
H        0.746    0.544    0.062     H
C       0.7585   0.3058   0.7207     C
C       0.7585   0.6942   0.7207     C
C        0.774   0.2173   0.7354     C
C        0.774   0.7827   0.7354     C
N       0.8558   0.3556   0.9086     N
N       0.8558   0.6444   0.9086     N
C       0.8828   0.1788   0.9346     C
C       0.8828   0.8212   0.9346     C
O       0.9074      0.1   0.9671     O
O       0.9074      0.9   0.9671     O
C       0.9547   0.3175   0.0945     C
C       0.9547   0.6825   0.0945     C
N       0.9722   0.2337   0.1171     N
N       0.9722   0.7663   0.1171     N
