data_I
_chemical_name_common  '/home/zhangsd/repos/MofS-CGCNN/ML/data/TSD/clean_cifs/KAXZUG_clean'
_cell_length_a  9.63980
_cell_length_b 13.06500
_cell_length_c 21.05400
_cell_angle_alpha 102.46000
_cell_angle_beta  102.39000
_cell_angle_gamma 99.52000
_space_group_name_H-M_alt      'P 1'


loop_
_space_group_symop_operation_xyz
  'x, y, z' 

loop_
_atom_site_label
_atom_site_fract_x
_atom_site_fract_y
_atom_site_fract_z
_atom_site_type_symbol
H       0.0017   0.4377   0.6898     H
O       0.0123   0.1572   0.6392     O
N        0.016   0.3298  0.86665     N
C       0.0171   0.4491   0.2078     C
H       0.0197    0.081   0.3795     H
H       0.0265   0.0776   0.7544     H
N       0.0272   0.4682  0.82543     N
H       0.0278   0.4763   0.6269     H
C        0.038   0.6825   0.5113     C
H       0.0496   0.2303   0.3115     H
H       0.0557   0.3191   0.5127     H
H       0.0591   0.4025   0.1786     H
C       0.0603   0.6093   0.1621     C
N       0.0643   0.6271    0.556     N
H        0.071   0.7948    0.885     H
C       0.0736   0.4718   0.6712     C
H        0.076   0.1486   0.2228     H
N       0.0779    0.079  0.85209     N
N       0.0789   0.2592    3e-05     N
Cd     0.08026  0.83052   0.1042    Cd
C        0.081    0.052   0.7871     C
H       0.0859   0.4178   0.0147     H
H       0.0923   0.4845   0.2491     H
C       0.1056   0.6193   0.7756     C
H       0.1099   0.6897   0.9009     H
H       0.1173   0.3183   0.3798     H
C       0.1207   0.1006   0.3894     C
C        0.123   0.3653    0.032     C
C       0.1323   0.1804   0.6266     C
C       0.1397   0.2656   0.3456     C
C       0.1437   0.5835   0.7158     C
C       0.1439   0.7529   0.8874     C
H       0.1466   0.4304   0.6684     H
C       0.1541   0.3775    0.873     C
O       0.1549   0.2195   0.5801     O
H        0.155   0.1413   0.0329     H
H       0.1555   0.7642   0.3011     H
O        0.156    0.985  0.55984     O
N       0.1581   0.7418  0.50299     N
C       0.1584   0.2146   0.0406     C
H       0.1612   0.6198    0.172     H
H       0.1662   0.1427   0.1689     H
N       0.1664   0.4629   0.8486     N
Cd     0.16713  0.89255  0.45564    Cd
N       0.1675   0.9861   0.7732     N
C       0.1704   0.0268   0.8807     C
C       0.1724   0.1583   0.2162     C
C       0.1735   0.7204   0.8191     C
H       0.1939   0.0285   0.9261     H
N       0.1966   0.1855  0.37642     N
Cl     0.20325  0.96675   0.0521    Cl
N       0.2122   0.0486  0.41865     N
N       0.2124    0.655  0.57856     N
N       0.2224    0.388   0.0896     N
H       0.2231   0.1106   0.2357     H
N       0.2243   0.9717  0.83434     N
H       0.2319   0.7948   0.9197     H
H       0.2337   0.3531   0.8928     H
H       0.2354   0.5061   0.4179     H
C       0.2367   0.7479   0.3262     C
N       0.2441   0.2894   0.0941     N
C       0.2442   0.3233   0.3137     C
H       0.2463   0.2741   0.7559     H
C       0.2473   0.6532   0.6976     C
C       0.2543   0.2736   0.2499     C
O       0.2567   0.8972  0.21214     O
C       0.2626   0.1664  0.67464     C
C       0.2643    0.722   0.5461     C
H       0.2674   0.5376   0.6195     H
C       0.2719   0.7912   0.7994     C
C       0.2895   0.6155   0.6329     C
C       0.2922    0.018  0.58385     C
N       0.2949   0.6693  0.30204     N
O       0.3013   0.7773   0.1325     O
C       0.3041   0.2288   0.7409     C
N       0.3047    0.804  0.39126     N
C       0.3087   0.7582   0.7386     C
H       0.3199   0.4243   0.4441     H
C       0.3214   0.4777   0.4191     C
C       0.3258   0.4272   0.3477     C
C       0.3309   0.9051   0.8432     C
C       0.3385   0.8404   0.1917     C
N       0.3415   0.1916   0.3987     N
C        0.344   0.3294  0.21814     C
C       0.3444   0.1065   0.4229     C
C       0.3456   0.0942  0.65286     C
H       0.3498   0.1996   0.1455     H
C        0.357   0.2758   0.1494     C
H       0.3579   0.9037   0.8901     H
H       0.3611    0.885   0.6991     H
H       0.3627   0.7512   0.5528     H
O       0.3804   0.9886  0.55261     O
H       0.3875    0.494    0.764     H
H       0.3936   0.6406   0.6404     H
H       0.4061   0.5348   0.4405     H
N       0.4063   0.6735  0.35579     N
C       0.4091   0.7532   0.4065     C
C       0.4118   0.8352   0.7162     C
C       0.4131   0.4833   0.3154     C
H       0.4179   0.9366   0.8321     H
C        0.421   0.4355     0.25     C
H       0.4299   0.3822   0.6737     H
H       0.4305   0.0883   0.4414     H
C       0.4308   0.2238   0.7844     C
H       0.4453   0.4014   0.6042     H
H       0.4469   0.7954   0.6814     H
H       0.4522   0.3056   0.1447     H
H       0.4574   0.2652   0.8288     H
H       0.4667    0.952    0.318     H
C       0.4748   0.0929  0.69675     C
H       0.4767   0.7715   0.4482     H
C       0.4816   0.8424   0.2376     C
H       0.4888   0.5677    0.219     H
C        0.489    0.502   0.7848     C
H       0.4893   0.4603   0.1686     H
H       0.4925   0.8739   0.7538     H
C       0.4994   0.4031   0.6491     C
C       0.5006   0.5969   0.3509     C
H       0.5075   0.1261   0.2462     H
H       0.5107   0.5397   0.8314     H
C        0.511    0.498   0.2152     C
H       0.5112   0.4323    0.781     H
C       0.5184   0.1576   0.7624     C
H       0.5233   0.2285   0.5518     H
C       0.5252   0.9071  0.30325     C
H       0.5333    0.048    0.682     H
H       0.5426   0.7348   0.1712     H
H       0.5478   0.6944   0.8553     H
H       0.5531   0.2046   0.3186     H
H       0.5547   0.5986   0.3958     H
C       0.5692   0.7762   0.2156     C
H       0.5695   0.9117   0.5586     H
H       0.5701   0.6178   0.3263     H
C        0.579   0.5645     0.75     C
H       0.5821   0.0634   0.1679     H
C       0.5869   0.5167   0.6846     C
C       0.5882   0.1648   0.2838     C
C       0.5909   0.2468   0.5935     C
N       0.5937   0.3265  0.64421     N
H       0.5939   0.4652   0.5595     H
H       0.6064   0.3594   0.3596     H
H       0.6125    0.506    0.236     H
O       0.6196   0.0114  0.44739     O
H       0.6373   0.2488   0.4472     H
H       0.6389    0.115   0.3009     H
H       0.6421   0.0963   0.1099     H
C        0.643   0.7242   0.8506     C
H       0.6502   0.8004   0.8545     H
C       0.6544   0.9058  0.34714     C
C       0.6556   0.8935   0.5771     C
C        0.656   0.6706  0.78186     C
N       0.6585   0.8084   0.6013     N
C       0.6615   0.1596   0.8083     C
C       0.6691   0.0949   0.1568     C
C       0.6742   0.5728   0.6523     C
C       0.6786   0.5223   0.5809     C
H       0.6801   0.5757   0.5559     H
C       0.6913   0.2418   0.2614     C
N       0.6953    0.196  0.60874     N
C       0.6959   0.7712   0.2591     C
O       0.6987   0.2227   0.8675     O
N       0.7051   0.3307  0.69796     N
C       0.7078    0.982  0.41615     C
C       0.7105   0.3845   0.3671     C
C       0.7281   0.2088   0.2006     C
H       0.7326   0.4624   0.3805     H
C       0.7357    0.278   0.4539     C
C       0.7374   0.8336  0.32536     C
O       0.7433   0.1028  0.78786     O
C       0.7457   0.7264   0.7501     C
C       0.7527   0.3468   0.3024     C
H       0.7537   0.7259   0.2441     H
C       0.7558   0.6767   0.6863     C
N       0.7559   0.7106   0.9059     N
C       0.7633   0.2521   0.6738     C
H       0.7646   0.4939   0.5821     H
H       0.7663   0.6469   0.1072     H
H       0.7681   0.2052   0.0803     H
N       0.7757   0.0283  0.16566     N
H       0.7769   0.8894   0.7643     H
N       0.7776    0.612   0.9104     N
N       0.7876    0.345  0.42144     N
N       0.7878   0.9514  0.58135     N
Cl     0.79675  0.03325   0.9479    Cl
N       0.8034   0.8145  0.62358     N
H       0.8061   0.9715   0.0739     H
C       0.8265   0.2796   0.1809     C
C       0.8276   0.8417   0.7838     C
C       0.8296   0.9732   0.1193     C
N       0.8325   0.0139   0.2268     N
Cd     0.83287  0.10745  0.54436    Cd
N       0.8336   0.5371   0.1514     N
H       0.8338   0.8573   0.8311     H
H       0.8388   0.3802    0.828     H
C       0.8416   0.7854   0.9594     C
N       0.8419   0.2582  0.49701     N
O        0.844    0.015  0.44016     O
H       0.8445   0.2358   0.6989     H
H        0.845   0.8587   0.9671     H
O       0.8451   0.7805   0.4199     O
C       0.8459   0.6225    0.127     C
H       0.8534   0.5696   0.3316     H
C       0.8561   0.2471   0.1126     C
C       0.8563   0.4165   0.2842     C
C       0.8603   0.7344   0.6544     C
C       0.8677   0.8196   0.3734     C
C        0.877   0.6347    0.968     C
C       0.8793   0.8994   0.6106     C
H       0.8827   0.6817   0.6202     H
H       0.8901   0.3103   0.0991     H
C       0.8944   0.3807   0.2244     C
H       0.9077   0.5155   0.7509     H
H       0.9141   0.5822   0.9853     H
C        0.919    0.948   0.2129     C
Cd     0.91974  0.16948   0.8958    Cd
N       0.9211   0.7408  0.99997     N
N       0.9221    0.921  0.14791     N
H        0.924   0.8514   0.7772     H
C       0.9264   0.5282   0.3288     C
H        0.929   0.2052    0.115     H
N       0.9357   0.3729    0.444     N
C       0.9397   0.3907   0.8379     C
H       0.9409   0.5975   0.8214     H
H       0.9443   0.6809   0.4873     H
H       0.9504   0.7697   0.6885     H
C        0.962   0.3175   0.4887     C
H       0.9722   0.5237   0.3731     H
N       0.9728   0.5318  0.17457     N
H       0.9735   0.9224   0.2456     H
H       0.9803    0.919   0.6205     H
C       0.9829   0.5509   0.7922     C
N        0.984   0.6702  0.13335     N
O       0.9877   0.8428   0.3608     O
H       0.9983   0.5623   0.3102     H
