data_I
_chemical_name_common  '/home/zhangsd/repos/MofS-CGCNN/ML/data/TSD/clean_cifs/KEFFEI_clean'
_cell_length_a  6.68200
_cell_length_b 18.44600
_cell_length_c  8.47700
_cell_angle_alpha 90.00000
_cell_angle_beta  90.00000
_cell_angle_gamma 90.00000
_space_group_name_H-M_alt      'P 1'


loop_
_space_group_symop_operation_xyz
  'x, y, z' 

loop_
_atom_site_label
_atom_site_fract_x
_atom_site_fract_y
_atom_site_fract_z
_atom_site_type_symbol
Dy         0.0  0.14264     0.75    Dy
H          0.0   0.3248     0.25     H
C          0.0   0.3752     0.25     C
C          0.0   0.6248     0.75     C
H          0.0   0.6752     0.75     H
Dy         0.0  0.85736     0.25    Dy
O       0.0136   0.0498   0.9317     O
O       0.0136   0.9502   0.0683     O
C       0.0739      0.0      0.5     C
O       0.1642  0.40537    0.231     O
O       0.1642  0.59463    0.769     O
O       0.1742  0.18314   0.9822     O
O       0.1742  0.81686   0.0178     O
O       0.1807   0.2425   0.6526     O
O       0.1807   0.7575   0.3474     O
H       0.2126   0.2827   0.9582     H
H       0.2126   0.7173   0.0418     H
H       0.2131      0.0      0.5     H
C        0.234    0.244   0.0264     C
C        0.234    0.756   0.9736     C
C        0.266    0.256   0.5264     C
C        0.266    0.744   0.4736     C
H       0.2869      0.5      0.0     H
H       0.2874   0.2173   0.4582     H
H       0.2874   0.7827   0.5418     H
O       0.3193   0.2575   0.1526     O
O       0.3193   0.7425   0.8474     O
O       0.3258  0.31686   0.4822     O
O       0.3258  0.68314   0.5178     O
O       0.3358  0.09463    0.731     O
O       0.3358  0.90537    0.269     O
C       0.4261      0.5      0.0     C
O       0.4864   0.4502   0.4317     O
O       0.4864   0.5498   0.5683     O
C          0.5   0.1248     0.75     C
H          0.5   0.1752     0.75     H
Dy         0.5  0.35736     0.25    Dy
Dy         0.5  0.64264     0.75    Dy
H          0.5   0.8248     0.25     H
C          0.5   0.8752     0.25     C
O       0.5136   0.4502   0.0683     O
O       0.5136   0.5498   0.9317     O
C       0.5739      0.5      0.5     C
O       0.6642  0.09463    0.769     O
O       0.6642  0.90537    0.231     O
O       0.6742  0.31686   0.0178     O
O       0.6742  0.68314   0.9822     O
O       0.6807   0.2575   0.3474     O
O       0.6807   0.7425   0.6526     O
H       0.7126   0.2173   0.0418     H
H       0.7126   0.7827   0.9582     H
H       0.7131      0.5      0.5     H
C        0.734    0.256   0.9736     C
C        0.734    0.744   0.0264     C
C        0.766    0.244   0.4736     C
C        0.766    0.756   0.5264     C
H       0.7869      0.0      0.0     H
H       0.7874   0.2827   0.5418     H
H       0.7874   0.7173   0.4582     H
O       0.8193   0.2425   0.8474     O
O       0.8193   0.7575   0.1526     O
O       0.8258  0.18314   0.5178     O
O       0.8258  0.81686   0.4822     O
O       0.8358  0.40537    0.269     O
O       0.8358  0.59463    0.731     O
C       0.9261      0.0      0.0     C
O       0.9864   0.0498   0.5683     O
O       0.9864   0.9502   0.4317     O
