data_I
_chemical_name_common  '/home/zhangsd/repos/MofS-CGCNN/ML/data/TSD/clean_cifs/KEFWAV_clean'
_cell_length_a 12.79490
_cell_length_b  8.25820
_cell_length_c 18.20060
_cell_angle_alpha 90.00000
_cell_angle_beta  107.77800
_cell_angle_gamma 90.00000
_space_group_name_H-M_alt      'P 1'


loop_
_space_group_symop_operation_xyz
  'x, y, z' 

loop_
_atom_site_label
_atom_site_fract_x
_atom_site_fract_y
_atom_site_fract_z
_atom_site_type_symbol
Co         0.0      0.0      0.5    Co
Co         0.0      0.5      0.0    Co
C        0.012   0.1624  0.30151     C
C        0.012   0.3376  0.80151     C
O      0.01528   0.6716  0.92325     O
O      0.01528   0.8284  0.42325     O
C       0.0321   0.2081  0.23234     C
C       0.0321   0.2919  0.73234     C
H       0.0643   0.1368   0.3481     H
H       0.0643   0.3632   0.8481     H
C       0.0667   0.7325  0.32072     C
C       0.0667   0.7675  0.82072     C
C       0.0957   0.7123  0.90173     C
C       0.0957   0.7877  0.40173     C
C       0.0981   0.6632  0.21312     C
C       0.0981   0.8368  0.71312     C
H       0.1004   0.2194   0.2247     H
H       0.1004   0.2806   0.7247     H
O      0.11813   0.6287  0.08973     O
O      0.11813   0.8713  0.58973     O
O      0.12849   0.1412  0.48038     O
O      0.12849   0.3588  0.98038     O
O      0.14888   0.7052  0.28856     O
O      0.14888   0.7948  0.78856     O
H       0.1649   0.0752   0.8956     H
H       0.1649   0.4248   0.3956     H
C       0.1671   0.6457  0.16198     C
C       0.1671   0.8543  0.66198     C
O      0.19615   0.7116   0.9408     O
O      0.19615   0.7884   0.4408     O
C       0.2309   0.1419   0.4973     C
C       0.2309   0.3581   0.9973     C
C       0.2373   0.1111  0.91028     C
C       0.2373   0.3889  0.41028     C
Co     0.25856  0.69037  0.05834    Co
Co     0.25856  0.80963  0.55834    Co
O      0.26889   0.6611  0.18659     O
O      0.26889   0.8389  0.68659     O
C       0.2788   0.2376  0.95669     C
C       0.2788   0.2624  0.45669     C
O      0.29796   0.0491  0.54533     O
O      0.29796   0.4509  0.04533     O
H       0.3199   0.5461   0.3567     H
H       0.3199   0.9539   0.8567     H
C       0.3241   0.0437   0.8883     C
C       0.3241   0.4563   0.3883     C
O      0.38921   0.2462  0.46464     O
O      0.38921   0.2538  0.96464     O
C       0.4137   0.1322  0.92095     C
C       0.4137   0.3678  0.42095     C
O      0.41652   0.7446   0.0648     O
O      0.41652   0.7554   0.5648     O
O      0.44277   0.0007  0.10903     O
O      0.44277   0.4993  0.60903     O
C        0.473   0.6278  0.58428     C
C        0.473   0.8722  0.08428     C
C        0.527   0.1278  0.91572     C
C        0.527   0.3722  0.41572     C
O      0.55723   0.5007  0.39097     O
O      0.55723   0.9993  0.89097     O
O      0.58348   0.2446   0.4352     O
O      0.58348   0.2554   0.9352     O
C       0.5863   0.6322  0.57905     C
C       0.5863   0.8678  0.07905     C
O      0.61079   0.7462  0.03536     O
O      0.61079   0.7538  0.53536     O
C       0.6759   0.5437   0.6117     C
C       0.6759   0.9563   0.1117     C
H       0.6801   0.0461   0.1433     H
H       0.6801   0.4539   0.6433     H
O      0.70204   0.5491  0.95467     O
O      0.70204   0.9509  0.45467     O
C       0.7212   0.7376  0.54331     C
C       0.7212   0.7624  0.04331     C
O      0.73111   0.1611  0.31341     O
O      0.73111   0.3389  0.81341     O
Co     0.74144  0.19037  0.44166    Co
Co     0.74144  0.30963  0.94166    Co
C       0.7627   0.6111  0.58972     C
C       0.7627   0.8889  0.08972     C
C       0.7691   0.6419   0.0027     C
C       0.7691   0.8581   0.5027     C
O      0.80385   0.2116   0.5592     O
O      0.80385   0.2884   0.0592     O
C       0.8329   0.1457  0.33802     C
C       0.8329   0.3543  0.83802     C
H       0.8351   0.5752   0.6044     H
H       0.8351   0.9248   0.1044     H
O      0.85112   0.2052  0.21144     O
O      0.85112   0.2948  0.71144     O
O      0.87151   0.6412  0.01962     O
O      0.87151   0.8588  0.51962     O
O      0.88187   0.1287  0.41027     O
O      0.88187   0.3713  0.91027     O
H       0.8996   0.7194   0.2753     H
H       0.8996   0.7806   0.7753     H
C       0.9019   0.1632  0.28688     C
C       0.9019   0.3368  0.78688     C
C       0.9043   0.2123  0.59827     C
C       0.9043   0.2877  0.09827     C
C       0.9333   0.2325  0.17928     C
C       0.9333   0.2675  0.67928     C
H       0.9357   0.6368   0.1519     H
H       0.9357   0.8632   0.6519     H
C       0.9679   0.7081  0.26766     C
C       0.9679   0.7919  0.76766     C
O      0.98472   0.1716  0.57675     O
O      0.98472   0.3284  0.07675     O
C        0.988   0.6624  0.19849     C
C        0.988   0.8376  0.69849     C
