data_I
_chemical_name_common  '/home/zhangsd/repos/MofS-CGCNN/ML/data/TSD/clean_cifs/KEJHIQ_clean_h'
_cell_length_a 12.08100
_cell_length_b 15.32300
_cell_length_c 19.70500
_cell_angle_alpha 90.00000
_cell_angle_beta  90.00000
_cell_angle_gamma 90.00000
_space_group_name_H-M_alt      'P 1'


loop_
_space_group_symop_operation_xyz
  'x, y, z' 

loop_
_atom_site_label
_atom_site_fract_x
_atom_site_fract_y
_atom_site_fract_z
_atom_site_type_symbol
C       0.0063  0.50997  0.74227     C
C       0.0063  0.99003  0.24227     C
O       0.0109  0.16404  0.76934     O
O       0.0109  0.33596  0.26934     O
C       0.0179  0.56885  0.28869     C
C       0.0179  0.93115  0.78869     C
H      0.01963  0.20895  0.20791     H
H      0.01963  0.29105  0.70791     H
C       0.0212   0.1965  0.52369     C
C       0.0212   0.3035  0.02369     C
C        0.022   0.1613  0.94265     C
C        0.022   0.3387  0.44265     C
H      0.02368  0.13566  0.55695     H
H      0.02368  0.36434  0.05695     H
H      0.02379   0.1015  0.90825     H
H      0.02379   0.3985  0.40825     H
C       0.0371  0.14345  0.23317     C
C       0.0371  0.35655  0.73317     C
C       0.0477   0.6631  0.50135     C
C       0.0477   0.8369  0.00135     C
C       0.0501  0.73597  0.46059     C
C       0.0501  0.76403  0.96059     C
C        0.055  0.09143  0.77864     C
C        0.055  0.40857  0.27864     C
H      0.08181  0.57168   0.3312     H
H      0.08181  0.92832   0.8312     H
C       0.0846  0.51173  0.79337     C
C       0.0846  0.98827  0.29337     C
C        0.089   0.2029  0.46793     C
N        0.089  0.22758  0.92633     N
N        0.089  0.27242  0.42633     N
C        0.089   0.2971  0.96793     C
H       0.1027  0.60475  0.48904     H
H       0.1027  0.89525  0.98904     H
H      0.10694  0.57615  0.81886     H
H      0.10694  0.92385  0.31886     H
N       0.1115  0.14256  0.28364     N
N       0.1115  0.35744  0.78364     N
C       0.1342  0.06552  0.31236     C
C       0.1342  0.43448  0.81236     C
C        0.135   0.7444  0.40507     C
C        0.135   0.7556  0.90507     C
O      0.14758  0.08214  0.80579     O
O      0.14758  0.41786  0.30579     O
H      0.14873  0.14767  0.45523     H
H      0.14873  0.35233  0.95523     H
O       0.1553  0.68063  0.88302     O
O       0.1553  0.81937  0.38302     O
O      0.18465  0.67734    0.386     O
O      0.18465  0.82266    0.886     O
Cd     0.18885  0.22775  0.82128    Cd
Cd     0.18885  0.27225  0.32128    Cd
H      0.19847  0.06597  0.35472     H
H      0.19847  0.43403  0.85472     H
H      0.30153  0.56597  0.35472     H
H      0.30153  0.93403  0.85472     H
Cd     0.31115  0.72775  0.82128    Cd
Cd     0.31115  0.77225  0.32128    Cd
O      0.31535  0.17734    0.386     O
O      0.31535  0.32266    0.886     O
O       0.3447  0.18063  0.88302     O
O       0.3447  0.31937  0.38302     O
H      0.35127  0.64767  0.45523     H
H      0.35127  0.85233  0.95523     H
O      0.35242  0.58214  0.80579     O
O      0.35242  0.91786  0.30579     O
C        0.365   0.2444  0.40507     C
C        0.365   0.2556  0.90507     C
C       0.3658  0.56552  0.31236     C
C       0.3658  0.93448  0.81236     C
N       0.3885  0.64256  0.28364     N
N       0.3885  0.85744  0.78364     N
H      0.39306  0.07615  0.81886     H
H      0.39306  0.42385  0.31886     H
H       0.3973  0.10475  0.48904     H
H       0.3973  0.39525  0.98904     H
C        0.411   0.7029  0.46793     C
N        0.411  0.72758  0.92633     N
N        0.411  0.77242  0.42633     N
C        0.411   0.7971  0.96793     C
C       0.4154  0.01173  0.79337     C
C       0.4154  0.48827  0.29337     C
H      0.41819  0.07168   0.3312     H
H      0.41819  0.42832   0.8312     H
C        0.445  0.59143  0.77864     C
C        0.445  0.90857  0.27864     C
C       0.4499  0.23597  0.46059     C
C       0.4499  0.26403  0.96059     C
C       0.4523   0.1631  0.50135     C
C       0.4523   0.3369  0.00135     C
C       0.4629  0.64345  0.23317     C
C       0.4629  0.85655  0.73317     C
H      0.47621   0.6015  0.90825     H
H      0.47621   0.8985  0.40825     H
H      0.47632  0.63566  0.55695     H
H      0.47632  0.86434  0.05695     H
C        0.478   0.6613  0.94265     C
C        0.478   0.8387  0.44265     C
C       0.4788   0.6965  0.52369     C
C       0.4788   0.8035  0.02369     C
H      0.48037  0.70895  0.20791     H
H      0.48037  0.79105  0.70791     H
C       0.4821  0.06885  0.28869     C
C       0.4821  0.43115  0.78869     C
O       0.4891  0.66404  0.76934     O
O       0.4891  0.83596  0.26934     O
C       0.4937  0.00997  0.74227     C
C       0.4937  0.49003  0.24227     C
C       0.5063  0.50997  0.75773     C
C       0.5063  0.99003  0.25773     C
O       0.5109  0.16404  0.73066     O
O       0.5109  0.33596  0.23066     O
C       0.5179  0.56885  0.21131     C
C       0.5179  0.93115  0.71131     C
H      0.51963  0.20895  0.29209     H
H      0.51963  0.29105  0.79209     H
C       0.5212   0.1965  0.97631     C
C       0.5212   0.3035  0.47631     C
C        0.522   0.1613  0.55735     C
C        0.522   0.3387  0.05735     C
H      0.52368  0.13566  0.94305     H
H      0.52368  0.36434  0.44305     H
H      0.52379   0.1015  0.59175     H
H      0.52379   0.3985  0.09175     H
C       0.5371  0.14345  0.26683     C
C       0.5371  0.35655  0.76683     C
C       0.5477   0.6631  0.99865     C
C       0.5477   0.8369  0.49865     C
C       0.5501  0.73597  0.03941     C
C       0.5501  0.76403  0.53941     C
C        0.555  0.09143  0.72136     C
C        0.555  0.40857  0.22136     C
H      0.58181  0.57168   0.1688     H
H      0.58181  0.92832   0.6688     H
C       0.5846  0.51173  0.70663     C
C       0.5846  0.98827  0.20663     C
C        0.589   0.2029  0.03207     C
N        0.589  0.22758  0.57367     N
N        0.589  0.27242  0.07367     N
C        0.589   0.2971  0.53207     C
H       0.6027  0.60475  0.01096     H
H       0.6027  0.89525  0.51096     H
H      0.60694  0.57615  0.68114     H
H      0.60694  0.92385  0.18114     H
N       0.6115  0.14256  0.21636     N
N       0.6115  0.35744  0.71636     N
C       0.6342  0.06552  0.18764     C
C       0.6342  0.43448  0.68764     C
C        0.635   0.7444  0.09493     C
C        0.635   0.7556  0.59493     C
O      0.64758  0.08214  0.69421     O
O      0.64758  0.41786  0.19421     O
H      0.64873  0.14767  0.04477     H
H      0.64873  0.35233  0.54477     H
O       0.6553  0.68063  0.61698     O
O       0.6553  0.81937  0.11698     O
O      0.68465  0.67734    0.114     O
O      0.68465  0.82266    0.614     O
Cd     0.68885  0.22775  0.67872    Cd
Cd     0.68885  0.27225  0.17872    Cd
H      0.69847  0.06597  0.14528     H
H      0.69847  0.43403  0.64528     H
H      0.80153  0.56597  0.14528     H
H      0.80153  0.93403  0.64528     H
Cd     0.81115  0.72775  0.67872    Cd
Cd     0.81115  0.77225  0.17872    Cd
O      0.81535  0.17734    0.114     O
O      0.81535  0.32266    0.614     O
O       0.8447  0.18063  0.61698     O
O       0.8447  0.31937  0.11698     O
H      0.85127  0.64767  0.04477     H
H      0.85127  0.85233  0.54477     H
O      0.85242  0.58214  0.69421     O
O      0.85242  0.91786  0.19421     O
C        0.865   0.2444  0.09493     C
C        0.865   0.2556  0.59493     C
C       0.8658  0.56552  0.18764     C
C       0.8658  0.93448  0.68764     C
N       0.8885  0.64256  0.21636     N
N       0.8885  0.85744  0.71636     N
H      0.89306  0.07615  0.68114     H
H      0.89306  0.42385  0.18114     H
H       0.8973  0.10475  0.01096     H
H       0.8973  0.39525  0.51096     H
C        0.911   0.7029  0.03207     C
N        0.911  0.72758  0.57367     N
N        0.911  0.77242  0.07367     N
C        0.911   0.7971  0.53207     C
C       0.9154  0.01173  0.70663     C
C       0.9154  0.48827  0.20663     C
H      0.91819  0.07168   0.1688     H
H      0.91819  0.42832   0.6688     H
C        0.945  0.59143  0.72136     C
C        0.945  0.90857  0.22136     C
C       0.9499  0.23597  0.03941     C
C       0.9499  0.26403  0.53941     C
C       0.9523   0.1631  0.99865     C
C       0.9523   0.3369  0.49865     C
C       0.9629  0.64345  0.26683     C
C       0.9629  0.85655  0.76683     C
H      0.97621   0.6015  0.59175     H
H      0.97621   0.8985  0.09175     H
H      0.97632  0.63566  0.94305     H
H      0.97632  0.86434  0.44305     H
C        0.978   0.6613  0.55735     C
C        0.978   0.8387  0.05735     C
C       0.9788   0.6965  0.97631     C
C       0.9788   0.8035  0.47631     C
H      0.98037  0.70895  0.29209     H
H      0.98037  0.79105  0.79209     H
C       0.9821  0.06885  0.21131     C
C       0.9821  0.43115  0.71131     C
O       0.9891  0.66404  0.73066     O
O       0.9891  0.83596  0.23066     O
C       0.9937  0.00997  0.75773     C
C       0.9937  0.49003  0.25773     C
