data_I
_chemical_name_common  '/home/zhangsd/repos/MofS-CGCNN/ML/data/TSD/clean_cifs/KEVWUF_clean'
_cell_length_a 15.64600
_cell_length_b 17.27620
_cell_length_c 17.88610
_cell_angle_alpha 77.90190
_cell_angle_beta  64.06320
_cell_angle_gamma 63.07530
_space_group_name_H-M_alt      'P 1'


loop_
_space_group_symop_operation_xyz
  'x, y, z' 

loop_
_atom_site_label
_atom_site_fract_x
_atom_site_fract_y
_atom_site_fract_z
_atom_site_type_symbol
C       0.0011   0.2499   0.0939     C
C       0.0111   0.8672   0.9452     C
O       0.0173   0.3672   0.1258     O
C       0.0396   0.6737   0.8547     C
H       0.0486   0.8986   0.9396     H
C       0.0567    0.796   0.8952     C
H       0.0618   0.1286   0.4038     H
C       0.0917   0.1087   0.9959     C
N       0.0981   0.2302   0.0358     N
H       0.1041   0.2052   0.2806     H
H       0.1132   0.3986   0.4396     H
H       0.1244   0.0604   0.9628     H
O       0.1244   0.6561   0.7941     O
H       0.1245   0.7795   0.8553     H
C       0.1309   0.1122   0.3664     C
C       0.1431   0.1599   0.9885     C
H       0.1476   0.4396   0.5372     H
C       0.1558   0.1576   0.2934     C
C       0.1765   0.3672   0.4452     C
H       0.1947   0.0082    0.432     H
C       0.1963   0.3913   0.5041     C
La     0.20192  0.32428  0.01338    La
C         0.21   0.0414   0.3838     C
O       0.2269   0.2221   0.1279     O
H       0.2407   0.2795   0.3553     H
La     0.25156  0.54998  0.67132    La
C       0.2521    0.296   0.3952     C
C        0.254   0.1384    0.931     C
C       0.2582   0.1318   0.2396     C
O       0.2604   0.4291   0.6117     O
O       0.2607   0.4521   0.7953     O
C       0.2915   0.3401   0.5115     C
C       0.2929   0.1719   0.1549     C
O       0.2948   0.1869   0.9303     O
O        0.296   0.4084   0.9094     O
C       0.2962    0.455   0.8456     C
O       0.3012   0.0709   0.8883     O
C       0.3114   0.0216   0.3284     C
C       0.3234   0.3616    0.569     C
N       0.3351   0.0668   0.2568     N
C       0.3386   0.5216   0.8284     C
N       0.3413   0.5668   0.7568     N
O       0.3426   0.6502   0.6168     O
C       0.3449   0.2501   0.4061     C
N       0.3641   0.2698   0.4642     N
C       0.3648   0.5414   0.8838     C
H       0.3651   0.5082    0.932     H
C       0.3704   0.6318   0.7396     C
C       0.3803   0.6719   0.6549     C
O       0.3862   0.9084   0.4094     O
O       0.3904   0.1502   0.1168     O
C       0.3905   0.6122   0.8664     C
C       0.3932   0.6576   0.7934     C
C       0.4032    0.955   0.3456     C
H       0.4058   0.6286   0.9038     H
H       0.4101   0.7052   0.7806     H
O        0.412   0.3131   0.5697     O
O       0.4231   0.7221   0.6279     O
O       0.4254   0.1561   0.2941     O
C        0.432   0.1737   0.3547     C
La     0.46042  0.82428  0.51338    La
La     0.47286  0.95002  0.82868    La
O       0.4897   0.8672   0.6258     O
O       0.4919   0.9521   0.2953     O
O       0.5081   0.0479   0.7047     O
O       0.5103   0.1328   0.3742     O
La     0.52714  0.04998  0.17132    La
La     0.53958  0.17572  0.48662    La
C        0.568   0.8263   0.6453     C
O       0.5746   0.8439   0.7059     O
O       0.5769   0.2779   0.3721     O
O        0.588   0.6869   0.4303     O
H       0.5899   0.2948   0.2194     H
H       0.5942   0.3714   0.0962     H
C       0.5968    0.045   0.6544     C
C       0.6068   0.3424   0.2066     C
C       0.6095   0.3878   0.1336     C
O       0.6096   0.8498   0.8832     O
O       0.6138   0.0916   0.5906     O
C       0.6197   0.3281   0.3451     C
C       0.6296   0.3682   0.2604     C
H       0.6349   0.4918    0.068     H
C       0.6352   0.4586   0.1162     C
N       0.6359   0.7302   0.5358     N
C       0.6551   0.7499   0.5939     C
O       0.6574   0.3498   0.3832     O
N       0.6587   0.4332   0.2432     N
C       0.6614   0.4784   0.1716     C
N       0.6649   0.9332   0.7432     N
C       0.6766   0.6384    0.431     C
C       0.6886   0.9784   0.6716     C
O       0.6988   0.9291   0.1117     O
C       0.7038    0.545   0.1544     C
O        0.704   0.5916   0.0906     O
O       0.7052   0.8131   0.0697     O
C       0.7071   0.8281   0.8451     C
C       0.7085   0.6599   0.4885     C
O       0.7393   0.5479   0.2047     O
O       0.7396   0.5709   0.3883     O
C       0.7418   0.8682   0.7604     C
C        0.746   0.8616    0.069     C
C       0.7479    0.704   0.6048     C
La     0.74844  0.45002  0.32868    La
H       0.7593   0.7205   0.6447     H
O       0.7731   0.7779   0.8721     O
C         0.79   0.9586   0.6162     C
La     0.79808  0.67572  0.98662    La
C       0.8037   0.6087   0.4959     C
H       0.8053   0.9918    0.568     H
C       0.8235   0.6328   0.5548     C
C       0.8442   0.8424   0.7066     C
H       0.8524   0.5604   0.4628     H
C       0.8569   0.8401   0.0115     C
C       0.8691   0.8878   0.6336     C
H       0.8755   0.2205   0.1447     H
O       0.8756   0.3439   0.2059     O
H       0.8756   0.9396   0.0372     H
H       0.8868   0.6014   0.5604     H
H       0.8959   0.7948   0.7194     H
N       0.9019   0.7698   0.9642     N
C       0.9083   0.8913   0.0041     C
H       0.9382   0.8714   0.5962     H
C       0.9433    0.204   0.1048     C
H       0.9514   0.1014   0.0604     H
C       0.9604   0.3263   0.1453     C
O       0.9827   0.6328   0.8742     O
C       0.9889   0.1328   0.0548     C
C       0.9989   0.7501   0.9061     C
