data_I
_chemical_name_common  '/home/zhangsd/repos/MofS-CGCNN/ML/data/TSD/clean_cifs/KEYMUY_clean'
_cell_length_a 18.62940
_cell_length_b  9.93450
_cell_length_c 14.74240
_cell_angle_alpha 90.00000
_cell_angle_beta  90.00000
_cell_angle_gamma 90.00000
_space_group_name_H-M_alt      'P 1'


loop_
_space_group_symop_operation_xyz
  'x, y, z' 

loop_
_atom_site_label
_atom_site_fract_x
_atom_site_fract_y
_atom_site_fract_z
_atom_site_type_symbol
C       0.0004   0.3486   0.3591     C
H       0.0014   0.6764   0.3559     H
C       0.0027   0.5902   0.3804     C
H       0.0048   0.7259   0.8214     H
C        0.006     0.52   0.8245     C
O        0.007     0.81   0.4948     O
C       0.0134   0.5735   0.4742     C
C       0.0147   0.3332   0.4515     C
C       0.0158   0.6968    0.533     C
O       0.0177   0.0943   0.4401     O
C       0.0205   0.4431   0.5094     C
O       0.0206   0.4923   0.7355     O
O       0.0228    0.872   0.2632     O
C       0.0249   0.1929   0.4902     C
O       0.0271   0.6865   0.6162     O
H       0.0289   0.4301   0.5709     H
Cd     0.03155  0.95931  0.60302    Cd
H       0.0391   0.4176   0.7316     H
O        0.043   0.1817   0.5709     O
Na     0.05967   0.0548   0.8757    Na
O       0.0758   0.0112   0.1655     O
C       0.0763   0.9272   0.2315     C
O       0.0976   0.9328   0.7353     O
H        0.116   0.8466   0.3943     H
C       0.1501   0.8971   0.2696     C
C       0.1547    0.909    0.694     C
C       0.1566   0.8543    0.358     C
O       0.1573   0.9058   0.6096     O
H       0.1707   0.8117   0.8618     H
H       0.2059   0.9444   0.1564     H
H       0.2103    0.824   0.5144     H
C       0.2106   0.9131   0.2156     C
C       0.2156   0.8349   0.8391     C
C       0.2214   0.8819   0.7503     C
C       0.2248    0.822   0.3937     C
O       0.2365   0.7815     0.48     O
O       0.2635   0.7815     0.98     O
C       0.2752    0.822   0.8937     C
C       0.2786   0.8819   0.2503     C
C       0.2844   0.8349   0.3391     C
C       0.2894   0.9131   0.7156     C
H       0.2897    0.824   0.0144     H
H       0.2941   0.9444   0.6564     H
H       0.3293   0.8117   0.3618     H
O       0.3427   0.9058   0.1096     O
C       0.3434   0.8543    0.858     C
C       0.3453    0.909    0.194     C
C       0.3499   0.8971   0.7696     C
H        0.384   0.8466   0.8943     H
O       0.4024   0.9328   0.2353     O
C       0.4237   0.9272   0.7315     C
O       0.4242   0.0112   0.6655     O
Na     0.44033   0.0548   0.3757    Na
O        0.457   0.1817   0.0709     O
H       0.4609   0.4176   0.2316     H
Cd     0.46845  0.95931  0.10302    Cd
H       0.4711   0.4301   0.0709     H
O       0.4729   0.6865   0.1162     O
C       0.4751   0.1929   0.9902     C
O       0.4772    0.872   0.7632     O
O       0.4794   0.4923   0.2355     O
C       0.4795   0.4431   0.0094     C
O       0.4823   0.0943   0.9401     O
C       0.4842   0.6968    0.033     C
C       0.4853   0.3332   0.9515     C
C       0.4866   0.5735   0.9742     C
O        0.493     0.81   0.9948     O
C        0.494     0.52   0.3245     C
H       0.4952   0.7259   0.3214     H
C       0.4973   0.5902   0.8804     C
H       0.4986   0.6764   0.8559     H
C       0.4996   0.3486   0.8591     C
C       0.5004   0.6514   0.3591     C
H       0.5014   0.3236   0.3559     H
C       0.5027   0.4098   0.3804     C
H       0.5048   0.2741   0.8214     H
C        0.506     0.48   0.8245     C
O        0.507     0.19   0.4948     O
C       0.5134   0.4265   0.4742     C
C       0.5147   0.6668   0.4515     C
C       0.5158   0.3032    0.533     C
O       0.5177   0.9057   0.4401     O
C       0.5205   0.5569   0.5094     C
O       0.5206   0.5077   0.7355     O
O       0.5228    0.128   0.2632     O
C       0.5249   0.8071   0.4902     C
O       0.5271   0.3135   0.6162     O
H       0.5289   0.5699   0.5709     H
Cd     0.53155  0.04069  0.60302    Cd
H       0.5391   0.5824   0.7316     H
O        0.543   0.8183   0.5709     O
Na     0.55967   0.9452   0.8757    Na
O       0.5758   0.9888   0.1655     O
C       0.5763   0.0728   0.2315     C
O       0.5976   0.0672   0.7353     O
H        0.616   0.1534   0.3943     H
C       0.6501   0.1029   0.2696     C
C       0.6547    0.091    0.694     C
C       0.6566   0.1457    0.358     C
O       0.6573   0.0942   0.6096     O
H       0.6707   0.1883   0.8618     H
H       0.7059   0.0556   0.1564     H
H       0.7103    0.176   0.5144     H
C       0.7106   0.0869   0.2156     C
C       0.7156   0.1651   0.8391     C
C       0.7214   0.1181   0.7503     C
C       0.7248    0.178   0.3937     C
O       0.7365   0.2185     0.48     O
O       0.7635   0.2185     0.98     O
C       0.7752    0.178   0.8937     C
C       0.7786   0.1181   0.2503     C
C       0.7844   0.1651   0.3391     C
C       0.7894   0.0869   0.7156     C
H       0.7897    0.176   0.0144     H
H       0.7941   0.0556   0.6564     H
H       0.8293   0.1883   0.3618     H
O       0.8427   0.0942   0.1096     O
C       0.8434   0.1457    0.858     C
C       0.8453    0.091    0.194     C
C       0.8499   0.1029   0.7696     C
H        0.884   0.1534   0.8943     H
O       0.9024   0.0672   0.2353     O
C       0.9237   0.0728   0.7315     C
O       0.9242   0.9888   0.6655     O
Na     0.94033   0.9452   0.3757    Na
O        0.957   0.8183   0.0709     O
H       0.9609   0.5824   0.2316     H
Cd     0.96845  0.04069  0.10302    Cd
H       0.9711   0.5699   0.0709     H
O       0.9729   0.3135   0.1162     O
C       0.9751   0.8071   0.9902     C
O       0.9772    0.128   0.7632     O
O       0.9794   0.5077   0.2355     O
C       0.9795   0.5569   0.0094     C
O       0.9823   0.9057   0.9401     O
C       0.9842   0.3032    0.033     C
C       0.9853   0.6668   0.9515     C
C       0.9866   0.4265   0.9742     C
O        0.993     0.19   0.9948     O
C        0.994     0.48   0.3245     C
H       0.9952   0.2741   0.3214     H
C       0.9973   0.4098   0.8804     C
H       0.9986   0.3236   0.8559     H
C       0.9996   0.6514   0.8591     C
