data_I
_chemical_name_common  '/home/zhangsd/repos/MofS-CGCNN/ML/data/TSD/clean_cifs/KIBDEF_clean'
_cell_length_a  9.11760
_cell_length_b  9.11760
_cell_length_c 14.54240
_cell_angle_alpha 79.78650
_cell_angle_beta  79.78640
_cell_angle_gamma 115.74500
_space_group_name_H-M_alt      'P 1'


loop_
_space_group_symop_operation_xyz
  'x, y, z' 

loop_
_atom_site_label
_atom_site_fract_x
_atom_site_fract_y
_atom_site_fract_z
_atom_site_type_symbol
O      0.00593  0.69193  0.57574     O
O       0.0088   0.9312   0.8308     O
Eu     0.00949  0.75949  0.98102    Eu
O       0.0688   0.9912   0.6692     O
C       0.0754   0.9246     0.75     C
C      0.12283  0.30443  0.44154     C
O      0.12415  0.16695   0.4671     O
O      0.13405  0.59125   0.0329     O
O       0.1604    0.738   0.8308     O
O      0.16695  0.12415   0.9671     O
C       0.1746   0.8254     0.75     C
H       0.1898   0.6142   0.4334     H
O      0.23233  0.41833  0.07574     O
Eu     0.24051  0.99051  0.51898    Eu
C      0.24597  0.56437  0.05846     C
O        0.262   0.8396   0.6692     O
C       0.2776     0.46   0.4366     C
C       0.2858   0.6034   0.4366     C
C      0.30443  0.12283  0.94154     C
O      0.30807  0.99407  0.92426     O
H       0.3768   0.4524   0.4334     H
H       0.3858   0.8102   0.0666     H
C       0.3966   0.7142   0.0634     C
O      0.40875  0.86595   0.4671     O
O      0.41833  0.23233  0.57574     O
C      0.43563  0.75403  0.44154     C
H       0.4524   0.3768   0.9334     H
C         0.46   0.2776   0.9366     C
C         0.54   0.7224   0.0634     C
H       0.5476   0.6232   0.0666     H
C      0.56437  0.24597  0.55846     C
O      0.58167  0.76767  0.42426     O
O      0.59125  0.13405   0.5329     O
C       0.6034   0.2858   0.9366     C
H       0.6142   0.1898   0.9334     H
H       0.6232   0.5476   0.5666     H
O      0.69193  0.00593  0.07574     O
C      0.69557  0.87717  0.05846     C
C       0.7142   0.3966   0.5634     C
C       0.7224     0.54   0.5634     C
O        0.738   0.1604   0.3308     O
C      0.75403  0.43563  0.94154     C
Eu     0.75949  0.00949  0.48102    Eu
O      0.76767  0.58167  0.92426     O
H       0.8102   0.3858   0.5666     H
C       0.8254   0.1746     0.25     C
O      0.83305  0.87585   0.0329     O
O       0.8396    0.262   0.1692     O
O      0.86595  0.40875   0.9671     O
O      0.87585  0.83305   0.5329     O
C      0.87717  0.69557  0.55846     C
C       0.9246   0.0754     0.25     C
O       0.9312   0.0088   0.3308     O
Eu     0.99051  0.24051  0.01898    Eu
O       0.9912   0.0688   0.1692     O
O      0.99407  0.30807  0.42426     O
