data_I
_chemical_name_common  '/home/zhangsd/repos/MofS-CGCNN/ML/data/TSD/clean_cifs/KIDXUR_clean'
_cell_length_a  9.70120
_cell_length_b 12.44200
_cell_length_c 17.21800
_cell_angle_alpha 89.83000
_cell_angle_beta  75.01000
_cell_angle_gamma 73.33000
_space_group_name_H-M_alt      'P 1'


loop_
_space_group_symop_operation_xyz
  'x, y, z' 

loop_
_atom_site_label
_atom_site_fract_x
_atom_site_fract_y
_atom_site_fract_z
_atom_site_type_symbol
Zn         0.0      0.0      0.0    Zn
H         0.01   0.3589   0.3964     H
O       0.0125   0.1732  0.70833     O
C       0.0253   0.3161   0.4408     C
O       0.0379   0.7458    0.123     O
Zn     0.03917  0.11316  0.80662    Zn
C       0.0503   0.7109   0.4187     C
C       0.0746   0.1945   0.5713     C
C       0.0746   0.6526   0.4845     C
O        0.086   0.8229  0.00636     O
N       0.0948   0.9845  0.15898     N
C       0.1018   0.7425   0.0489     C
C       0.1024   0.1297   0.6423     C
N       0.1067   0.0308  0.08649     N
H        0.118   0.6871   0.3669     H
C       0.1501   0.2207   0.4302     C
C       0.1701   0.0284   0.1977     C
C       0.1731   0.1597   0.4955     C
H       0.1766   0.5431   0.1109     H
H         0.18   0.0104     0.25     H
C       0.1884   0.0991   0.0864     C
N       0.2027   0.9817  0.90826     N
O       0.2064    0.044   0.6347     O
C       0.2069   0.6297   0.0104     C
H       0.2147   0.1425   0.0426     H
N       0.2211   0.0174  0.83237     N
O       0.2222   0.4728  0.54002     O
C       0.2291   0.5362   0.0555     C
N       0.2305   0.1009  0.15449     N
Na     0.23335  0.44451  0.27429    Na
S      0.24484  0.54284  0.47378     S
O       0.2472   0.2544  0.29619     O
C       0.2533   0.1817   0.3483     C
H       0.2562   0.0941   0.4884     H
H       0.2711    0.683   0.8984     H
O       0.2812   0.4828  0.39668     O
C       0.2852   0.6198   0.9298     C
O       0.2942   0.3452  0.14291     O
C       0.3285   0.4318   0.0198     C
C       0.3339   0.9118   0.9091     C
O       0.3362   0.0827   0.3345     O
C       0.3507     0.33   0.0665     C
Zn     0.35164  0.19291   0.1837    Zn
O       0.3521   0.6025    0.479     O
H       0.3532   0.8746   0.9551     H
C       0.3611   0.9671   0.7924     C
O       0.3714   0.5759  0.21699     O
C       0.3845   0.5165   0.8954     C
O         0.39   0.4595  0.75137     O
H       0.4038   0.9775   0.7378     H
C       0.4073   0.4221   0.9395     C
O       0.4198   0.2352  0.03099     O
N       0.4361   0.8993  0.83845     N
H       0.4758   0.3522   0.9149     H
S      0.48099  0.50247  0.79233     S
O       0.4842   0.6149  0.77003     O
O       0.5158   0.3851  0.22997     O
S      0.51901  0.49753  0.20767     S
H       0.5242   0.6478   0.0851     H
N       0.5639   0.1007  0.16155     N
O       0.5802   0.7648  0.96901     O
C       0.5927   0.5779   0.0605     C
H       0.5962   0.0225   0.2622     H
O         0.61   0.5405  0.24863     O
C       0.6155   0.4835   0.1046     C
O       0.6286   0.4241  0.78301     O
C       0.6389   0.0329   0.2076     C
H       0.6468   0.1254   0.0449     H
O       0.6479   0.3975    0.521     O
Zn     0.64836  0.80709   0.8163    Zn
C       0.6493     0.67   0.9335     C
O       0.6638   0.9173   0.6655     O
C       0.6661   0.0882   0.0909     C
C       0.6715   0.5682   0.9802     C
O       0.7058   0.6548  0.85709     O
C       0.7148   0.3802   0.0702     C
O       0.7188   0.5172  0.60332     O
H       0.7289    0.317   0.1016     H
H       0.7438   0.9059   0.5116     H
C       0.7467   0.8183   0.6517     C
O       0.7528   0.7456  0.70381     O
S      0.75516  0.45716  0.52622     S
Na     0.76665  0.55549  0.72571    Na
N       0.7695   0.8991  0.84551     N
C       0.7709   0.4638   0.9445     C
O       0.7778   0.5272  0.45998     O
N       0.7789   0.9826  0.16763     N
H       0.7853   0.8575   0.9574     H
C       0.7931   0.3703   0.9896     C
O       0.7936    0.956   0.3653     O
N       0.7973   0.0183  0.09174     N
C       0.8116   0.9009   0.9136     C
H         0.82   0.9896     0.75     H
H       0.8234   0.4569   0.8891     H
C       0.8269   0.8403   0.5045     C
C       0.8299   0.9716   0.8023     C
C       0.8499   0.7793   0.5698     C
H        0.882   0.3129   0.6331     H
N       0.8933   0.9692  0.91351     N
C       0.8976   0.8703   0.3577     C
C       0.8982   0.2575   0.9511     C
N       0.9052   0.0155  0.84102     N
O        0.914   0.1771  0.99364     O
C       0.9254   0.3474   0.5155     C
C       0.9254   0.8055   0.4287     C
C       0.9497   0.2891   0.5813     C
Zn     0.96083  0.88684  0.19338    Zn
O       0.9621   0.2542    0.877     O
C       0.9747   0.6839   0.5592     C
O       0.9875   0.8268  0.29167     O
H         0.99   0.6411   0.6036     H
