data_I
_chemical_name_common  '/home/zhangsd/repos/MofS-CGCNN/ML/data/TSD/clean_cifs/KIJRUS_clean'
_cell_length_a 18.13990
_cell_length_b 21.90420
_cell_length_c 21.90420
_cell_angle_alpha 80.12740
_cell_angle_beta  65.53900
_cell_angle_gamma 65.53890
_space_group_name_H-M_alt      'P 1'


loop_
_space_group_symop_operation_xyz
  'x, y, z' 

loop_
_atom_site_label
_atom_site_fract_x
_atom_site_fract_y
_atom_site_fract_z
_atom_site_type_symbol
C      0.00245  0.00824  0.73746     C
C      0.00245  0.73746  0.00824     C
C      0.00745  0.72345  0.94705     C
C      0.00745  0.94705  0.72345     C
H       0.0105   0.4865   0.8597     H
H       0.0105   0.8597   0.4865     H
H       0.0196   0.3852   0.8344     H
H       0.0196   0.8344   0.3852     H
H       0.0373   0.0092   0.7584     H
H       0.0373   0.7584   0.0092     H
H        0.038   0.1063   0.3187     H
H        0.038   0.3187   0.1063     H
C      0.03954  0.06623  0.30849     C
C      0.03954  0.30849  0.06623     C
C       0.0455  0.27655  0.94705     C
C       0.0455  0.94705  0.27655     C
H       0.0461   0.7341   0.9073     H
H       0.0461   0.9073   0.7341     H
H       0.0466   0.2659   0.9073     H
H       0.0466   0.9073   0.2659     H
C      0.06993  0.22805  0.64589     C
C      0.06993  0.64589  0.22805     C
H       0.0801   0.2716    0.522     H
H       0.0801    0.522   0.2716     H
O      0.08631   0.2045  0.69686     O
O      0.08631  0.69686   0.2045     O
C      0.09627   0.0059  0.32336     C
C      0.09627  0.32336   0.0059     C
C      0.10102  0.30719  0.94577     C
C      0.10102  0.94577  0.30719     C
H       0.1298   0.5135   0.8597     H
H       0.1298   0.8597   0.5135     H
H       0.1316   0.0058   0.3444     H
H       0.1316   0.3444   0.0058     H
C      0.13618  0.24584    0.521     C
C      0.13618    0.521  0.24584     C
H        0.146   0.6148   0.8344     H
H        0.146   0.8344   0.6148     H
C      0.14739  0.21853  0.57929     C
C      0.14739  0.57929  0.21853     C
H       0.1516   0.4115   0.9061     H
H       0.1516   0.9061   0.4115     H
C      0.16332  0.32211  0.87905     C
C      0.16332  0.87905  0.32211     C
C      0.17994  0.38101  0.87111     C
C      0.17994  0.87111  0.38101     C
C      0.18387  0.51493  0.83093     C
C      0.18387  0.83093  0.51493     C
C      0.19469  0.57551  0.81771     C
C      0.19469  0.81771  0.57551     C
H       0.1982   0.2543   0.4221     H
H       0.1982   0.4221   0.2543     H
H       0.2005   0.2352   0.8352     H
H       0.2005   0.8352   0.2352     H
H       0.2043   0.7584   0.9908     H
H       0.2043   0.9908   0.7584     H
C       0.2072  0.23532  0.46108     C
C       0.2072  0.46108  0.23532     C
C       0.2106  0.27459  0.82841     C
C       0.2106  0.82841  0.27459     C
O      0.21683  0.69686   0.7955     O
O      0.21683   0.7955  0.69686     O
Cu     0.21871  0.78621  0.78621    Cu
H       0.2198   0.0927   0.7341     H
H       0.2198   0.7341   0.0927     H
C       0.2298  0.18229  0.57551     C
C       0.2298  0.57551  0.18229     C
C      0.23913  0.39267  0.81027     C
C      0.23913  0.81027  0.39267     C
H       0.2392   0.1656   0.6148     H
H       0.2392   0.6148   0.1656     H
O      0.24351  0.76829  0.86811     O
O      0.24351  0.86811  0.76829     O
C      0.25238  0.45724    0.802     C
C      0.25238    0.802  0.45724     C
C      0.26009  0.73746  0.99176     C
C      0.26009  0.99176  0.73746     C
C       0.2691  0.05295  0.72345     C
C       0.2691  0.72345  0.05295     C
H       0.2709   0.1648   0.7648     H
H       0.2709   0.7648   0.1648     H
C      0.27285  0.28387  0.76763     C
C      0.27285  0.76763  0.28387     C
C      0.27332  0.57929  0.78147     C
C      0.27332  0.78147  0.57929     C
C      0.28418  0.64589  0.77195     C
C      0.28418  0.77195  0.64589     C
C      0.28442   0.3456  0.76096     C
C      0.28442  0.76096   0.3456     C
C      0.29038    0.198  0.45724     C
C      0.29038  0.45724    0.198     C
C       0.3012  0.16907  0.51493     C
C       0.3012  0.51493  0.16907     C
C       0.3136  0.17159  0.72541     C
C       0.3136  0.72541  0.17159     C
C      0.31915  0.73641  0.86649     C
C      0.31915  0.86649  0.73641     C
H       0.3211    0.279    0.354     H
H       0.3211    0.354    0.279     H
C      0.32435  0.23237  0.71613     C
C      0.32435  0.71613  0.23237     C
H       0.3249    0.354    0.721     H
H       0.3249    0.721    0.354     H
C       0.3314  0.72119  0.93261     C
C       0.3314  0.93261  0.72119     C
C      0.33172  0.46108  0.76468     C
C      0.33172  0.76468  0.46108     C
C      0.34282    0.521  0.75416     C
C      0.34282  0.75416    0.521     C
C      0.35398  0.05423  0.69281     C
C      0.35398  0.69281  0.05423     C
H       0.3567   0.1403   0.5135     H
H       0.3567   0.5135   0.1403     H
O      0.36172  0.64378   0.7404     O
O      0.36172   0.7404  0.64378     O
C      0.36448  0.12095  0.67789     C
C      0.36448  0.67789  0.12095     C
C       0.3682  0.18973  0.39267     C
C       0.3682  0.39267  0.18973     C
C      0.36998  0.23904   0.3456     C
C      0.36998   0.3456  0.23904     C
H       0.3797   0.4221   0.7457     H
H       0.3797   0.7457   0.4221     H
Cu       0.389  0.72381  0.72381    Cu
O      0.39027  0.71521  0.81403     O
O      0.39027  0.81403  0.71521     O
C      0.39098  0.23904   0.6544     C
C      0.39098   0.6544  0.23904     C
H       0.3979    0.522   0.7284     H
H       0.3979   0.7284    0.522     H
H       0.3999    0.279    0.646     H
H       0.3999    0.646    0.279     H
C      0.41426  0.69151  0.93377     C
C      0.41426  0.93377  0.69151     C
C      0.42553  0.67664   0.9941     C
C      0.42553   0.9941  0.67664     C
C      0.43206  0.12889  0.61899     C
C      0.43206  0.61899  0.12889     C
H       0.4369   0.0939   0.4115     H
H       0.4369   0.4115   0.0939     H
C      0.43905  0.12889  0.38101     C
C      0.43905  0.38101  0.12889     C
C      0.44207  0.18973  0.60733     C
C      0.44207  0.60733  0.18973     C
C      0.44328  0.23237  0.28387     C
C      0.44328  0.28387  0.23237     C
H        0.463   0.6813   0.8937     H
H        0.463   0.8937   0.6813     H
H       0.4692   0.0939   0.5885     H
H       0.4692   0.5885   0.0939     H
H       0.4818   0.6556   0.9942     H
H       0.4818   0.9942   0.6556     H
H        0.503   0.1403   0.4865     H
H        0.503   0.4865   0.1403     H
C      0.51162    0.198  0.54276     C
C      0.51162  0.54276    0.198     C
C      0.51457  0.12095  0.32211     C
C      0.51457  0.32211  0.12095     C
C      0.51481  0.17159  0.27459     C
C      0.51481  0.27459  0.17159     C
H        0.524   0.3444   0.9942     H
H        0.524   0.9942   0.3444     H
C      0.52973  0.16907  0.48507     C
C      0.52973  0.48507  0.16907     C
H       0.5475   0.2543   0.5779     H
H       0.5475   0.5779   0.2543     H
C      0.55748  0.23532  0.53892     C
C      0.55748  0.53892  0.23532     C
H       0.5643   0.1648   0.2352     H
H       0.5643   0.2352   0.1648     H
C      0.58037  0.32336   0.9941     C
C      0.58037   0.9941  0.32336     C
C      0.58791  0.18229  0.42449     C
C      0.58791  0.42449  0.18229     C
C      0.59179  0.05423  0.30719     C
C      0.59179  0.30719  0.05423     C
H       0.5952   0.1656   0.3852     H
H       0.5952   0.3852   0.1656     H
C      0.61798  0.24584    0.479     C
C      0.61798    0.479  0.24584     C
C      0.63408  0.21853  0.42071     C
C      0.63408  0.42071  0.21853     C
H       0.6433   0.3187   0.8937     H
H       0.6433   0.8937   0.3187     H
H       0.6483   0.2716    0.478     H
H       0.6483    0.478   0.2716     H
C      0.65197  0.30849  0.93377     C
C      0.65197  0.93377  0.30849     C
C      0.67795  0.05295  0.27655     C
C      0.67795  0.27655  0.05295     C
H       0.6875   0.0927   0.2659     H
H       0.6875   0.2659   0.0927     H
C      0.70202  0.22805  0.35411     C
C      0.70202  0.35411  0.22805     C
O      0.70919   0.2045  0.30314     O
O      0.70919  0.30314   0.2045     O
C      0.73599  0.27881  0.93261     C
C      0.73599  0.93261  0.27881     C
O       0.7459   0.2596  0.35622     O
O       0.7459  0.35622   0.2596     O
C      0.74815  0.26254  0.99176     C
C      0.74815  0.99176  0.26254     C
Cu     0.79113  0.21379  0.21379    Cu
O       0.7957  0.28479  0.81403     O
O       0.7957  0.81403  0.28479     O
H       0.8049   0.2416   0.9908     H
H       0.8049   0.9908   0.2416     H
C      0.81436  0.26359  0.86649     C
C      0.81436  0.86649  0.26359     C
Cu     0.83662  0.27619  0.27619    Cu
H       0.8557   0.1063   0.6813     H
H       0.8557   0.6813   0.1063     H
H       0.8626   0.0058   0.6556     H
H       0.8626   0.6556   0.0058     H
H       0.8737    0.478   0.7284     H
H       0.8737   0.7284    0.478     H
H       0.8746   0.5779   0.7457     H
H       0.8746   0.7457   0.5779     H
O      0.87991  0.13189  0.23171     O
O      0.87991  0.23171  0.13189     O
Cu     0.88719  0.27619  0.72381    Cu
Cu     0.88719  0.72381  0.27619    Cu
O      0.88838  0.23171  0.86811     O
O      0.88838  0.86811  0.23171     O
C      0.89423  0.06623  0.69151     C
C      0.89423  0.69151  0.06623     C
O      0.89452  0.18597  0.71521     O
O      0.89452  0.71521  0.18597     O
C      0.89783   0.0059  0.67664     C
C      0.89783  0.67664   0.0059     C
O      0.89788  0.35622   0.7404     O
O      0.89788   0.7404  0.35622     O
C      0.90302    0.479  0.75416     C
C      0.90302  0.75416    0.479     C
C       0.9036  0.53892  0.76468     C
C       0.9036  0.76468  0.53892     C
O      0.91951  0.18597  0.28479     O
O      0.91951  0.28479  0.18597     O
C      0.92205  0.13351  0.26359     C
C      0.92205  0.26359  0.13351     C
H       0.9423   0.5885   0.9061     H
H       0.9423   0.9061   0.5885     H
C      0.94387  0.35411  0.77195     C
C      0.94387  0.77195  0.35411     C
C      0.94444  0.13351  0.73641     C
C      0.94444  0.73641  0.13351     C
C      0.94521  0.42071  0.78147     C
C      0.94521  0.78147  0.42071     C
C      0.94562  0.54276    0.802     C
C      0.94562    0.802  0.54276     C
C      0.94741  0.06739  0.72119     C
C      0.94741  0.72119  0.06739     C
C      0.94895  0.61899  0.87111     C
C      0.94895  0.87111  0.61899     C
C       0.9506  0.60733  0.81027     C
C       0.9506  0.81027  0.60733     C
C      0.95321  0.69281  0.94577     C
C      0.95321  0.94577  0.69281     C
H       0.9535   0.0092   0.2416     H
H       0.9535   0.2416   0.0092     H
H       0.9541    0.646    0.721     H
H       0.9541    0.721    0.646     H
C      0.95462   0.6544  0.76096     C
C      0.95462  0.76096   0.6544     C
C      0.95763  0.67789  0.87905     C
C      0.95763  0.87905  0.67789     C
C      0.95952  0.71613  0.76763     C
C      0.95952  0.76763  0.71613     C
C      0.96099  0.72541  0.82841     C
C      0.96099  0.82841  0.72541     C
H       0.9643   0.7648   0.8352     H
H       0.9643   0.8352   0.7648     H
C       0.9852  0.06739  0.27881     C
C       0.9852  0.27881  0.06739     C
C       0.9852  0.48507  0.83093     C
C       0.9852  0.83093  0.48507     C
C       0.9876  0.42449  0.81771     C
C       0.9876  0.81771  0.42449     C
O      0.98767  0.30314   0.7955     O
O      0.98767   0.7955  0.30314     O
O       0.9882  0.13189  0.76829     O
O       0.9882  0.76829  0.13189     O
C      0.98931  0.00824  0.26254     C
C      0.98931  0.26254  0.00824     C
O       0.9945   0.2596  0.64378     O
O       0.9945  0.64378   0.2596     O
Cu     0.99508  0.21379  0.78621    Cu
Cu     0.99508  0.78621  0.21379    Cu
