data_I
_chemical_name_common  '/home/zhangsd/repos/MofS-CGCNN/ML/data/TSD/clean_cifs/KINFEU_clean'
_cell_length_a 10.86390
_cell_length_b 18.66700
_cell_length_c 19.84000
_cell_angle_alpha 98.03500
_cell_angle_beta  96.53500
_cell_angle_gamma 106.18500
_space_group_name_H-M_alt      'P 1'


loop_
_space_group_symop_operation_xyz
  'x, y, z' 

loop_
_atom_site_label
_atom_site_fract_x
_atom_site_fract_y
_atom_site_fract_z
_atom_site_type_symbol
O       0.0008   0.9346   0.7911     O
C       0.0014   0.4462   0.4447     C
C       0.0025   0.2204   0.5292     C
H       0.0034   0.4098   0.4081     H
C       0.0143    0.291   0.2416     C
C       0.0151   0.1729   0.5759     C
C       0.0193   0.5836    0.217     C
O       0.0228   0.7789   0.7649     O
C       0.0237   0.0097   0.2294     C
O       0.0262   0.4848    0.791     O
H       0.0278   0.2727   0.5436     H
C        0.038   0.9048   0.4442     C
H       0.0401   0.9365   0.4118     H
O       0.0417   0.3701   0.7685     O
C        0.048   0.8111   0.5389     C
H       0.0531   0.7798   0.5711     H
C       0.0537   0.4983   0.5657     C
C       0.0552   0.4456   0.5125     C
O       0.0572   0.6671   0.7527     O
O       0.0584    0.043   0.7538     O
C       0.0858   0.9336   0.5097     C
C       0.0863   0.2062   0.6494     C
C        0.091   0.8888   0.5595     C
H       0.0926   0.4078   0.5207     H
O       0.1087   0.2756    0.667     O
C       0.1101   0.4963   0.6387     C
O       0.1165   0.1619   0.6853     O
H       0.1172   0.9861    0.523     H
O       0.1274   0.5546   0.6831     O
O       0.1285   0.8787   0.6784     O
O       0.1309   0.4355   0.6481     O
H       0.1314   0.9088   0.2718     H
C       0.1361   0.9218   0.6347     C
C       0.1568   0.6151   0.2065     C
C        0.157   0.3277    0.247     C
C       0.1592   0.0051   0.2332     C
H       0.1602   0.7264   0.2163     H
H       0.1638   0.4306   0.2974     H
Tm     0.17254  0.59916  0.79775    Tm
Tm     0.17663  0.89198  0.79485    Tm
O       0.1832   0.9928   0.6509     O
C       0.1938   0.9465   0.2576     C
H       0.1982   0.2364   0.1978     H
H       0.2004   0.5183   0.1963     H
C       0.2123   0.6946    0.212     C
C       0.2135   0.4024    0.278     C
C       0.2355   0.2869   0.2189     C
C       0.2358   0.5706   0.2015     C
H       0.2361   0.1013   0.1957     H
Tm     0.23634  0.38973  0.72845    Tm
Tm     0.24913  0.10152  0.72591    Tm
C       0.2563   0.0615   0.2132     C
O        0.266   0.0005   0.8725     O
O       0.2708   0.5637    0.891     O
O       0.2858   0.4569   0.8367     O
O       0.2861   0.1103    0.841     O
O       0.2969    0.713   0.8534     O
O       0.3064   0.8249   0.8283     O
C       0.3106   0.0704   0.8838     C
C       0.3151    0.943   0.2611     C
C       0.3156    0.509   0.8855     C
H        0.335   0.9017   0.2755     H
C       0.3382    0.784   0.8654     C
C        0.344   0.7249   0.2111     C
C       0.3444   0.4348     0.28     C
O       0.3637   0.3308   0.7796     O
C       0.3649   0.3196   0.2218     C
O       0.3681   0.9475   0.7606     O
C       0.3701   0.6017    0.204     C
O       0.3703   0.6039   0.7686     O
H       0.3786   0.7763   0.2105     H
C       0.3796   0.0576   0.2196     C
H         0.38   0.0161   0.9891     H
H       0.3829   0.4851   0.3013     H
O       0.3888   0.2195   0.7686     O
C        0.391   0.1107   0.9488     C
O       0.3983   0.4946   0.7241     O
C       0.4101   0.5048   0.9456     C
C       0.4122   0.9999   0.2438     C
H       0.4158   0.2913   0.2041     H
C       0.4192   0.0683   0.9975     C
C       0.4202   0.3944   0.2509     C
H        0.423   0.5702    0.201     H
C       0.4231   0.6792    0.211     C
H       0.4244    0.604   0.0034     H
O         0.43   0.0625   0.7378     O
C       0.4319   0.2874   0.7778     C
H       0.4322   0.4035   0.9058     H
H       0.4333   0.7277   0.9684     H
C       0.4339   0.5629    0.744     C
C       0.4358    0.821    0.929     C
H       0.4378   0.2147   0.9265     H
H       0.4438   0.0956    0.207     H
C       0.4485   0.0034   0.7509     C
C       0.4508    0.186   0.9598     C
C        0.454   0.5617   0.0018     C
C       0.4591   0.4424    0.944     C
C       0.4679   0.7803   0.9778     C
H       0.4786   0.9268   0.9098     H
C       0.4955   0.8975    0.942     C
C       0.5045   0.1025    0.058     C
H       0.5214   0.0732   0.0902     H
C       0.5321   0.2197   0.0222     C
C       0.5409   0.5576    0.056     C
C        0.546   0.4383   0.9982     C
C       0.5492    0.814   0.0402     C
C       0.5515   0.9966   0.2491     C
H       0.5562   0.9044    0.793     H
H       0.5622   0.7853   0.0735     H
C       0.5642    0.179    0.071     C
C       0.5661   0.4371    0.256     C
H       0.5667   0.2723   0.0316     H
H       0.5678   0.5965   0.0942     H
C       0.5681   0.7126   0.2222     C
O         0.57   0.9375   0.2622     O
H       0.5756    0.396   0.9966     H
C       0.5769   0.3208    0.789     C
H        0.577   0.4298    0.799     H
C       0.5798   0.6056   0.7491     C
C       0.5808   0.9317   0.0025     C
H       0.5842   0.7087   0.7959     H
C       0.5878   0.0001   0.7562     C
C       0.5899   0.4952   0.0544     C
O       0.6017   0.5054   0.2759     O
C        0.609   0.8893   0.0512     C
O       0.6112   0.7805   0.2314     O
H       0.6171   0.5149   0.6987     H
H         0.62   0.9839   0.0109     H
C       0.6204   0.9424   0.7804     C
H       0.6214   0.2237   0.7895     H
O       0.6297   0.3961   0.2314     O
C       0.6299   0.3983    0.796     C
O       0.6319   0.0525   0.2394     O
C       0.6351   0.6804   0.7782     C
O       0.6363   0.6692   0.2204     O
C       0.6556   0.5652     0.72     C
C        0.656   0.2751   0.7889     C
C       0.6618    0.216   0.1346     C
H        0.665   0.0983   0.7245     H
C       0.6844    0.491   0.1145     C
C       0.6849    0.057   0.7389     C
C       0.6894   0.9296   0.1162     C
O       0.6936   0.1751   0.1717     O
O       0.7031    0.287   0.1466     O
O       0.7139   0.8897    0.159     O
O       0.7142   0.5431   0.1633     O
O       0.7292   0.4363    0.109     O
O        0.734   0.9995   0.1275     O
C       0.7437   0.9385   0.7868     C
Tm     0.75087  0.89848  0.27409    Tm
Tm     0.76366  0.61027  0.27155    Tm
H       0.7639   0.8987   0.8043     H
C       0.7642   0.4294   0.7985     C
C       0.7645   0.7131   0.7811     C
C       0.7865   0.5976    0.722     C
C       0.7877   0.3054    0.788     C
H       0.7996   0.4817   0.8037     H
H       0.8018   0.7636   0.8022     H
C       0.8062   0.0535   0.7424     C
O       0.8168   0.0072   0.3491     O
Tm     0.82337  0.10802  0.20515    Tm
Tm     0.82746  0.40084  0.20225    Tm
H       0.8362   0.5694   0.7026     H
H       0.8398   0.2736   0.7837     H
C       0.8408   0.9949   0.7668     C
C        0.843   0.6723    0.753     C
C       0.8432   0.3849   0.7935     C
C       0.8639   0.0782   0.3653     C
H       0.8686   0.0912   0.7282     H
O       0.8691   0.5645   0.3519     O
O       0.8715   0.1213   0.3216     O
O       0.8726   0.4454   0.3169     O
H       0.8828   0.0139    0.477     H
O       0.8835   0.8381   0.3147     O
C       0.8899   0.5037   0.3613     C
O       0.8913   0.7244    0.333     O
H       0.9074   0.5922   0.4793     H
C        0.909   0.1112   0.4405     C
C       0.9137   0.7938   0.3506     C
C       0.9142   0.0664   0.4903     C
O       0.9416    0.957   0.2462     O
O       0.9428   0.3329   0.2473     O
C       0.9448   0.5544   0.4875     C
C       0.9463   0.5017   0.4343     C
H       0.9469   0.2202   0.4289     H
C        0.952   0.1889   0.4611     C
O       0.9583   0.6299   0.2315     O
H       0.9599   0.0635   0.5882     H
C        0.962   0.0952   0.5558     C
H       0.9722   0.7273   0.4564     H
O       0.9738   0.5152    0.209     O
C       0.9763   0.9903   0.7706     C
O       0.9772   0.2211   0.2351     O
C       0.9807   0.4164    0.783     C
C       0.9849   0.8271   0.4241     C
C       0.9857    0.709   0.7584     C
H       0.9966   0.5902   0.5919     H
C       0.9975   0.7796   0.4708     C
C       0.9986   0.5538   0.5553     C
O       0.9992   0.0654   0.2089     O
