data_I
_chemical_name_common  '/home/zhangsd/repos/MofS-CGCNN/ML/data/TSD/clean_cifs/KIRKAZ_clean'
_cell_length_a 13.43740
_cell_length_b 13.66450
_cell_length_c 16.62770
_cell_angle_alpha 90.00000
_cell_angle_beta  90.00000
_cell_angle_gamma 95.37900
_space_group_name_H-M_alt      'P 1'


loop_
_space_group_symop_operation_xyz
  'x, y, z' 

loop_
_atom_site_label
_atom_site_fract_x
_atom_site_fract_y
_atom_site_fract_z
_atom_site_type_symbol
N      0.00347  0.07248  0.73084     N
O      0.00436  0.28478  0.17254     O
C       0.0081   0.0751   0.8126     C
C      0.01061  0.32531  0.03337     C
H       0.0132   0.6214   0.6829     H
C       0.0227   0.2198   0.4028     C
C       0.0237   0.0164  0.16234     C
C       0.0254   0.1543   0.6749     C
O       0.0261  0.15915  0.45843     O
H       0.0281   0.0363   0.1089     H
H       0.0282   0.3341   0.6205     H
H       0.0289    0.129   0.8446     H
C       0.0314   0.0188  0.29024     C
H       0.0359   0.1283   0.6216     H
C       0.0361   0.6859   0.3618     C
C      0.03904  0.38742  0.89818     C
H       0.0421   0.0395   0.3431     H
C       0.0481  0.27725  0.10663     C
N      0.04873  0.07582  0.22702     N
H       0.0506   0.5302    0.788     H
C        0.055   0.5774  0.09964     C
C       0.0567   0.7782  0.32892     C
C       0.0667  0.72164  0.60061     C
C       0.0684  0.64001  0.65075     C
C       0.0702  0.33771  0.96527     C
H       0.0784   0.5463   0.1447     H
C       0.0811   0.6364  0.96525     C
H        0.087   0.1918   0.6913     H
O       0.0903  0.23485  0.35015     O
H        0.095   0.5614   0.3912     H
C       0.0966  0.48552  0.77607     C
C      0.10432  0.40543  0.82668     C
C       0.1098   0.6234   0.3686     C
C        0.114   0.5881  0.03163     C
H       0.1207   0.6432   0.9194     H
O      0.12612  0.23162   0.1025     O
Co     0.12712  0.21861  0.23265    Co
H        0.132   0.3123   0.9645     H
H       0.1475   0.8014   0.5176     H
C       0.1484   0.7481  0.55223     C
H       0.1492   0.8831   0.8372     H
C       0.1511  0.58573  0.65368     C
C       0.1529   0.8063   0.3042     C
C      0.15598  0.50008   0.7083     C
H       0.1682   0.8688   0.2829     H
H       0.1759   0.5628   0.0306     H
C      0.17836  0.34457  0.80847     C
H        0.187   0.2924   0.8429     H
H       0.1966   0.9371    0.678     H
C       0.2059   0.6517   0.3423     C
N       0.2078   0.3592  0.23866     N
H       0.2088   0.7367   0.7927     H
H       0.2092   0.3873   0.3564     H
H       0.2108   0.9182   0.1065     H
H        0.213   0.9458   0.9012     H
H        0.214   0.7853    0.023     H
C        0.214   0.9184   0.8475     C
C       0.2228   0.9916   0.7071     C
C       0.2238  0.43077  0.69414     C
C       0.2246   0.4107   0.3049     C
C       0.2268   0.7433   0.3104     C
C       0.2309   0.6958   0.5552     C
C       0.2326   0.6161  0.60508     C
N      0.23286  0.99817  0.78853     N
N      0.23778  0.35688   0.7442     N
H       0.2386   0.0637   0.1471     H
H       0.2401    0.404   0.1229     H
C       0.2416   0.4206  0.17713     C
C       0.2584   0.0794  0.67713     C
H       0.2599    0.096   0.6229     H
H       0.2614   0.4363   0.6471     H
N      0.26222  0.14312   0.2442     N
N      0.26714  0.50183  0.28853     N
C       0.2674   0.8839  0.10508     C
C       0.2691   0.8042   0.0552     C
C       0.2732   0.7567   0.8104     C
C       0.2754   0.0893   0.8049     C
C       0.2762  0.06923  0.19414     C
C       0.2772   0.5084   0.2071     C
C        0.286   0.5816   0.3475     C
H        0.286   0.7147    0.523     H
H        0.287   0.5542   0.4012     H
H       0.2892   0.5818   0.6065     H
H       0.2908   0.1127   0.8564     H
H       0.2912   0.7633   0.2927     H
N       0.2922   0.1408  0.73866     N
C       0.2941   0.8483   0.8423     C
H       0.3034   0.5629    0.178     H
H        0.313   0.2076   0.3429     H
C      0.32164  0.15543  0.30847     C
H       0.3241   0.9372   0.5306     H
H       0.3318   0.6312   0.7829     H
C      0.34402  0.99992   0.2083     C
C       0.3471   0.6937   0.8042     C
C       0.3489  0.91427  0.15368     C
H       0.3508   0.6169   0.3372     H
C       0.3516   0.7519  0.05223     C
H       0.3525   0.6986   0.0176     H
H        0.368   0.1877   0.4645     H
Co     0.37288  0.28139  0.73265    Co
O      0.37388  0.26838   0.6025     O
H       0.3793   0.8568   0.4194     H
C        0.386   0.9119  0.53163     C
C       0.3902   0.8766   0.8686     C
C      0.39568  0.09457  0.32668     C
C       0.4034  0.01448  0.27607     C
H        0.405   0.9386   0.8912     H
O       0.4097  0.26515  0.85015     O
H        0.413   0.3082   0.1913     H
C       0.4189   0.8636  0.46525     C
H       0.4216   0.9537   0.6447     H
C       0.4298  0.16229  0.46527     C
C       0.4316  0.85999  0.15075     C
C       0.4333  0.77836  0.10061     C
C       0.4433   0.7218  0.82892     C
C        0.445   0.9226  0.59964     C
H       0.4494   0.9698    0.288     H
N      0.45127  0.42418  0.72702     N
C       0.4519  0.22275  0.60663     C
H       0.4579   0.4605   0.8431     H
C      0.46096  0.11258  0.39818     C
C       0.4639   0.8141   0.8618     C
H       0.4641   0.3717   0.1216     H
C       0.4686   0.4812  0.79024     C
H       0.4711    0.371   0.3446     H
H       0.4718   0.1659   0.1205     H
H       0.4719   0.4637   0.6089     H
O       0.4739  0.34085  0.95843     O
C       0.4746   0.3457   0.1749     C
C       0.4763   0.4836  0.66234     C
C       0.4773   0.2802   0.9028     C
H       0.4868   0.8786   0.1829     H
C      0.48939  0.17469  0.53337     C
C       0.4919   0.4249   0.3126     C
O      0.49564  0.21522  0.67254     O
N      0.49653  0.42752  0.23084     N
N      0.50347  0.57248  0.76916     N
O      0.50436  0.78478  0.32746     O
C       0.5081   0.5751   0.6874     C
C      0.51061  0.82531  0.46663     C
H       0.5132   0.1214   0.8171     H
C       0.5227   0.7198   0.0972     C
C       0.5237   0.5164  0.33766     C
C       0.5254   0.6543   0.8251     C
O       0.5261  0.65915  0.04157     O
H       0.5281   0.5363   0.3911     H
H       0.5282   0.8341   0.8795     H
H       0.5289    0.629   0.6554     H
C       0.5314   0.5188  0.20976     C
H       0.5359   0.6283   0.8784     H
C       0.5361   0.1859   0.1382     C
C      0.53904  0.88742  0.60182     C
H       0.5421   0.5395   0.1569     H
C       0.5481  0.77725  0.39337     C
N      0.54873  0.57582  0.27298     N
H       0.5506   0.0302    0.712     H
C        0.555   0.0774  0.40036     C
C       0.5567   0.2782  0.17108     C
C       0.5667  0.22164  0.89939     C
C       0.5684  0.14001  0.84925     C
C       0.5702  0.83771  0.53473     C
H       0.5784   0.0463   0.3553     H
C       0.5811   0.1364  0.53475     C
H        0.587   0.6918   0.8087     H
O       0.5903  0.73485  0.14985     O
H        0.595   0.0614   0.1088     H
C       0.5966  0.98552  0.72393     C
C      0.60432  0.90543  0.67332     C
C       0.6098   0.1234   0.1314     C
C        0.614   0.0881  0.46837     C
H       0.6207   0.1432   0.5806     H
O      0.62612  0.73162   0.3975     O
Co     0.62712  0.71861  0.26735    Co
H        0.632   0.8123   0.5355     H
H       0.6475   0.3014   0.9824     H
C       0.6484   0.2481  0.94777     C
H       0.6492   0.3831   0.6628     H
C       0.6511  0.08573  0.84632     C
C       0.6529   0.3063   0.1958     C
C      0.65598    8e-05   0.7917     C
H       0.6682   0.3688   0.2171     H
H       0.6759   0.0628   0.4694     H
C      0.67836  0.84457  0.69153     C
H        0.687   0.7924   0.6571     H
H       0.6966   0.4371    0.822     H
C       0.7059   0.1517   0.1577     C
N       0.7078   0.8592  0.26134     N
H       0.7088   0.2367   0.7073     H
H       0.7092   0.8873   0.1436     H
H       0.7108   0.4182   0.3935     H
H        0.713   0.4458   0.5988     H
H        0.714   0.2853    0.477     H
C        0.714   0.4184   0.6525     C
C       0.7228   0.4916   0.7929     C
C       0.7238  0.93077  0.80586     C
C       0.7246   0.9107   0.1951     C
C       0.7268   0.2433   0.1896     C
C       0.7309   0.1958   0.9448     C
C       0.7326   0.1161  0.89492     C
N      0.73286  0.49817  0.71147     N
N      0.73778  0.85688   0.7558     N
H       0.7386   0.5637   0.3529     H
H       0.7401    0.904   0.3771     H
C       0.7416   0.9206  0.32287     C
C       0.7584   0.5794  0.82287     C
H       0.7599    0.596   0.8771     H
H       0.7614   0.9363   0.8529     H
N      0.76222  0.64312   0.2558     N
N      0.76714  0.00183  0.21147     N
C       0.7674   0.3839  0.39492     C
C       0.7691   0.3042   0.4448     C
C       0.7732   0.2567   0.6896     C
C       0.7754   0.5893   0.6951     C
C       0.7762  0.56923  0.30586     C
C       0.7772   0.0084   0.2929     C
C        0.786   0.0816   0.1525     C
H        0.786   0.2147    0.977     H
H        0.787   0.0542   0.0988     H
H       0.7892   0.0818   0.8935     H
H       0.7908   0.6127   0.6436     H
H       0.7912   0.2633   0.2073     H
N       0.7922   0.6408  0.76134     N
C       0.7941   0.3483   0.6577     C
H       0.8034   0.0629    0.322     H
H        0.813   0.7076   0.1571     H
C      0.82164  0.65543  0.19153     C
H       0.8241   0.4372   0.9694     H
H       0.8318   0.1312   0.7171     H
C      0.84402  0.49992   0.2917     C
C       0.8471   0.1937   0.6958     C
C       0.8489  0.41427  0.34632     C
H       0.8508   0.1169   0.1628     H
C       0.8516   0.2519  0.44777     C
H       0.8525   0.1986   0.4824     H
H        0.868   0.6877   0.0355     H
Co     0.87288  0.78139  0.76735    Co
O      0.87388  0.76838   0.8975     O
H       0.8793   0.3568   0.0806     H
C        0.886   0.4119  0.96837     C
C       0.8902   0.3766   0.6314     C
C      0.89568  0.59457  0.17332     C
C       0.9034  0.51448  0.22393     C
H        0.905   0.4386   0.6088     H
O       0.9097  0.76515  0.64985     O
H        0.913   0.8082   0.3087     H
C       0.9189   0.3636  0.03475     C
H       0.9216   0.4537   0.8553     H
C       0.9298  0.66229  0.03473     C
C       0.9316  0.35999  0.34925     C
C       0.9333  0.27836  0.39939     C
C       0.9433   0.2218  0.67108     C
C        0.945   0.4226  0.90036     C
H       0.9494   0.4698    0.212     H
N      0.95127  0.92418  0.77298     N
C       0.9519  0.72275  0.89337     C
H       0.9579   0.9605   0.6569     H
C      0.96096  0.61258  0.10182     C
C       0.9639   0.3141   0.6382     C
H       0.9641   0.8717   0.3784     H
C       0.9686   0.9812  0.70976     C
H       0.9711    0.871   0.1554     H
H       0.9718   0.6659   0.3795     H
H       0.9719   0.9637   0.8911     H
O       0.9739  0.84085  0.54157     O
C       0.9746   0.8457   0.3251     C
C       0.9763   0.9836  0.83766     C
C       0.9773   0.7802   0.5972     C
H       0.9868   0.3786   0.3171     H
C      0.98939  0.67469  0.96663     C
C       0.9919   0.9249   0.1874     C
O      0.99564  0.71522  0.82746     O
N      0.99653  0.92752  0.26916     N
