data_I
_chemical_name_common  '/home/zhangsd/repos/MofS-CGCNN/ML/data/TSD/clean_cifs/KIVDUQ_clean'
_cell_length_a 10.87200
_cell_length_b 16.73700
_cell_length_c 17.38000
_cell_angle_alpha 114.48000
_cell_angle_beta  92.95000
_cell_angle_gamma 99.63000
_space_group_name_H-M_alt      'P 1'


loop_
_space_group_symop_operation_xyz
  'x, y, z' 

loop_
_atom_site_label
_atom_site_fract_x
_atom_site_fract_y
_atom_site_fract_z
_atom_site_type_symbol
O       0.0074   0.7473   0.0319     O
C       0.0181   0.5744   0.1074     C
C       0.0393   0.6351   0.0752     C
C       0.0413   0.3101   0.9438     C
H       0.0552   0.4415   0.8724     H
H       0.0646   0.4286   0.3148     H
O        0.065    0.948   0.1274     O
O       0.0712   0.0731    0.112     O
O       0.0786   0.2738   0.1558     O
La      0.0826  0.14079  0.01261    La
C       0.1021   0.0307    0.152     C
H       0.1195   0.9778   0.7963     H
C       0.1276   0.5394    0.105     C
H        0.132   0.8707   0.6451     H
C       0.1363   0.4562   0.3013     C
H       0.1403    0.496   0.1231     H
O       0.1477   0.8774   0.9597     O
O       0.1537   0.3276   0.9318     O
O        0.159   0.6408    0.053     O
C       0.1632    0.335    0.156     C
C       0.1694   0.9894   0.7587     C
C        0.177   0.9295   0.6744     C
O       0.1812   0.0087   0.9485     O
C       0.1847    0.082   0.2325     C
H       0.1876   0.5873   0.3998     H
H       0.1927   0.2159   0.2712     H
C       0.1941   0.4201   0.2336     C
C       0.2056   0.5451   0.3489     C
C       0.2096   0.5806   0.0718     C
C       0.2122   0.9386    0.945     C
C       0.2174   0.1704   0.2817     C
O       0.2199    0.328   0.0936     O
O        0.226   0.1657   0.9127     O
O       0.2409   0.0355   0.2674     O
C       0.2492   0.0671   0.7743     C
C       0.2616   0.9736    0.644     C
K      0.26986  0.74367  0.98176     K
O       0.2741   0.8652   0.5087     O
C        0.286    0.153   0.8502     C
O       0.2961   0.4808    0.237     O
C       0.2994   0.1802   0.3549     C
C       0.2994   0.5566   0.3081     C
O       0.3043   0.1773    0.088     O
O       0.3083   0.0589    0.704     O
C       0.3089    0.946   0.5611     C
C       0.3109   0.0964   0.3419     C
H       0.3368   0.2336   0.4016     H
C        0.338   0.5709   0.0494     C
C       0.3383   0.9265   0.9196     C
La     0.37069  0.34364  0.99611    La
O       0.3742   0.9779   0.3604     O
O       0.3749   0.5051   0.0538     O
O       0.3752   0.2118   0.8511     O
C       0.3823   0.0621   0.3919     C
O       0.3824    0.002   0.5454     O
O       0.3882   0.8635   0.9337     O
O       0.3936    0.707   0.3829     O
H       0.3938   0.0543   0.1394     H
O          0.4   0.6276   0.0297     O
C       0.4067    0.633   0.3261     C
H       0.4114   0.0153   0.8719     H
C       0.4148   0.1874   0.0708     C
C       0.4225   0.9696   0.8872     C
La      0.4386  0.86483  0.40578    La
O       0.4454   0.1198   0.4604     O
O       0.4635   0.2382   0.0383     O
C       0.4673   0.0695    0.119     C
C       0.4928   0.1321   0.0895     C
O       0.4959   0.6183   0.2846     O
O       0.5041   0.3817   0.7154     O
C       0.5072   0.8679   0.9105     C
C       0.5327   0.9305    0.881     C
O       0.5365   0.7618   0.9617     O
O       0.5546   0.8802   0.5396     O
La      0.5614  0.13517  0.59422    La
C       0.5775   0.0304   0.1128     C
C       0.5852   0.8126   0.9292     C
H       0.5886   0.9847   0.1281     H
C       0.5933    0.367   0.6739     C
O          0.6   0.3724   0.9703     O
H       0.6062   0.9457   0.8606     H
O       0.6064    0.293   0.6171     O
O       0.6118   0.1365   0.0663     O
O       0.6176    0.998   0.4546     O
C       0.6177   0.9379   0.6081     C
O       0.6248   0.7882   0.1489     O
O       0.6251   0.4949   0.9462     O
O       0.6258   0.0221   0.6396     O
La     0.62931  0.65636  0.00389    La
C       0.6617   0.0735   0.0804     C
C        0.662   0.4291   0.9506     C
H       0.6632   0.7664   0.5984     H
C       0.6891   0.9036   0.6581     C
C       0.6911    0.054   0.4389     C
O       0.6917   0.9411    0.296     O
O       0.6957   0.8227    0.912     O
C       0.7006   0.4434   0.6919     C
C       0.7006   0.8198   0.6451     C
O       0.7039   0.5192    0.763     O
C        0.714    0.847   0.1498     C
O       0.7259   0.1348   0.4913     O
K      0.73014  0.25633  0.01824     K
C       0.7384   0.0264    0.356     C
C       0.7508   0.9329   0.2257     C
O       0.7591   0.9645   0.7326     O
O        0.774   0.8343   0.0873     O
O       0.7801    0.672   0.9064     O
C       0.7826   0.8296   0.7183     C
C       0.7878   0.0614    0.055     C
C       0.7904   0.4194   0.9282     C
C       0.7944   0.4549   0.6511     C
C       0.8059   0.5799   0.7664     C
H       0.8073   0.7841   0.7288     H
H       0.8124   0.4127   0.6002     H
C       0.8153    0.918   0.7675     C
O       0.8188   0.9913   0.0515     O
C        0.823   0.0705   0.3256     C
C       0.8306   0.0106   0.2413     C
C       0.8368    0.665    0.844     C
O        0.841   0.3592    0.947     O
O       0.8463   0.6724   0.0682     O
O       0.8523   0.1226   0.0403     O
H       0.8597    0.504   0.8769     H
C       0.8637   0.5438   0.6987     C
H        0.868   0.1293   0.3549     H
C       0.8724   0.4606    0.895     C
H       0.8805   0.0222   0.2037     H
C       0.8979   0.9693    0.848     C
La      0.9174  0.85921  0.98739    La
O       0.9214   0.7262   0.8442     O
O       0.9288   0.9269    0.888     O
O        0.935    0.052   0.8726     O
H       0.9354   0.5714   0.6852     H
H       0.9448   0.5585   0.1276     H
C       0.9587   0.6899   0.0562     C
C       0.9607   0.3649   0.9248     C
C       0.9819   0.4256   0.8926     C
O       0.9926   0.2527   0.9681     O
