data_I
_chemical_name_common  '/home/zhangsd/repos/MofS-CGCNN/ML/data/TSD/clean_cifs/KIYMIP_clean'
_cell_length_a  8.19840
_cell_length_b 24.09400
_cell_length_c 11.30700
_cell_angle_alpha 90.00000
_cell_angle_beta  90.00000
_cell_angle_gamma 90.00000
_space_group_name_H-M_alt      'P 1'


loop_
_space_group_symop_operation_xyz
  'x, y, z' 

loop_
_atom_site_label
_atom_site_fract_x
_atom_site_fract_y
_atom_site_fract_z
_atom_site_type_symbol
C          0.0      0.5   0.1586     C
H       0.0013   0.8931   0.8746     H
C       0.0082   0.8489   0.2218     C
H       0.0095   0.8879   0.6734     H
C       0.0122  0.55276   0.2368     C
C       0.0132   0.8499   0.0999     C
C       0.0304   0.1422   0.7159     C
C       0.0348  0.13896    0.837     C
C         0.04  0.64616   0.3828     C
C       0.0479  0.69746   0.4594     C
C       0.0488  0.35178   0.2783     C
C       0.0638  0.39729   0.2051     C
O       0.0703  0.26938   0.4482     O
N       0.0817  0.18729   0.6562     N
H       0.0846   0.8698   0.2632     H
Ni     0.09066    0.185   0.4706    Ni
H       0.0907   0.8714   0.0611     H
C       0.0926  0.18309   0.9041     C
C       0.0973  0.18129   0.0356     C
H       0.0997   0.3188   0.2571     H
N       0.1008  0.18062   0.2836     N
C       0.1042  0.55068   0.3396     C
C       0.1187    0.597   0.4128     C
H       0.1236   0.3949   0.1354     H
O       0.1331  0.56928   0.6119     O
C       0.1346  0.23035   0.7192     C
O       0.1379  0.10078   0.4709     O
C       0.1415  0.22989   0.8414     C
F       0.1496  0.46271    0.993     F
C       0.1558   0.4999   0.0807     C
H        0.157   0.5179     0.36     H
O       0.1646  0.70516   0.5285     O
H       0.1682   0.2621   0.6794     H
F       0.1755  0.54964   0.0281     F
H       0.1791    0.261   0.8818     H
H       0.2078   0.7316    0.939     H
C       0.2097  0.20958   0.2211     C
C       0.2103    0.589   0.5288     C
F       0.2115  0.98971   0.8569     F
H       0.2123     0.73   0.7378     H
C        0.213  0.21097   0.1001     C
C        0.287  0.71097   0.8999     C
H       0.2877     0.23   0.2622     H
F       0.2885  0.48971   0.1431     F
C       0.2897    0.089   0.4712     C
C       0.2903  0.70958   0.7789     C
H       0.2922   0.2316    0.061     H
H       0.3209    0.761   0.1182     H
F       0.3245  0.04964   0.9719     F
H       0.3318   0.7621   0.3206     H
O       0.3354  0.20516   0.4715     O
H        0.343   0.0179     0.64     H
C       0.3442   0.9999   0.9193     C
F       0.3504  0.96271    0.007     F
C       0.3585  0.72989   0.1586     C
O       0.3621  0.60078   0.5291     O
C       0.3654  0.73035   0.2808     C
O       0.3669  0.06928   0.3881     O
H       0.3764   0.8949   0.8646     H
C       0.3813    0.097   0.5872     C
C       0.3958  0.05068   0.6604     C
N       0.3992  0.68062   0.7164     N
H       0.4003   0.8188   0.7429     H
C       0.4027  0.68129   0.9644     C
C       0.4074  0.68309   0.0959     C
H       0.4093   0.3714   0.9389     H
Ni     0.40934    0.685   0.5294    Ni
H       0.4154   0.3698   0.7368     H
N       0.4183  0.68729   0.3438     N
O       0.4297  0.76938   0.5518     O
C       0.4362  0.89729   0.7949     C
C       0.4512  0.85178   0.7217     C
C       0.4521  0.19746   0.5406     C
C         0.46  0.14616   0.6172     C
C       0.4652  0.63896    0.163     C
C       0.4696   0.6422   0.2841     C
C       0.4868   0.3499   0.9001     C
C       0.4878  0.05276   0.7632     C
H       0.4905   0.3879   0.3266     H
C       0.4918   0.3489   0.7782     C
H       0.4987   0.3931   0.1254     H
C          0.5      0.0   0.8414     C
H       0.5013   0.6069   0.1254     H
C       0.5082   0.6511   0.7782     C
H       0.5095   0.6121   0.3266     H
C       0.5122  0.94724   0.7632     C
C       0.5132   0.6501   0.9001     C
C       0.5304   0.3578   0.2841     C
C       0.5348  0.36104    0.163     C
C         0.54  0.85384   0.6172     C
C       0.5479  0.80254   0.5406     C
C       0.5488  0.14822   0.7217     C
C       0.5638  0.10271   0.7949     C
O       0.5703  0.23062   0.5518     O
N       0.5817  0.31271   0.3438     N
H       0.5846   0.6302   0.7368     H
Ni     0.59066    0.315   0.5294    Ni
H       0.5907   0.6286   0.9389     H
C       0.5926  0.31691   0.0959     C
C       0.5973  0.31871   0.9644     C
H       0.5997   0.1812   0.7429     H
N       0.6008  0.31938   0.7164     N
C       0.6042  0.94932   0.6604     C
C       0.6187    0.903   0.5872     C
H       0.6236   0.1051   0.8646     H
O       0.6331  0.93072   0.3881     O
C       0.6346  0.26965   0.2808     C
O       0.6379  0.39922   0.5291     O
C       0.6415  0.27011   0.1586     C
F       0.6496  0.03729    0.007     F
C       0.6558   0.0001   0.9193     C
H        0.657   0.9821     0.64     H
O       0.6646  0.79484   0.4715     O
H       0.6682   0.2379   0.3206     H
F       0.6755  0.95036   0.9719     F
H       0.6791    0.239   0.1182     H
H       0.7078   0.7684    0.061     H
C       0.7097  0.29042   0.7789     C
C       0.7103    0.911   0.4712     C
F       0.7115  0.51029   0.1431     F
H       0.7123     0.77   0.2622     H
C        0.713  0.28903   0.8999     C
C        0.787  0.78903   0.1001     C
H       0.7877     0.27   0.7378     H
F       0.7885  0.01029   0.8569     F
C       0.7897    0.411   0.5288     C
C       0.7903  0.79042   0.2211     C
H       0.7922   0.2684    0.939     H
H       0.8209    0.739   0.8818     H
F       0.8245  0.45036   0.0281     F
H       0.8318   0.7379   0.6794     H
O       0.8354  0.29484   0.5285     O
H        0.843   0.4821     0.36     H
C       0.8442   0.5001   0.0807     C
F       0.8504  0.53729    0.993     F
C       0.8585  0.77011   0.8414     C
O       0.8621  0.89922   0.4709     O
C       0.8654  0.76965   0.7192     C
O       0.8669  0.43072   0.6119     O
H       0.8764   0.6051   0.1354     H
C       0.8813    0.403   0.4128     C
C       0.8958  0.44932   0.3396     C
N       0.8992  0.81938   0.2836     N
H       0.9003   0.6812   0.2571     H
C       0.9027  0.81871   0.0356     C
C       0.9074  0.81691   0.9041     C
H       0.9093   0.1286   0.0611     H
Ni     0.90934    0.815   0.4706    Ni
H       0.9154   0.1302   0.2632     H
N       0.9183  0.81271   0.6562     N
O       0.9297  0.73062   0.4482     O
C       0.9362  0.60271   0.2051     C
C       0.9512  0.64822   0.2783     C
C       0.9521  0.30254   0.4594     C
C         0.96  0.35384   0.3828     C
C       0.9652  0.86104    0.837     C
C       0.9696   0.8578   0.7159     C
C       0.9868   0.1501   0.0999     C
C       0.9878  0.44724   0.2368     C
H       0.9905   0.1121   0.6734     H
C       0.9918   0.1511   0.2218     C
H       0.9987   0.1069   0.8746     H
