data_I
_chemical_name_common  '/home/zhangsd/repos/MofS-CGCNN/ML/data/TSD/clean_cifs/KIYMAI_clean'
_cell_length_a  6.88830
_cell_length_b 14.70740
_cell_length_c 14.98100
_cell_angle_alpha 90.00000
_cell_angle_beta  90.00000
_cell_angle_gamma 90.00000
_space_group_name_H-M_alt      'P 1'


loop_
_space_group_symop_operation_xyz
  'x, y, z' 

loop_
_atom_site_label
_atom_site_fract_x
_atom_site_fract_y
_atom_site_fract_z
_atom_site_type_symbol
O       0.0049  0.65251  0.02122     O
O       0.0138   0.8982   0.0789     O
C       0.0903   0.3729   0.3582     C
H       0.1057   0.2318   0.0588     H
H       0.1069    0.547   0.3602     H
C        0.107   0.4387     0.28     C
H       0.1089   0.3422   0.9488     H
C       0.1093   0.2929   0.0746     C
H       0.1111    0.272   0.2062     H
C       0.1117    0.317   0.1626     C
C       0.1121   0.3592   0.0086     C
C       0.1152   0.4098   0.1885     C
C       0.1157   0.5289   0.3008     C
C       0.1196   0.4489   0.0307     C
C       0.1209  0.47788  0.12154     C
H       0.1239   0.4923   0.9856     H
C       0.1342  0.57018  0.14506     C
C       0.1381    0.595    0.233     C
C        0.142  0.64592  0.07664     C
Sr     0.14462  0.80768  0.95336    Sr
H       0.1555   0.6557   0.2484     H
O       0.1837   0.2997    0.355     O
O       0.2191  0.29965  0.58034     O
O       0.2809  0.70035  0.08034     O
O       0.3163   0.7003    0.855     O
H       0.3445   0.3443   0.7484     H
Sr     0.35538  0.19232  0.45336    Sr
C        0.358  0.35408  0.57664     C
C       0.3619    0.405    0.733     C
C       0.3658  0.42982  0.64506     C
H       0.3761   0.5077   0.4856     H
C       0.3791  0.52212  0.62154     C
C       0.3804   0.5511   0.5307     C
C       0.3843   0.4711   0.8008     C
C       0.3848   0.5902   0.6885     C
C       0.3879   0.6408   0.5086     C
C       0.3883    0.683   0.6626     C
H       0.3889    0.728   0.7062     H
C       0.3907   0.7071   0.5746     C
H       0.3911   0.6578   0.4488     H
C        0.393   0.5613     0.78     C
H       0.3931    0.453   0.8602     H
H       0.3943   0.7682   0.5588     H
C       0.4097   0.6271   0.8582     C
O       0.4862   0.1018   0.5789     O
O       0.4951  0.34749  0.52122     O
O       0.5049  0.84749  0.97878     O
O       0.5138   0.6018   0.9211     O
C       0.5903   0.1271   0.6418     C
H       0.6057   0.2682   0.9412     H
H       0.6069    0.953   0.6398     H
C        0.607   0.0613     0.72     C
H       0.6089   0.1578   0.0512     H
C       0.6093   0.2071   0.9254     C
H       0.6111    0.228   0.7938     H
C       0.6117    0.183   0.8374     C
C       0.6121   0.1408   0.9914     C
C       0.6152   0.0902   0.8115     C
C       0.6157   0.9711   0.6992     C
C       0.6196   0.0511   0.9693     C
C       0.6209  0.02212  0.87846     C
H       0.6239   0.0077   0.0144     H
C       0.6342  0.92982  0.85494     C
C       0.6381    0.905    0.767     C
C        0.642  0.85408  0.92336     C
Sr     0.64462  0.69232  0.04664    Sr
H       0.6555   0.8443   0.7516     H
O       0.6837   0.2003    0.645     O
O       0.7191  0.20035  0.41966     O
O       0.7809  0.79965  0.91966     O
O       0.8163   0.7997    0.145     O
H       0.8445   0.1557   0.2516     H
Sr     0.85538  0.30768  0.54664    Sr
C        0.858  0.14592  0.42336     C
C       0.8619    0.095    0.267     C
C       0.8658  0.07018  0.35494     C
H       0.8761   0.9923   0.5144     H
C       0.8791  0.97788  0.37846     C
C       0.8804   0.9489   0.4693     C
C       0.8843   0.0289   0.1992     C
C       0.8848   0.9098   0.3115     C
C       0.8879   0.8592   0.4914     C
C       0.8883    0.817   0.3374     C
H       0.8889    0.772   0.2938     H
C       0.8907   0.7929   0.4254     C
H       0.8911   0.8422   0.5512     H
C        0.893   0.9387     0.22     C
H       0.8931    0.047   0.1398     H
H       0.8943   0.7318   0.4412     H
C       0.9097   0.8729   0.1418     C
O       0.9862   0.3982   0.4211     O
O       0.9951  0.15251  0.47878     O
