data_I
_chemical_name_common  '/home/zhangsd/repos/MofS-CGCNN/ML/data/TSD/clean_cifs/KIYTOD_clean'
_cell_length_a 28.55000
_cell_length_b 28.55000
_cell_length_c 27.05940
_cell_angle_alpha 90.00000
_cell_angle_beta  90.00000
_cell_angle_gamma 90.00000
_space_group_name_H-M_alt      'P 1'


loop_
_space_group_symop_operation_xyz
  'x, y, z' 

loop_
_atom_site_label
_atom_site_fract_x
_atom_site_fract_y
_atom_site_fract_z
_atom_site_type_symbol
O       0.0014   0.6963   0.2493     O
O       0.0014   0.6963   0.7507     O
H       0.0045   0.6061   0.2908     H
H       0.0045   0.6061   0.7092     H
O       0.0117   0.7441   0.3155     O
O       0.0117   0.7441   0.6845     O
C       0.0177   0.7043     0.29     C
C       0.0177   0.7043     0.71     C
O      0.02157   0.7689   0.1933     O
O      0.02157   0.7689   0.8067     O
O      0.02604  0.82008   0.2542     O
O      0.02604  0.82008   0.7458     O
Cu      0.0279  0.20507  0.29091    Cu
Cu      0.0279  0.20507  0.70909    Cu
C       0.0339   0.6129   0.3037     C
C       0.0339   0.6129   0.6963     C
Cu     0.03505  0.26338  0.21372    Cu
Cu     0.03505  0.26338  0.78628    Cu
C         0.04   0.8029   0.2142     C
C         0.04   0.8029   0.7858     C
C       0.0448   0.6692   0.3137     C
C       0.0448   0.6692   0.6863     C
C       0.0677   0.5677   0.3134     C
C       0.0677   0.5677   0.6866     C
O      0.06963  0.16417    0.256     O
O      0.06963  0.16417    0.744     O
C       0.0715   0.6783   0.3521     C
C       0.0715   0.6783   0.6479     C
H       0.0732   0.7088    0.364     H
H       0.0732   0.7088    0.636     H
O       0.0735    0.213   0.1898     O
O       0.0735    0.213   0.8102     O
C       0.0835    0.821   0.1921     C
C       0.0835    0.821   0.8079     C
O       0.0836   0.2401   0.3122     O
O       0.0836   0.2401   0.6878     O
C       0.0858   0.1758   0.2151     C
C       0.0858   0.1758   0.7849     C
H        0.086    0.586    0.454     H
H        0.086    0.586    0.546     H
H       0.0883    0.772   0.1383     H
H       0.0883    0.772   0.8617     H
O       0.0899   0.2876   0.2449     O
O       0.0899   0.2876   0.7551     O
H       0.0955   0.8745     0.24     H
H       0.0955   0.8745     0.76     H
C       0.0964   0.6444   0.3744     C
C       0.0964   0.6444   0.6256     C
C       0.0982   0.5982   0.3587     C
C       0.0982   0.5982   0.6413     C
C       0.1024    0.274   0.2876     C
C       0.1024    0.274   0.7124     C
C       0.1031   0.7982   0.1516     C
C       0.1031   0.7982   0.8484     C
C       0.1039   0.6039   0.4756     C
C       0.1039   0.6039   0.5244     C
H       0.1061   0.5045   0.2908     H
H       0.1061   0.5045   0.7092     H
H       0.1064   0.8506   0.0447     H
H       0.1064   0.8506   0.9553     H
C       0.1072   0.8594   0.2121     C
C       0.1072   0.8594   0.7879     C
C       0.1129   0.5339   0.3037     C
C       0.1129   0.5339   0.6963     C
C        0.124   0.8312   0.0242     C
C        0.124   0.8312   0.9758     C
C       0.1252   0.1487   0.1897     C
C       0.1252   0.1487   0.8103     C
H       0.1255   0.0955     0.24     H
H       0.1255   0.0955     0.76     H
H       0.1367   0.1935   0.1337     H
H       0.1367   0.1935   0.8663     H
C       0.1389   0.6389   0.4646     C
C       0.1389   0.6389   0.5354     C
C       0.1406   0.1072   0.2121     C
C       0.1406   0.1072   0.7879     C
C       0.1441   0.8142    0.131     C
C       0.1441   0.8142    0.869     C
C       0.1444   0.5964   0.3744     C
C       0.1444   0.5964   0.6256     C
C       0.1453   0.2954   0.3109     C
C       0.1453   0.2954   0.6891     C
C       0.1476   0.1664   0.1489     C
C       0.1476   0.1664   0.8511     C
C       0.1482   0.6482   0.4121     C
C       0.1482   0.6482   0.5879     C
C       0.1487   0.8748   0.1897     C
C       0.1487   0.8748   0.8103     C
H       0.1494   0.1064   0.0447     H
H       0.1494   0.1064   0.9553     H
H       0.1541   0.2441   0.3637     H
H       0.1541   0.2441   0.6363     H
H       0.1555   0.3445   0.2573     H
H       0.1555   0.3445   0.7427     H
C       0.1568   0.7951   0.0399     C
C       0.1568   0.7951   0.9601     C
N       0.1596   0.6596      0.5     N
O      0.16417  0.93037    0.256     O
O      0.16417  0.93037    0.744     O
C       0.1664   0.3336   0.2875     C
C       0.1664   0.3336   0.7125     C
C       0.1664   0.8524   0.1489     C
C       0.1664   0.8524   0.8511     C
C       0.1667   0.2718   0.3513     C
C       0.1667   0.2718   0.6487     C
C       0.1682   0.7864   0.0885     C
C       0.1682   0.7864   0.9115     C
C       0.1688    0.124   0.0242     C
C       0.1688    0.124   0.9758     C
C       0.1692   0.5448   0.3137     C
C       0.1692   0.5448   0.6863     C
H       0.1713   0.3287   0.4555     H
H       0.1713   0.3287   0.5445     H
C       0.1758   0.9142   0.2151     C
C       0.1758   0.9142   0.7849     C
N       0.1774   0.7746      0.0     N
C       0.1783   0.5715   0.3521     C
C       0.1783   0.5715   0.6479     C
H       0.1784   0.6784   0.3193     H
H       0.1784   0.6784   0.6807     H
C        0.179   0.0835   0.1921     C
C        0.179   0.0835   0.8079     C
O      0.17992  0.02604   0.2542     O
O      0.17992  0.02604   0.7458     O
C       0.1835   0.6835    0.397     C
C       0.1835   0.6835    0.603     C
C       0.1858   0.1441    0.131     C
C       0.1858   0.1441    0.869     C
C       0.1898   0.3102   0.4759     C
C       0.1898   0.3102   0.5241     C
C       0.1924   0.6924   0.3467     C
C       0.1924   0.6924   0.6533     C
H       0.1935   0.8633   0.1337     H
H       0.1935   0.8633   0.8663     H
H       0.1953   0.7561   0.1819     H
H       0.1953   0.7561   0.8181     H
O       0.1963   0.5014   0.2493     O
O       0.1963   0.5014   0.7507     O
C       0.1971     0.04   0.2142     C
C       0.1971     0.04   0.7858     C
C       0.2002   0.7542   0.1031     C
C       0.2002   0.7542   0.8969     C
C       0.2018   0.1031   0.1516     C
C       0.2018   0.1031   0.8484     C
C       0.2043   0.5177     0.29     C
C       0.2043   0.5177     0.71     C
C       0.2046   0.3547   0.3109     C
C       0.2046   0.3547   0.6891     C
C       0.2049   0.1568   0.0399     C
C       0.2049   0.1568   0.9601     C
Cu     0.20507   0.9721  0.29091    Cu
Cu     0.20507   0.9721  0.70909    Cu
Ni     0.20647  0.70647      0.5    Ni
N       0.2067   0.7067   0.4292     N
N       0.2067   0.7067   0.5708     N
C       0.2082   0.2918   0.3726     C
C       0.2082   0.2918   0.6274     C
H       0.2088   0.5732    0.364     H
H       0.2088   0.5732    0.636     H
C       0.2096   0.7429   0.1543     C
C       0.2096   0.7429   0.8457     C
O       0.2124   0.4101   0.2449     O
O       0.2124   0.4101   0.7551     O
O        0.213   0.9265   0.1898     O
O        0.213   0.9265   0.8102     O
C       0.2136   0.1682   0.0885     C
C       0.2136   0.1682   0.9115     C
C       0.2234   0.7234   0.3473     C
C       0.2234   0.7234   0.6527     C
C       0.2242   0.2758     0.46     C
C       0.2242   0.2758     0.54     C
N       0.2253   0.7253    0.072     N
N       0.2253   0.7253    0.928     N
N       0.2254   0.1774      0.0     N
Ni     0.22587  0.72587      0.0    Ni
C        0.226   0.3976   0.2876     C
C        0.226   0.3976   0.7124     C
H        0.228   0.0883   0.1383     H
H        0.228   0.0883   0.8617     H
C       0.2282   0.3333   0.3513     C
C       0.2282   0.3333   0.6487     C
O       0.2311  0.02157   0.1933     O
O       0.2311  0.02157   0.8067     O
C       0.2328   0.7328   0.3974     C
C       0.2328   0.7328   0.6026     C
C        0.235    0.265   0.4117     C
C        0.235    0.265   0.5883     C
Cu     0.23662  0.46495  0.21372    Cu
Cu     0.23662  0.46495  0.78628    Cu
H       0.2374   0.7374   0.3201     H
H       0.2374   0.7374   0.6799     H
O       0.2401   0.9164   0.3122     O
O       0.2401   0.9164   0.6878     O
C       0.2429   0.7096   0.1543     C
C       0.2429   0.7096   0.8457     C
H       0.2439   0.1953   0.1819     H
H       0.2439   0.1953   0.8181     H
O       0.2441   0.5117   0.3155     O
O       0.2441   0.5117   0.6845     O
H       0.2441   0.8459   0.3637     H
H       0.2441   0.8459   0.6363     H
N       0.2445   0.2555      0.5     N
C       0.2458   0.2002   0.1031     C
C       0.2458   0.2002   0.8969     C
C       0.2542   0.7002   0.1031     C
C       0.2542   0.7002   0.8969     C
N       0.2555   0.7555      0.5     N
O       0.2559   0.0117   0.3155     O
O       0.2559   0.0117   0.6845     O
H       0.2559   0.3459   0.3637     H
H       0.2559   0.3459   0.6363     H
H       0.2561   0.6953   0.1819     H
H       0.2561   0.6953   0.8181     H
C       0.2571   0.2096   0.1543     C
C       0.2571   0.2096   0.8457     C
O       0.2599   0.4164   0.3122     O
O       0.2599   0.4164   0.6878     O
H       0.2626   0.2374   0.3201     H
H       0.2626   0.2374   0.6799     H
Cu     0.26338  0.96495  0.21372    Cu
Cu     0.26338  0.96495  0.78628    Cu
C        0.265    0.765   0.4117     C
C        0.265    0.765   0.5883     C
C       0.2672   0.2328   0.3974     C
C       0.2672   0.2328   0.6026     C
O       0.2689  0.52157   0.1933     O
O       0.2689  0.52157   0.8067     O
C       0.2718   0.8333   0.3513     C
C       0.2718   0.8333   0.6487     C
H        0.272   0.5883   0.1383     H
H        0.272   0.5883   0.8617     H
C        0.274   0.8976   0.2876     C
C        0.274   0.8976   0.7124     C
Ni     0.27413  0.22587      0.0    Ni
N       0.2746   0.6774      0.0     N
N       0.2747   0.2253    0.072     N
N       0.2747   0.2253    0.928     N
C       0.2758   0.7758     0.46     C
C       0.2758   0.7758     0.54     C
C       0.2766   0.2234   0.3473     C
C       0.2766   0.2234   0.6527     C
C       0.2864   0.6682   0.0885     C
C       0.2864   0.6682   0.9115     C
O        0.287   0.4265   0.1898     O
O        0.287   0.4265   0.8102     O
O       0.2876   0.9101   0.2449     O
O       0.2876   0.9101   0.7551     O
C       0.2904   0.2429   0.1543     C
C       0.2904   0.2429   0.8457     C
H       0.2912   0.0732    0.364     H
H       0.2912   0.0732    0.636     H
C       0.2918   0.7918   0.3726     C
C       0.2918   0.7918   0.6274     C
N       0.2933   0.2067   0.4292     N
N       0.2933   0.2067   0.5708     N
Ni     0.29353  0.20647      0.5    Ni
Cu     0.29493   0.4721  0.29091    Cu
Cu     0.29493   0.4721  0.70909    Cu
C       0.2951   0.6568   0.0399     C
C       0.2951   0.6568   0.9601     C
C       0.2954   0.8547   0.3109     C
C       0.2954   0.8547   0.6891     C
C       0.2957   0.0177     0.29     C
C       0.2957   0.0177     0.71     C
C       0.2982   0.6031   0.1516     C
C       0.2982   0.6031   0.8484     C
C       0.2998   0.2542   0.1031     C
C       0.2998   0.2542   0.8969     C
C       0.3029     0.54   0.2142     C
C       0.3029     0.54   0.7858     C
O       0.3037   0.0014   0.2493     O
O       0.3037   0.0014   0.7507     O
H       0.3047   0.2561   0.1819     H
H       0.3047   0.2561   0.8181     H
H       0.3065   0.3633   0.1337     H
H       0.3065   0.3633   0.8663     H
C       0.3076   0.1924   0.3467     C
C       0.3076   0.1924   0.6533     C
C       0.3102   0.8102   0.4759     C
C       0.3102   0.8102   0.5241     C
C       0.3142   0.6441    0.131     C
C       0.3142   0.6441    0.869     C
C       0.3165   0.1835    0.397     C
C       0.3165   0.1835    0.603     C
O      0.32008  0.52604   0.2542     O
O      0.32008  0.52604   0.7458     O
C        0.321   0.5835   0.1921     C
C        0.321   0.5835   0.8079     C
H       0.3216   0.1784   0.3193     H
H       0.3216   0.1784   0.6807     H
C       0.3217   0.0715   0.3521     C
C       0.3217   0.0715   0.6479     C
N       0.3226   0.2746      0.0     N
C       0.3242   0.4142   0.2151     C
C       0.3242   0.4142   0.7849     C
H       0.3287   0.8287   0.4555     H
H       0.3287   0.8287   0.5445     H
C       0.3308   0.0448   0.3137     C
C       0.3308   0.0448   0.6863     C
C       0.3312    0.624   0.0242     C
C       0.3312    0.624   0.9758     C
C       0.3318   0.2864   0.0885     C
C       0.3318   0.2864   0.9115     C
C       0.3333   0.7718   0.3513     C
C       0.3333   0.7718   0.6487     C
C       0.3336   0.3524   0.1489     C
C       0.3336   0.3524   0.8511     C
C       0.3336   0.8336   0.2875     C
C       0.3336   0.8336   0.7125     C
O      0.33583  0.43037    0.256     O
O      0.33583  0.43037    0.744     O
N       0.3404   0.1596      0.5     N
C       0.3432   0.2951   0.0399     C
C       0.3432   0.2951   0.9601     C
H       0.3445   0.8445   0.2573     H
H       0.3445   0.8445   0.7427     H
H       0.3459   0.7441   0.3637     H
H       0.3459   0.7441   0.6363     H
H       0.3506   0.6064   0.0447     H
H       0.3506   0.6064   0.9553     H
C       0.3513   0.3748   0.1897     C
C       0.3513   0.3748   0.8103     C
C       0.3518   0.1482   0.4121     C
C       0.3518   0.1482   0.5879     C
C       0.3524   0.6664   0.1489     C
C       0.3524   0.6664   0.8511     C
C       0.3547   0.7954   0.3109     C
C       0.3547   0.7954   0.6891     C
C       0.3556   0.0964   0.3744     C
C       0.3556   0.0964   0.6256     C
C       0.3559   0.3142    0.131     C
C       0.3559   0.3142    0.869     C
C       0.3594   0.6072   0.2121     C
C       0.3594   0.6072   0.7879     C
C       0.3611   0.1389   0.4646     C
C       0.3611   0.1389   0.5354     C
H       0.3633   0.6935   0.1337     H
H       0.3633   0.6935   0.8663     H
H       0.3745   0.5955     0.24     H
H       0.3745   0.5955     0.76     H
C       0.3748   0.6487   0.1897     C
C       0.3748   0.6487   0.8103     C
C        0.376   0.3312   0.0242     C
C        0.376   0.3312   0.9758     C
C       0.3871   0.0339   0.3037     C
C       0.3871   0.0339   0.6963     C
C       0.3928   0.3594   0.2121     C
C       0.3928   0.3594   0.7879     C
H       0.3936   0.3506   0.0447     H
H       0.3936   0.3506   0.9553     H
H       0.3939   0.0045   0.2908     H
H       0.3939   0.0045   0.7092     H
C       0.3961   0.1039   0.4756     C
C       0.3961   0.1039   0.5244     C
C       0.3969   0.2982   0.1516     C
C       0.3969   0.2982   0.8484     C
C       0.3976    0.774   0.2876     C
C       0.3976    0.774   0.7124     C
C       0.4018   0.0982   0.3587     C
C       0.4018   0.0982   0.6413     C
C       0.4036   0.1444   0.3744     C
C       0.4036   0.1444   0.6256     C
H       0.4045   0.3745     0.24     H
H       0.4045   0.3745     0.76     H
O       0.4101   0.7876   0.2449     O
O       0.4101   0.7876   0.7551     O
H       0.4117    0.272   0.1383     H
H       0.4117    0.272   0.8617     H
H        0.414    0.086    0.454     H
H        0.414    0.086    0.546     H
C       0.4142   0.6758   0.2151     C
C       0.4142   0.6758   0.7849     C
O       0.4164   0.7401   0.3122     O
O       0.4164   0.7401   0.6878     O
C       0.4165    0.321   0.1921     C
C       0.4165    0.321   0.8079     C
O       0.4265    0.713   0.1898     O
O       0.4265    0.713   0.8102     O
H       0.4268   0.2088    0.364     H
H       0.4268   0.2088    0.636     H
C       0.4285   0.1783   0.3521     C
C       0.4285   0.1783   0.6479     C
O      0.43037  0.66417    0.256     O
O      0.43037  0.66417    0.744     O
C       0.4323   0.0677   0.3134     C
C       0.4323   0.0677   0.6866     C
C       0.4552   0.1692   0.3137     C
C       0.4552   0.1692   0.6863     C
C         0.46   0.3029   0.2142     C
C         0.46   0.3029   0.7858     C
Cu     0.46495  0.76338  0.21372    Cu
Cu     0.46495  0.76338  0.78628    Cu
C       0.4661   0.1129   0.3037     C
C       0.4661   0.1129   0.6963     C
Cu      0.4721  0.70507  0.29091    Cu
Cu      0.4721  0.70507  0.70909    Cu
O      0.47396  0.32008   0.2542     O
O      0.47396  0.32008   0.7458     O
O      0.47843   0.2689   0.1933     O
O      0.47843   0.2689   0.8067     O
C       0.4823   0.2043     0.29     C
C       0.4823   0.2043     0.71     C
O       0.4883   0.2441   0.3155     O
O       0.4883   0.2441   0.6845     O
H       0.4955   0.1061   0.2908     H
H       0.4955   0.1061   0.7092     H
O       0.4986   0.1963   0.2493     O
O       0.4986   0.1963   0.7507     O
O       0.5014   0.8037   0.2493     O
O       0.5014   0.8037   0.7507     O
H       0.5045   0.8939   0.2908     H
H       0.5045   0.8939   0.7092     H
O       0.5117   0.7559   0.3155     O
O       0.5117   0.7559   0.6845     O
C       0.5177   0.7957     0.29     C
C       0.5177   0.7957     0.71     C
O      0.52157   0.7311   0.1933     O
O      0.52157   0.7311   0.8067     O
O      0.52604  0.67992   0.2542     O
O      0.52604  0.67992   0.7458     O
Cu      0.5279  0.29493  0.29091    Cu
Cu      0.5279  0.29493  0.70909    Cu
C       0.5339   0.8871   0.3037     C
C       0.5339   0.8871   0.6963     C
Cu     0.53505  0.23662  0.21372    Cu
Cu     0.53505  0.23662  0.78628    Cu
C         0.54   0.6971   0.2142     C
C         0.54   0.6971   0.7858     C
C       0.5448   0.8308   0.3137     C
C       0.5448   0.8308   0.6863     C
C       0.5677   0.9323   0.3134     C
C       0.5677   0.9323   0.6866     C
O      0.56963  0.33583    0.256     O
O      0.56963  0.33583    0.744     O
C       0.5715   0.8217   0.3521     C
C       0.5715   0.8217   0.6479     C
H       0.5732   0.7912    0.364     H
H       0.5732   0.7912    0.636     H
O       0.5735    0.287   0.1898     O
O       0.5735    0.287   0.8102     O
C       0.5835    0.679   0.1921     C
C       0.5835    0.679   0.8079     C
O       0.5836   0.2599   0.3122     O
O       0.5836   0.2599   0.6878     O
C       0.5858   0.3242   0.2151     C
C       0.5858   0.3242   0.7849     C
H        0.586    0.914    0.454     H
H        0.586    0.914    0.546     H
H       0.5883    0.728   0.1383     H
H       0.5883    0.728   0.8617     H
O       0.5899   0.2124   0.2449     O
O       0.5899   0.2124   0.7551     O
H       0.5955   0.6255     0.24     H
H       0.5955   0.6255     0.76     H
C       0.5964   0.8556   0.3744     C
C       0.5964   0.8556   0.6256     C
C       0.5982   0.9018   0.3587     C
C       0.5982   0.9018   0.6413     C
C       0.6024    0.226   0.2876     C
C       0.6024    0.226   0.7124     C
C       0.6031   0.7018   0.1516     C
C       0.6031   0.7018   0.8484     C
C       0.6039   0.8961   0.4756     C
C       0.6039   0.8961   0.5244     C
H       0.6061   0.9955   0.2908     H
H       0.6061   0.9955   0.7092     H
H       0.6064   0.6494   0.0447     H
H       0.6064   0.6494   0.9553     H
C       0.6072   0.6406   0.2121     C
C       0.6072   0.6406   0.7879     C
C       0.6129   0.9661   0.3037     C
C       0.6129   0.9661   0.6963     C
C        0.624   0.6688   0.0242     C
C        0.624   0.6688   0.9758     C
C       0.6252   0.3513   0.1897     C
C       0.6252   0.3513   0.8103     C
H       0.6255   0.4045     0.24     H
H       0.6255   0.4045     0.76     H
H       0.6367   0.3065   0.1337     H
H       0.6367   0.3065   0.8663     H
C       0.6389   0.8611   0.4646     C
C       0.6389   0.8611   0.5354     C
C       0.6406   0.3928   0.2121     C
C       0.6406   0.3928   0.7879     C
C       0.6441   0.6858    0.131     C
C       0.6441   0.6858    0.869     C
C       0.6444   0.9036   0.3744     C
C       0.6444   0.9036   0.6256     C
C       0.6453   0.2046   0.3109     C
C       0.6453   0.2046   0.6891     C
C       0.6476   0.3336   0.1489     C
C       0.6476   0.3336   0.8511     C
C       0.6482   0.8518   0.4121     C
C       0.6482   0.8518   0.5879     C
C       0.6487   0.6252   0.1897     C
C       0.6487   0.6252   0.8103     C
H       0.6494   0.3936   0.0447     H
H       0.6494   0.3936   0.9553     H
H       0.6541   0.2559   0.3637     H
H       0.6541   0.2559   0.6363     H
H       0.6555   0.1555   0.2573     H
H       0.6555   0.1555   0.7427     H
C       0.6568   0.7049   0.0399     C
C       0.6568   0.7049   0.9601     C
N       0.6596   0.8404      0.5     N
O      0.66417  0.56963    0.256     O
O      0.66417  0.56963    0.744     O
C       0.6664   0.1664   0.2875     C
C       0.6664   0.1664   0.7125     C
C       0.6664   0.6476   0.1489     C
C       0.6664   0.6476   0.8511     C
C       0.6667   0.2282   0.3513     C
C       0.6667   0.2282   0.6487     C
C       0.6682   0.7136   0.0885     C
C       0.6682   0.7136   0.9115     C
C       0.6688    0.376   0.0242     C
C       0.6688    0.376   0.9758     C
C       0.6692   0.9552   0.3137     C
C       0.6692   0.9552   0.6863     C
H       0.6713   0.1713   0.4555     H
H       0.6713   0.1713   0.5445     H
C       0.6758   0.5858   0.2151     C
C       0.6758   0.5858   0.7849     C
N       0.6774   0.7254      0.0     N
C       0.6783   0.9285   0.3521     C
C       0.6783   0.9285   0.6479     C
H       0.6784   0.8216   0.3193     H
H       0.6784   0.8216   0.6807     H
C        0.679   0.4165   0.1921     C
C        0.679   0.4165   0.8079     C
O      0.67992  0.47396   0.2542     O
O      0.67992  0.47396   0.7458     O
C       0.6835   0.8165    0.397     C
C       0.6835   0.8165    0.603     C
C       0.6858   0.3559    0.131     C
C       0.6858   0.3559    0.869     C
C       0.6898   0.1898   0.4759     C
C       0.6898   0.1898   0.5241     C
C       0.6924   0.8076   0.3467     C
C       0.6924   0.8076   0.6533     C
H       0.6935   0.6367   0.1337     H
H       0.6935   0.6367   0.8663     H
H       0.6953   0.7439   0.1819     H
H       0.6953   0.7439   0.8181     H
O       0.6963   0.9986   0.2493     O
O       0.6963   0.9986   0.7507     O
C       0.6971     0.46   0.2142     C
C       0.6971     0.46   0.7858     C
C       0.7002   0.7458   0.1031     C
C       0.7002   0.7458   0.8969     C
C       0.7018   0.3969   0.1516     C
C       0.7018   0.3969   0.8484     C
C       0.7043   0.9823     0.29     C
C       0.7043   0.9823     0.71     C
C       0.7046   0.1453   0.3109     C
C       0.7046   0.1453   0.6891     C
C       0.7049   0.3432   0.0399     C
C       0.7049   0.3432   0.9601     C
Cu     0.70507   0.5279  0.29091    Cu
Cu     0.70507   0.5279  0.70909    Cu
Ni     0.70647  0.79353      0.5    Ni
N       0.7067   0.7933   0.4292     N
N       0.7067   0.7933   0.5708     N
C       0.7082   0.2082   0.3726     C
C       0.7082   0.2082   0.6274     C
H       0.7088   0.9268    0.364     H
H       0.7088   0.9268    0.636     H
C       0.7096   0.7571   0.1543     C
C       0.7096   0.7571   0.8457     C
O       0.7124   0.0899   0.2449     O
O       0.7124   0.0899   0.7551     O
O        0.713   0.5735   0.1898     O
O        0.713   0.5735   0.8102     O
C       0.7136   0.3318   0.0885     C
C       0.7136   0.3318   0.9115     C
C       0.7234   0.7766   0.3473     C
C       0.7234   0.7766   0.6527     C
C       0.7242   0.2242     0.46     C
C       0.7242   0.2242     0.54     C
N       0.7253   0.7747    0.072     N
N       0.7253   0.7747    0.928     N
N       0.7254   0.3226      0.0     N
Ni     0.72587  0.77413      0.0    Ni
C        0.726   0.1024   0.2876     C
C        0.726   0.1024   0.7124     C
H        0.728   0.4117   0.1383     H
H        0.728   0.4117   0.8617     H
C       0.7282   0.1667   0.3513     C
C       0.7282   0.1667   0.6487     C
O       0.7311  0.47843   0.1933     O
O       0.7311  0.47843   0.8067     O
C       0.7328   0.7672   0.3974     C
C       0.7328   0.7672   0.6026     C
C        0.735    0.235   0.4117     C
C        0.735    0.235   0.5883     C
Cu     0.73662  0.03505  0.21372    Cu
Cu     0.73662  0.03505  0.78628    Cu
H       0.7374   0.7626   0.3201     H
H       0.7374   0.7626   0.6799     H
O       0.7401   0.5836   0.3122     O
O       0.7401   0.5836   0.6878     O
C       0.7429   0.7904   0.1543     C
C       0.7429   0.7904   0.8457     C
H       0.7439   0.3047   0.1819     H
H       0.7439   0.3047   0.8181     H
H       0.7441   0.6541   0.3637     H
H       0.7441   0.6541   0.6363     H
O       0.7441   0.9883   0.3155     O
O       0.7441   0.9883   0.6845     O
N       0.7445   0.2445      0.5     N
C       0.7458   0.2998   0.1031     C
C       0.7458   0.2998   0.8969     C
C       0.7542   0.7998   0.1031     C
C       0.7542   0.7998   0.8969     C
N       0.7555   0.7445      0.5     N
H       0.7559   0.1541   0.3637     H
H       0.7559   0.1541   0.6363     H
O       0.7559   0.4883   0.3155     O
O       0.7559   0.4883   0.6845     O
H       0.7561   0.8047   0.1819     H
H       0.7561   0.8047   0.8181     H
C       0.7571   0.2904   0.1543     C
C       0.7571   0.2904   0.8457     C
O       0.7599   0.0836   0.3122     O
O       0.7599   0.0836   0.6878     O
H       0.7626   0.2626   0.3201     H
H       0.7626   0.2626   0.6799     H
Cu     0.76338  0.53505  0.21372    Cu
Cu     0.76338  0.53505  0.78628    Cu
C        0.765    0.735   0.4117     C
C        0.765    0.735   0.5883     C
C       0.7672   0.2672   0.3974     C
C       0.7672   0.2672   0.6026     C
O       0.7689  0.97843   0.1933     O
O       0.7689  0.97843   0.8067     O
C       0.7718   0.6667   0.3513     C
C       0.7718   0.6667   0.6487     C
H        0.772   0.9117   0.1383     H
H        0.772   0.9117   0.8617     H
C        0.774   0.6024   0.2876     C
C        0.774   0.6024   0.7124     C
Ni     0.77413  0.27413      0.0    Ni
N       0.7746   0.8226      0.0     N
N       0.7747   0.2747    0.072     N
N       0.7747   0.2747    0.928     N
C       0.7758   0.7242     0.46     C
C       0.7758   0.7242     0.54     C
C       0.7766   0.2766   0.3473     C
C       0.7766   0.2766   0.6527     C
C       0.7864   0.8318   0.0885     C
C       0.7864   0.8318   0.9115     C
O        0.787   0.0735   0.1898     O
O        0.787   0.0735   0.8102     O
O       0.7876   0.5899   0.2449     O
O       0.7876   0.5899   0.7551     O
C       0.7904   0.2571   0.1543     C
C       0.7904   0.2571   0.8457     C
H       0.7912   0.4268    0.364     H
H       0.7912   0.4268    0.636     H
C       0.7918   0.7082   0.3726     C
C       0.7918   0.7082   0.6274     C
N       0.7933   0.2933   0.4292     N
N       0.7933   0.2933   0.5708     N
Ni     0.79353  0.29353      0.5    Ni
Cu     0.79493   0.0279  0.29091    Cu
Cu     0.79493   0.0279  0.70909    Cu
C       0.7951   0.8432   0.0399     C
C       0.7951   0.8432   0.9601     C
C       0.7954   0.6453   0.3109     C
C       0.7954   0.6453   0.6891     C
C       0.7957   0.4823     0.29     C
C       0.7957   0.4823     0.71     C
C       0.7982   0.8969   0.1516     C
C       0.7982   0.8969   0.8484     C
C       0.7998   0.2458   0.1031     C
C       0.7998   0.2458   0.8969     C
C       0.8029     0.96   0.2142     C
C       0.8029     0.96   0.7858     C
O       0.8037   0.4986   0.2493     O
O       0.8037   0.4986   0.7507     O
H       0.8047   0.2439   0.1819     H
H       0.8047   0.2439   0.8181     H
H       0.8065   0.1367   0.1337     H
H       0.8065   0.1367   0.8663     H
C       0.8076   0.3076   0.3467     C
C       0.8076   0.3076   0.6533     C
C       0.8102   0.6898   0.4759     C
C       0.8102   0.6898   0.5241     C
C       0.8142   0.8559    0.131     C
C       0.8142   0.8559    0.869     C
C       0.8165   0.3165    0.397     C
C       0.8165   0.3165    0.603     C
O      0.82008  0.97396   0.2542     O
O      0.82008  0.97396   0.7458     O
C        0.821   0.9165   0.1921     C
C        0.821   0.9165   0.8079     C
H       0.8216   0.3216   0.3193     H
H       0.8216   0.3216   0.6807     H
C       0.8217   0.4285   0.3521     C
C       0.8217   0.4285   0.6479     C
N       0.8226   0.2254      0.0     N
C       0.8242   0.0858   0.2151     C
C       0.8242   0.0858   0.7849     C
H       0.8287   0.6713   0.4555     H
H       0.8287   0.6713   0.5445     H
C       0.8308   0.4552   0.3137     C
C       0.8308   0.4552   0.6863     C
C       0.8312    0.876   0.0242     C
C       0.8312    0.876   0.9758     C
C       0.8318   0.2136   0.0885     C
C       0.8318   0.2136   0.9115     C
C       0.8333   0.7282   0.3513     C
C       0.8333   0.7282   0.6487     C
C       0.8336   0.1476   0.1489     C
C       0.8336   0.1476   0.8511     C
C       0.8336   0.6664   0.2875     C
C       0.8336   0.6664   0.7125     C
O      0.83583  0.06963    0.256     O
O      0.83583  0.06963    0.744     O
N       0.8404   0.3404      0.5     N
C       0.8432   0.2049   0.0399     C
C       0.8432   0.2049   0.9601     C
H       0.8445   0.6555   0.2573     H
H       0.8445   0.6555   0.7427     H
H       0.8459   0.7559   0.3637     H
H       0.8459   0.7559   0.6363     H
H       0.8506   0.8936   0.0447     H
H       0.8506   0.8936   0.9553     H
C       0.8513   0.1252   0.1897     C
C       0.8513   0.1252   0.8103     C
C       0.8518   0.3518   0.4121     C
C       0.8518   0.3518   0.5879     C
C       0.8524   0.8336   0.1489     C
C       0.8524   0.8336   0.8511     C
C       0.8547   0.7046   0.3109     C
C       0.8547   0.7046   0.6891     C
C       0.8556   0.4036   0.3744     C
C       0.8556   0.4036   0.6256     C
C       0.8559   0.1858    0.131     C
C       0.8559   0.1858    0.869     C
C       0.8594   0.8928   0.2121     C
C       0.8594   0.8928   0.7879     C
C       0.8611   0.3611   0.4646     C
C       0.8611   0.3611   0.5354     C
H       0.8633   0.8065   0.1337     H
H       0.8633   0.8065   0.8663     H
H       0.8745   0.9045     0.24     H
H       0.8745   0.9045     0.76     H
C       0.8748   0.8513   0.1897     C
C       0.8748   0.8513   0.8103     C
C        0.876   0.1688   0.0242     C
C        0.876   0.1688   0.9758     C
C       0.8871   0.4661   0.3037     C
C       0.8871   0.4661   0.6963     C
C       0.8928   0.1406   0.2121     C
C       0.8928   0.1406   0.7879     C
H       0.8936   0.1494   0.0447     H
H       0.8936   0.1494   0.9553     H
H       0.8939   0.4955   0.2908     H
H       0.8939   0.4955   0.7092     H
C       0.8961   0.3961   0.4756     C
C       0.8961   0.3961   0.5244     C
C       0.8969   0.2018   0.1516     C
C       0.8969   0.2018   0.8484     C
C       0.8976    0.726   0.2876     C
C       0.8976    0.726   0.7124     C
C       0.9018   0.4018   0.3587     C
C       0.9018   0.4018   0.6413     C
C       0.9036   0.3556   0.3744     C
C       0.9036   0.3556   0.6256     C
H       0.9045   0.1255     0.24     H
H       0.9045   0.1255     0.76     H
O       0.9101   0.7124   0.2449     O
O       0.9101   0.7124   0.7551     O
H       0.9117    0.228   0.1383     H
H       0.9117    0.228   0.8617     H
H        0.914    0.414    0.454     H
H        0.914    0.414    0.546     H
C       0.9142   0.8242   0.2151     C
C       0.9142   0.8242   0.7849     C
O       0.9164   0.7599   0.3122     O
O       0.9164   0.7599   0.6878     O
C       0.9165    0.179   0.1921     C
C       0.9165    0.179   0.8079     C
O       0.9265    0.787   0.1898     O
O       0.9265    0.787   0.8102     O
H       0.9268   0.2912    0.364     H
H       0.9268   0.2912    0.636     H
C       0.9285   0.3217   0.3521     C
C       0.9285   0.3217   0.6479     C
O      0.93037  0.83583    0.256     O
O      0.93037  0.83583    0.744     O
C       0.9323   0.4323   0.3134     C
C       0.9323   0.4323   0.6866     C
C       0.9552   0.3308   0.3137     C
C       0.9552   0.3308   0.6863     C
C         0.96   0.1971   0.2142     C
C         0.96   0.1971   0.7858     C
Cu     0.96495  0.73662  0.21372    Cu
Cu     0.96495  0.73662  0.78628    Cu
C       0.9661   0.3871   0.3037     C
C       0.9661   0.3871   0.6963     C
Cu      0.9721  0.79493  0.29091    Cu
Cu      0.9721  0.79493  0.70909    Cu
O      0.97396  0.17992   0.2542     O
O      0.97396  0.17992   0.7458     O
O      0.97843   0.2311   0.1933     O
O      0.97843   0.2311   0.8067     O
C       0.9823   0.2957     0.29     C
C       0.9823   0.2957     0.71     C
O       0.9883   0.2559   0.3155     O
O       0.9883   0.2559   0.6845     O
H       0.9955   0.3939   0.2908     H
H       0.9955   0.3939   0.7092     H
O       0.9986   0.3037   0.2493     O
O       0.9986   0.3037   0.7507     O
