data_I
_chemical_name_common  '/home/zhangsd/repos/MofS-CGCNN/ML/data/TSD/clean_cifs/KOFVOS_clean'
_cell_length_a 13.85400
_cell_length_b 11.41100
_cell_length_c 17.71000
_cell_angle_alpha 90.00000
_cell_angle_beta  128.10900
_cell_angle_gamma 90.00000
_space_group_name_H-M_alt      'P 1'


loop_
_space_group_symop_operation_xyz
  'x, y, z' 

loop_
_atom_site_label
_atom_site_fract_x
_atom_site_fract_y
_atom_site_fract_z
_atom_site_type_symbol
Ni         0.0      0.0      0.0    Ni
Ni         0.0      0.5      0.5    Ni
C       0.0287   0.1727   0.8886     C
C       0.0287   0.3273   0.3886     C
C       0.0397   0.1288   0.1617     C
C       0.0397   0.3712   0.6617     C
N       0.0608    0.225    0.289     N
N       0.0608    0.275    0.789     N
O       0.0747   0.6385    0.382     O
O       0.0747   0.8615    0.882     O
O       0.0756   0.1152   0.9637     O
O       0.0756   0.3848   0.4637     O
O       0.0831    0.694   0.6749     O
O       0.0831    0.806   0.1749     O
O       0.0881   0.0848   0.1286     O
O       0.0881   0.4152   0.6286     O
C       0.1151   0.2175   0.8715     C
C       0.1151   0.2825   0.3715     C
Ni     0.12142  0.72402  0.30141    Ni
Ni     0.12142  0.77598  0.80141    Ni
C       0.1217   0.1797   0.2605     C
C       0.1217   0.3203   0.7605     C
O       0.1471   0.6187   0.8725     O
O       0.1471   0.8813   0.3725     O
O        0.179   0.5684   0.2744     O
O        0.179   0.9316   0.7744     O
C       0.2421   0.2078   0.9351     C
C       0.2421   0.2922   0.4351     C
C       0.2502    0.185   0.3209     C
C       0.2502    0.315   0.8209     C
C       0.2575   0.5889   0.9373     C
C       0.2575   0.9111   0.4373     C
H       0.2812   0.1652   0.9933     H
H       0.2812   0.3348   0.4933     H
O       0.2919   0.5019    0.989     O
O       0.2919   0.9981    0.489     O
C       0.2946   0.5551   0.3265     C
C       0.2946   0.9449   0.8265     C
H       0.2948   0.1537   0.3011     H
H       0.2948   0.3463   0.8011     H
N       0.3015    0.734    0.394     N
N       0.3015    0.766    0.894     N
C       0.3117   0.2379   0.4117     C
C       0.3117   0.2621   0.9117     C
O       0.3473   0.0307   0.8217     O
O       0.3473   0.4693   0.3217     O
C       0.3527   0.6723   0.9528     C
C       0.3527   0.8277   0.4528     C
C       0.3693   0.6485   0.3966     C
C       0.3693   0.8515   0.8966     C
C        0.447   0.2487   0.4773     C
C        0.447   0.2513   0.9773     C
H       0.4549   0.0917   0.0355     H
H       0.4549   0.4083   0.5355     H
C       0.4779   0.6624   0.0174     C
C       0.4779   0.8376   0.5174     C
H       0.4864   0.0963   0.4412     H
H       0.4864   0.4037   0.9412     H
C       0.4967   0.6534   0.4615     C
C       0.4967   0.8466   0.9615     C
C       0.5033   0.1534   0.0385     C
C       0.5033   0.3466   0.5385     C
H       0.5136   0.5963   0.0588     H
H       0.5136   0.9037   0.5588     H
C       0.5221   0.1624   0.4826     C
C       0.5221   0.3376   0.9826     C
H       0.5451   0.5917   0.4645     H
H       0.5451   0.9083   0.9645     H
C        0.553   0.7487   0.0227     C
C        0.553   0.7513   0.5227     C
C       0.6307   0.1485   0.1034     C
C       0.6307   0.3515   0.6034     C
C       0.6473   0.1723   0.5472     C
C       0.6473   0.3277   0.0472     C
O       0.6527   0.5307   0.6783     O
O       0.6527   0.9693   0.1783     O
C       0.6883   0.7379   0.0883     C
C       0.6883   0.7621   0.5883     C
N       0.6985    0.234    0.106     N
N       0.6985    0.266    0.606     N
H       0.7052   0.6537   0.1989     H
H       0.7052   0.8463   0.6989     H
C       0.7054   0.0551   0.1735     C
C       0.7054   0.4449   0.6735     C
O       0.7081   0.0019    0.511     O
O       0.7081   0.4981    0.011     O
H       0.7188   0.6652   0.5067     H
H       0.7188   0.8348   0.0067     H
C       0.7425   0.0889   0.5627     C
C       0.7425   0.4111   0.0627     C
C       0.7498    0.685   0.1791     C
C       0.7498    0.815   0.6791     C
C       0.7579   0.7078   0.5649     C
C       0.7579   0.7922   0.0649     C
O        0.821   0.0684   0.2256     O
O        0.821   0.4316   0.7256     O
O       0.8529   0.1187   0.6275     O
O       0.8529   0.3813   0.1275     O
C       0.8783   0.6797   0.2395     C
C       0.8783   0.8203   0.7395     C
Ni     0.87858  0.22402  0.19859    Ni
Ni     0.87858  0.27598  0.69859    Ni
C       0.8849   0.7175   0.6285     C
C       0.8849   0.7825   0.1285     C
O       0.9119   0.5848   0.3714     O
O       0.9119   0.9152   0.8714     O
O       0.9169    0.194   0.8251     O
O       0.9169    0.306   0.3251     O
O       0.9244   0.6152   0.5363     O
O       0.9244   0.8848   0.0363     O
O       0.9253   0.1385    0.118     O
O       0.9253   0.3615    0.618     O
N       0.9392    0.725    0.211     N
N       0.9392    0.775    0.711     N
C       0.9603   0.6288   0.3383     C
C       0.9603   0.8712   0.8383     C
C       0.9713   0.6727   0.6114     C
C       0.9713   0.8273   0.1114     C
