data_I
_chemical_name_common  '/home/zhangsd/repos/MofS-CGCNN/ML/data/TSD/clean_cifs/KOMJIH_clean'
_cell_length_a 26.17900
_cell_length_b 26.17900
_cell_length_c 26.17900
_cell_angle_alpha 90.00000
_cell_angle_beta  90.00000
_cell_angle_gamma 90.00000
_space_group_name_H-M_alt      'P 1'


loop_
_space_group_symop_operation_xyz
  'x, y, z' 

loop_
_atom_site_label
_atom_site_fract_x
_atom_site_fract_y
_atom_site_fract_z
_atom_site_type_symbol
Cd         0.0      0.0      0.0    Cd
Ho         0.0      0.0     0.25    Ho
Cd         0.0      0.0      0.5    Cd
Ho         0.0      0.0     0.75    Ho
O          0.0   0.0656   0.8156     O
O          0.0   0.1844   0.4344     O
Ho         0.0     0.25      0.0    Ho
Cd         0.0     0.25     0.25    Cd
Ho         0.0     0.25      0.5    Ho
Cd         0.0     0.25     0.75    Cd
O          0.0   0.3156   0.0656     O
O          0.0   0.4344   0.6844     O
Cd         0.0      0.5      0.0    Cd
Ho         0.0      0.5     0.25    Ho
Cd         0.0      0.5      0.5    Cd
Ho         0.0      0.5     0.75    Ho
O          0.0   0.5656   0.3156     O
O          0.0   0.6844   0.9344     O
Ho         0.0     0.75      0.0    Ho
Cd         0.0     0.75     0.25    Cd
Ho         0.0     0.75      0.5    Ho
Cd         0.0     0.75     0.75    Cd
O          0.0   0.8156   0.5656     O
O          0.0   0.9344   0.1844     O
C       0.0012   0.1236   0.2587     C
C       0.0012   0.1264   0.9913     C
C       0.0012   0.2587   0.6236     C
C       0.0012   0.4913   0.1264     C
C       0.0012   0.6236   0.7587     C
C       0.0012   0.6264   0.4913     C
C       0.0012   0.7587   0.1236     C
C       0.0012   0.9913   0.6264     C
C       0.0031   0.0546   0.8674     C
C       0.0031   0.1954   0.3826     C
C       0.0031   0.3674   0.0546     C
C       0.0031   0.3826   0.6954     C
C       0.0031   0.5546   0.3674     C
C       0.0031   0.6954   0.8826     C
C       0.0031   0.8674   0.5546     C
C       0.0031   0.8826   0.1954     C
C       0.0087   0.2512   0.3764     C
C       0.0087   0.3736   0.9988     C
C       0.0087   0.3764   0.7512     C
C       0.0087   0.4988   0.3736     C
C       0.0087   0.7512   0.8764     C
C       0.0087   0.8736   0.4988     C
C       0.0087   0.8764   0.2512     C
C       0.0087   0.9988   0.8736     C
O       0.0089     0.28   0.4157     O
O       0.0089   0.3343     0.97     O
O       0.0089   0.4157     0.78     O
O       0.0089     0.47   0.3343     O
O       0.0089     0.78   0.9157     O
O       0.0089   0.8343     0.47     O
O       0.0089   0.9157     0.28     O
O       0.0089     0.97   0.8343     O
O       0.0142   0.2722   0.3325     O
O       0.0142   0.3325   0.7722     O
O       0.0142   0.4175   0.9778     O
O       0.0142   0.4778   0.4175     O
O       0.0142   0.7722   0.8325     O
O       0.0142   0.8325   0.2722     O
O       0.0142   0.9175   0.4778     O
O       0.0142   0.9778   0.9175     O
O       0.0222   0.0825   0.9858     O
O       0.0222   0.1675   0.2642     O
O       0.0222   0.2642   0.6675     O
O       0.0222   0.4858   0.0825     O
O       0.0222   0.5825   0.4858     O
O       0.0222   0.6675   0.7642     O
O       0.0222   0.7642   0.1675     O
O       0.0222   0.9858   0.5825     O
H       0.0276   0.1153   0.4338     H
H       0.0276   0.1347   0.8162     H
H       0.0276   0.3162   0.1347     H
H       0.0276   0.4338   0.6153     H
H       0.0276   0.6153   0.9338     H
H       0.0276   0.6347   0.3162     H
H       0.0276   0.8162   0.6347     H
H       0.0276   0.9338   0.1153     H
O         0.03   0.0843   0.2589     O
O         0.03   0.1657   0.9911     O
O         0.03   0.2589   0.5843     O
O         0.03   0.4911   0.1657     O
O         0.03   0.5843   0.7589     O
O         0.03   0.6657   0.4911     O
O         0.03   0.7589   0.0843     O
O         0.03   0.9911   0.6657     O
H       0.0321    0.072   0.8824     H
H       0.0321    0.178   0.3676     H
H       0.0321   0.3676    0.678     H
H       0.0321   0.3824    0.072     H
H       0.0321    0.572   0.3824     H
H       0.0321    0.678   0.8676     H
H       0.0321   0.8676    0.178     H
H       0.0321   0.8824    0.572     H
C       0.0546   0.0031   0.3674     C
C       0.0546   0.2469   0.8826     C
C       0.0546   0.3674   0.5031     C
C       0.0546   0.3826   0.2469     C
C       0.0546   0.5031   0.8674     C
C       0.0546   0.7469   0.3826     C
C       0.0546   0.8674   0.0031     C
C       0.0546   0.8826   0.7469     C
O       0.0656      0.0   0.3156     O
O       0.0656     0.25   0.9344     O
O       0.0656   0.3156      0.5     O
O       0.0656   0.4344     0.25     O
O       0.0656      0.5   0.8156     O
O       0.0656     0.75   0.4344     O
O       0.0656   0.8156      0.0     O
O       0.0656   0.9344     0.75     O
H       0.0662   0.2776   0.8653     H
H       0.0662   0.3653   0.2776     H
H       0.0662   0.3847   0.4724     H
H       0.0662   0.4724   0.8847     H
H       0.0662   0.7776   0.3653     H
H       0.0662   0.8653   0.7776     H
H       0.0662   0.8847   0.9724     H
H       0.0662   0.9724   0.3847     H
H        0.072   0.0321   0.3824     H
H        0.072   0.2179   0.8676     H
H        0.072   0.3676   0.2179     H
H        0.072   0.3824   0.5321     H
H        0.072   0.5321   0.8824     H
H        0.072   0.7179   0.3676     H
H        0.072   0.8676   0.7179     H
H        0.072   0.8824   0.0321     H
O       0.0825   0.0222   0.4858     O
O       0.0825   0.2278   0.7642     O
O       0.0825   0.2642   0.2278     O
O       0.0825   0.4858   0.5222     O
O       0.0825   0.5222   0.9858     O
O       0.0825   0.7278   0.2642     O
O       0.0825   0.7642   0.7278     O
O       0.0825   0.9858   0.0222     O
O       0.0843     0.03   0.7589     O
O       0.0843     0.22   0.4911     O
O       0.0843   0.2589     0.03     O
O       0.0843   0.4911     0.72     O
O       0.0843     0.53   0.2589     O
O       0.0843     0.72   0.9911     O
O       0.0843   0.7589     0.53     O
O       0.0843   0.9911     0.22     O
H       0.1153   0.0276   0.9338     H
H       0.1153   0.2224   0.3162     H
H       0.1153   0.3162   0.7224     H
H       0.1153   0.4338   0.0276     H
H       0.1153   0.5276   0.4338     H
H       0.1153   0.7224   0.8162     H
H       0.1153   0.8162   0.2224     H
H       0.1153   0.9338   0.5276     H
C       0.1174   0.2531   0.9454     C
C       0.1174   0.3046   0.4969     C
C       0.1174   0.4454   0.2531     C
C       0.1174   0.4969   0.8046     C
C       0.1174   0.7531   0.4454     C
C       0.1174   0.8046   0.9969     C
C       0.1174   0.9454   0.7531     C
C       0.1174   0.9969   0.3046     C
H       0.1176   0.2821    0.322     H
H       0.1176    0.322   0.7821     H
H       0.1176    0.428   0.9679     H
H       0.1176   0.4679    0.428     H
H       0.1176   0.7821    0.822     H
H       0.1176    0.822   0.2821     H
H       0.1176    0.928   0.4679     H
H       0.1176   0.9679    0.928     H
C       0.1236   0.0012   0.7587     C
C       0.1236   0.2488   0.4913     C
C       0.1236   0.2587   0.0012     C
C       0.1236   0.4913   0.7488     C
C       0.1236   0.5012   0.2587     C
C       0.1236   0.7488   0.9913     C
C       0.1236   0.7587   0.5012     C
C       0.1236   0.9913   0.2488     C
C       0.1264   0.0012   0.4913     C
C       0.1264   0.2488   0.7587     C
C       0.1264   0.2587   0.2488     C
C       0.1264   0.4913   0.5012     C
C       0.1264   0.5012   0.9913     C
C       0.1264   0.7488   0.2587     C
C       0.1264   0.7587   0.7488     C
C       0.1264   0.9913   0.0012     C
H       0.1324   0.2821    0.928     H
H       0.1324    0.322   0.4679     H
H       0.1324    0.428   0.2821     H
H       0.1324   0.4679    0.822     H
H       0.1324   0.7821    0.428     H
H       0.1324    0.822   0.9679     H
H       0.1324    0.928   0.7821     H
H       0.1324   0.9679    0.322     H
C       0.1326   0.2531   0.3046     C
C       0.1326   0.3046   0.7531     C
C       0.1326   0.4454   0.9969     C
C       0.1326   0.4969   0.4454     C
C       0.1326   0.7531   0.8046     C
C       0.1326   0.8046   0.2531     C
C       0.1326   0.9454   0.4969     C
C       0.1326   0.9969   0.9454     C
H       0.1347   0.0276   0.3162     H
H       0.1347   0.2224   0.9338     H
H       0.1347   0.3162   0.5276     H
H       0.1347   0.4338   0.2224     H
H       0.1347   0.5276   0.8162     H
H       0.1347   0.7224   0.4338     H
H       0.1347   0.8162   0.0276     H
H       0.1347   0.9338   0.7224     H
O       0.1657     0.03   0.4911     O
O       0.1657     0.22   0.7589     O
O       0.1657   0.2589     0.22     O
O       0.1657   0.4911     0.53     O
O       0.1657     0.53   0.9911     O
O       0.1657     0.72   0.2589     O
O       0.1657   0.7589     0.72     O
O       0.1657   0.9911     0.03     O
O       0.1675   0.0222   0.7642     O
O       0.1675   0.2278   0.4858     O
O       0.1675   0.2642   0.0222     O
O       0.1675   0.4858   0.7278     O
O       0.1675   0.5222   0.2642     O
O       0.1675   0.7278   0.9858     O
O       0.1675   0.7642   0.5222     O
O       0.1675   0.9858   0.2278     O
H        0.178   0.0321   0.8676     H
H        0.178   0.2179   0.3824     H
H        0.178   0.3676   0.0321     H
H        0.178   0.3824   0.7179     H
H        0.178   0.5321   0.3676     H
H        0.178   0.7179   0.8824     H
H        0.178   0.8676   0.5321     H
H        0.178   0.8824   0.2179     H
H       0.1838   0.2776   0.3847     H
H       0.1838   0.3653   0.9724     H
H       0.1838   0.3847   0.7776     H
H       0.1838   0.4724   0.3653     H
H       0.1838   0.7776   0.8847     H
H       0.1838   0.8653   0.4724     H
H       0.1838   0.8847   0.2776     H
H       0.1838   0.9724   0.8653     H
O       0.1844      0.0   0.9344     O
O       0.1844     0.25   0.3156     O
O       0.1844   0.3156     0.75     O
O       0.1844   0.4344      0.0     O
O       0.1844      0.5   0.4344     O
O       0.1844     0.75   0.8156     O
O       0.1844   0.8156     0.25     O
O       0.1844   0.9344      0.5     O
C       0.1954   0.0031   0.8826     C
C       0.1954   0.2469   0.3674     C
C       0.1954   0.3674   0.7469     C
C       0.1954   0.3826   0.0031     C
C       0.1954   0.5031   0.3826     C
C       0.1954   0.7469   0.8674     C
C       0.1954   0.8674   0.2469     C
C       0.1954   0.8826   0.5031     C
H       0.2179    0.072   0.3676     H
H       0.2179    0.178   0.8824     H
H       0.2179   0.3676    0.572     H
H       0.2179   0.3824    0.178     H
H       0.2179    0.572   0.8676     H
H       0.2179    0.678   0.3824     H
H       0.2179   0.8676    0.072     H
H       0.2179   0.8824    0.678     H
O         0.22   0.0843   0.9911     O
O         0.22   0.1657   0.2589     O
O         0.22   0.2589   0.6657     O
O         0.22   0.4911   0.0843     O
O         0.22   0.5843   0.4911     O
O         0.22   0.6657   0.7589     O
O         0.22   0.7589   0.1657     O
O         0.22   0.9911   0.5843     O
H       0.2224   0.1153   0.8162     H
H       0.2224   0.1347   0.4338     H
H       0.2224   0.3162   0.1153     H
H       0.2224   0.4338   0.6347     H
H       0.2224   0.6153   0.3162     H
H       0.2224   0.6347   0.9338     H
H       0.2224   0.8162   0.6153     H
H       0.2224   0.9338   0.1347     H
O       0.2278   0.0825   0.2642     O
O       0.2278   0.1675   0.9858     O
O       0.2278   0.2642   0.5825     O
O       0.2278   0.4858   0.1675     O
O       0.2278   0.5825   0.7642     O
O       0.2278   0.6675   0.4858     O
O       0.2278   0.7642   0.0825     O
O       0.2278   0.9858   0.6675     O
O       0.2358   0.2722   0.9175     O
O       0.2358   0.3325   0.4778     O
O       0.2358   0.4175   0.2722     O
O       0.2358   0.4778   0.8325     O
O       0.2358   0.7722   0.4175     O
O       0.2358   0.8325   0.9778     O
O       0.2358   0.9175   0.7722     O
O       0.2358   0.9778   0.3325     O
O       0.2411     0.28   0.8343     O
O       0.2411   0.3343     0.28     O
O       0.2411   0.4157     0.47     O
O       0.2411     0.47   0.9157     O
O       0.2411     0.78   0.3343     O
O       0.2411   0.8343     0.78     O
O       0.2411   0.9157     0.97     O
O       0.2411     0.97   0.4157     O
C       0.2413   0.2512   0.8736     C
C       0.2413   0.3736   0.2512     C
C       0.2413   0.3764   0.4988     C
C       0.2413   0.4988   0.8764     C
C       0.2413   0.7512   0.3736     C
C       0.2413   0.8736   0.7512     C
C       0.2413   0.8764   0.9988     C
C       0.2413   0.9988   0.3764     C
C       0.2469   0.0546   0.3826     C
C       0.2469   0.1954   0.8674     C
C       0.2469   0.3674   0.1954     C
C       0.2469   0.3826   0.5546     C
C       0.2469   0.5546   0.8826     C
C       0.2469   0.6954   0.3674     C
C       0.2469   0.8674   0.6954     C
C       0.2469   0.8826   0.0546     C
C       0.2488   0.1236   0.9913     C
C       0.2488   0.1264   0.2587     C
C       0.2488   0.2587   0.6264     C
C       0.2488   0.4913   0.1236     C
C       0.2488   0.6236   0.4913     C
C       0.2488   0.6264   0.7587     C
C       0.2488   0.7587   0.1264     C
C       0.2488   0.9913   0.6236     C
Ho        0.25      0.0      0.0    Ho
Cd        0.25      0.0     0.25    Cd
Ho        0.25      0.0      0.5    Ho
Cd        0.25      0.0     0.75    Cd
O         0.25   0.0656   0.4344     O
O         0.25   0.1844   0.8156     O
Cd        0.25     0.25      0.0    Cd
Ho        0.25     0.25     0.25    Ho
Cd        0.25     0.25      0.5    Cd
Ho        0.25     0.25     0.75    Ho
O         0.25   0.3156   0.1844     O
O         0.25   0.4344   0.5656     O
Ho        0.25      0.5      0.0    Ho
Cd        0.25      0.5     0.25    Cd
Ho        0.25      0.5      0.5    Ho
Cd        0.25      0.5     0.75    Cd
O         0.25   0.5656   0.9344     O
O         0.25   0.6844   0.3156     O
Cd        0.25     0.75      0.0    Cd
Ho        0.25     0.75     0.25    Ho
Cd        0.25     0.75      0.5    Cd
Ho        0.25     0.75     0.75    Ho
O         0.25   0.8156   0.6844     O
O         0.25   0.9344   0.0656     O
C       0.2512   0.0087   0.8764     C
C       0.2512   0.2413   0.3736     C
C       0.2512   0.3736   0.7413     C
C       0.2512   0.3764   0.0087     C
C       0.2512   0.5087   0.3764     C
C       0.2512   0.7413   0.8736     C
C       0.2512   0.8736   0.2413     C
C       0.2512   0.8764   0.5087     C
C       0.2531   0.1174   0.4454     C
C       0.2531   0.1326   0.8046     C
C       0.2531   0.3046   0.1326     C
C       0.2531   0.4454   0.6174     C
C       0.2531   0.6174   0.9454     C
C       0.2531   0.6326   0.3046     C
C       0.2531   0.8046   0.6326     C
C       0.2531   0.9454   0.1174     C
C       0.2587   0.0012   0.1236     C
C       0.2587   0.1236   0.5012     C
C       0.2587   0.1264   0.7488     C
C       0.2587   0.2488   0.1264     C
C       0.2587   0.5012   0.6236     C
C       0.2587   0.6236   0.0012     C
C       0.2587   0.6264   0.2488     C
C       0.2587   0.7488   0.6264     C
O       0.2589     0.03   0.0843     O
O       0.2589   0.0843     0.53     O
O       0.2589   0.1657     0.72     O
O       0.2589     0.22   0.1657     O
O       0.2589     0.53   0.5843     O
O       0.2589   0.5843     0.03     O
O       0.2589   0.6657     0.22     O
O       0.2589     0.72   0.6657     O
O       0.2642   0.0222   0.1675     O
O       0.2642   0.0825   0.7278     O
O       0.2642   0.1675   0.5222     O
O       0.2642   0.2278   0.0825     O
O       0.2642   0.5222   0.6675     O
O       0.2642   0.5825   0.2278     O
O       0.2642   0.6675   0.0222     O
O       0.2642   0.7278   0.5825     O
O       0.2722   0.0142   0.8325     O
O       0.2722   0.2358   0.4175     O
O       0.2722   0.3325   0.0142     O
O       0.2722   0.4175   0.7358     O
O       0.2722   0.5142   0.3325     O
O       0.2722   0.7358   0.9175     O
O       0.2722   0.8325   0.5142     O
O       0.2722   0.9175   0.2358     O
H       0.2776   0.0662   0.3653     H
H       0.2776   0.1838   0.8847     H
H       0.2776   0.3653   0.5662     H
H       0.2776   0.3847   0.1838     H
H       0.2776   0.5662   0.8653     H
H       0.2776   0.6838   0.3847     H
H       0.2776   0.8653   0.0662     H
H       0.2776   0.8847   0.6838     H
O         0.28   0.0089   0.9157     O
O         0.28   0.2411   0.3343     O
O         0.28   0.3343   0.7411     O
O         0.28   0.4157   0.0089     O
O         0.28   0.5089   0.4157     O
O         0.28   0.7411   0.8343     O
O         0.28   0.8343   0.2411     O
O         0.28   0.9157   0.5089     O
H       0.2821   0.1176    0.822     H
H       0.2821   0.1324    0.428     H
H       0.2821    0.322   0.1176     H
H       0.2821    0.428   0.6324     H
H       0.2821   0.6176    0.322     H
H       0.2821   0.6324    0.928     H
H       0.2821    0.822   0.6176     H
H       0.2821    0.928   0.1324     H
C       0.3046   0.1174   0.9969     C
C       0.3046   0.1326   0.2531     C
C       0.3046   0.2531   0.6326     C
C       0.3046   0.4969   0.1174     C
C       0.3046   0.6174   0.4969     C
C       0.3046   0.6326   0.7531     C
C       0.3046   0.7531   0.1326     C
C       0.3046   0.9969   0.6174     C
O       0.3156      0.0   0.5656     O
O       0.3156   0.0656      0.0     O
O       0.3156   0.1844     0.25     O
O       0.3156     0.25   0.6844     O
O       0.3156      0.5   0.0656     O
O       0.3156   0.5656      0.5     O
O       0.3156   0.6844     0.75     O
O       0.3156     0.75   0.1844     O
H       0.3162   0.0276   0.6347     H
H       0.3162   0.1153   0.2224     H
H       0.3162   0.1347   0.0276     H
H       0.3162   0.2224   0.6153     H
H       0.3162   0.5276   0.1347     H
H       0.3162   0.6153   0.7224     H
H       0.3162   0.6347   0.5276     H
H       0.3162   0.7224   0.1153     H
H        0.322   0.1176   0.2821     H
H        0.322   0.1324   0.9679     H
H        0.322   0.2821   0.6176     H
H        0.322   0.4679   0.1324     H
H        0.322   0.6176   0.7821     H
H        0.322   0.6324   0.4679     H
H        0.322   0.7821   0.1176     H
H        0.322   0.9679   0.6324     H
O       0.3325   0.0142   0.2722     O
O       0.3325   0.2358   0.9778     O
O       0.3325   0.2722   0.5142     O
O       0.3325   0.4778   0.2358     O
O       0.3325   0.5142   0.7722     O
O       0.3325   0.7358   0.4778     O
O       0.3325   0.7722   0.0142     O
O       0.3325   0.9778   0.7358     O
O       0.3343   0.0089     0.47     O
O       0.3343   0.2411     0.78     O
O       0.3343     0.28   0.2411     O
O       0.3343     0.47   0.5089     O
O       0.3343   0.5089     0.97     O
O       0.3343   0.7411     0.28     O
O       0.3343     0.78   0.7411     O
O       0.3343     0.97   0.0089     O
H       0.3653   0.0662   0.7776     H
H       0.3653   0.1838   0.4724     H
H       0.3653   0.2776   0.0662     H
H       0.3653   0.4724   0.6838     H
H       0.3653   0.5662   0.2776     H
H       0.3653   0.6838   0.9724     H
H       0.3653   0.7776   0.5662     H
H       0.3653   0.9724   0.1838     H
C       0.3674   0.0031   0.5546     C
C       0.3674   0.0546   0.0031     C
C       0.3674   0.1954   0.2469     C
C       0.3674   0.2469   0.6954     C
C       0.3674   0.5031   0.0546     C
C       0.3674   0.5546   0.5031     C
C       0.3674   0.6954   0.7469     C
C       0.3674   0.7469   0.1954     C
H       0.3676   0.0321    0.178     H
H       0.3676    0.072   0.7179     H
H       0.3676    0.178   0.5321     H
H       0.3676   0.2179    0.072     H
H       0.3676   0.5321    0.678     H
H       0.3676    0.572   0.2179     H
H       0.3676    0.678   0.0321     H
H       0.3676   0.7179    0.572     H
C       0.3736   0.0087   0.4988     C
C       0.3736   0.2413   0.7512     C
C       0.3736   0.2512   0.2413     C
C       0.3736   0.4988   0.5087     C
C       0.3736   0.5087   0.9988     C
C       0.3736   0.7413   0.2512     C
C       0.3736   0.7512   0.7413     C
C       0.3736   0.9988   0.0087     C
C       0.3764   0.0087   0.2512     C
C       0.3764   0.2413   0.9988     C
C       0.3764   0.2512   0.5087     C
C       0.3764   0.4988   0.2413     C
C       0.3764   0.5087   0.7512     C
C       0.3764   0.7413   0.4988     C
C       0.3764   0.7512   0.0087     C
C       0.3764   0.9988   0.7413     C
H       0.3824   0.0321    0.572     H
H       0.3824    0.072   0.0321     H
H       0.3824    0.178   0.2179     H
H       0.3824   0.2179    0.678     H
H       0.3824   0.5321    0.072     H
H       0.3824    0.572   0.5321     H
H       0.3824    0.678   0.7179     H
H       0.3824   0.7179    0.178     H
C       0.3826   0.0031   0.1954     C
C       0.3826   0.0546   0.7469     C
C       0.3826   0.1954   0.5031     C
C       0.3826   0.2469   0.0546     C
C       0.3826   0.5031   0.6954     C
C       0.3826   0.5546   0.2469     C
C       0.3826   0.6954   0.0031     C
C       0.3826   0.7469   0.5546     C
H       0.3847   0.0662   0.9724     H
H       0.3847   0.1838   0.2776     H
H       0.3847   0.2776   0.6838     H
H       0.3847   0.4724   0.0662     H
H       0.3847   0.5662   0.4724     H
H       0.3847   0.6838   0.7776     H
H       0.3847   0.7776   0.1838     H
H       0.3847   0.9724   0.5662     H
O       0.4157   0.0089     0.28     O
O       0.4157   0.2411     0.97     O
O       0.4157     0.28   0.5089     O
O       0.4157     0.47   0.2411     O
O       0.4157   0.5089     0.78     O
O       0.4157   0.7411     0.47     O
O       0.4157     0.78   0.0089     O
O       0.4157     0.97   0.7411     O
O       0.4175   0.0142   0.4778     O
O       0.4175   0.2358   0.7722     O
O       0.4175   0.2722   0.2358     O
O       0.4175   0.4778   0.5142     O
O       0.4175   0.5142   0.9778     O
O       0.4175   0.7358   0.2722     O
O       0.4175   0.7722   0.7358     O
O       0.4175   0.9778   0.0142     O
H        0.428   0.1176   0.4679     H
H        0.428   0.1324   0.7821     H
H        0.428   0.2821   0.1324     H
H        0.428   0.4679   0.6176     H
H        0.428   0.6176   0.9679     H
H        0.428   0.6324   0.2821     H
H        0.428   0.7821   0.6324     H
H        0.428   0.9679   0.1176     H
H       0.4338   0.0276   0.1153     H
H       0.4338   0.1153   0.5276     H
H       0.4338   0.1347   0.7224     H
H       0.4338   0.2224   0.1347     H
H       0.4338   0.5276   0.6153     H
H       0.4338   0.6153   0.0276     H
H       0.4338   0.6347   0.2224     H
H       0.4338   0.7224   0.6347     H
O       0.4344      0.0   0.1844     O
O       0.4344   0.0656     0.75     O
O       0.4344   0.1844      0.5     O
O       0.4344     0.25   0.0656     O
O       0.4344      0.5   0.6844     O
O       0.4344   0.5656     0.25     O
O       0.4344   0.6844      0.0     O
O       0.4344     0.75   0.5656     O
C       0.4454   0.1174   0.7531     C
C       0.4454   0.1326   0.4969     C
C       0.4454   0.2531   0.1174     C
C       0.4454   0.4969   0.6326     C
C       0.4454   0.6174   0.2531     C
C       0.4454   0.6326   0.9969     C
C       0.4454   0.7531   0.6174     C
C       0.4454   0.9969   0.1326     C
H       0.4679   0.1176    0.928     H
H       0.4679   0.1324    0.322     H
H       0.4679    0.322   0.6324     H
H       0.4679    0.428   0.1176     H
H       0.4679   0.6176    0.428     H
H       0.4679   0.6324    0.822     H
H       0.4679    0.822   0.1324     H
H       0.4679    0.928   0.6176     H
O         0.47   0.0089   0.8343     O
O         0.47   0.2411   0.4157     O
O         0.47   0.3343   0.0089     O
O         0.47   0.4157   0.7411     O
O         0.47   0.5089   0.3343     O
O         0.47   0.7411   0.9157     O
O         0.47   0.8343   0.5089     O
O         0.47   0.9157   0.2411     O
H       0.4724   0.0662   0.3847     H
H       0.4724   0.1838   0.8653     H
H       0.4724   0.3653   0.1838     H
H       0.4724   0.3847   0.5662     H
H       0.4724   0.5662   0.8847     H
H       0.4724   0.6838   0.3653     H
H       0.4724   0.8653   0.6838     H
H       0.4724   0.8847   0.0662     H
O       0.4778   0.0142   0.9175     O
O       0.4778   0.2358   0.3325     O
O       0.4778   0.3325   0.7358     O
O       0.4778   0.4175   0.0142     O
O       0.4778   0.5142   0.4175     O
O       0.4778   0.7358   0.8325     O
O       0.4778   0.8325   0.2358     O
O       0.4778   0.9175   0.5142     O
O       0.4858   0.0222   0.5825     O
O       0.4858   0.0825   0.0222     O
O       0.4858   0.1675   0.2278     O
O       0.4858   0.2278   0.6675     O
O       0.4858   0.5222   0.0825     O
O       0.4858   0.5825   0.5222     O
O       0.4858   0.6675   0.7278     O
O       0.4858   0.7278   0.1675     O
O       0.4911     0.03   0.6657     O
O       0.4911   0.0843     0.22     O
O       0.4911   0.1657     0.03     O
O       0.4911     0.22   0.5843     O
O       0.4911     0.53   0.1657     O
O       0.4911   0.5843     0.72     O
O       0.4911   0.6657     0.53     O
O       0.4911     0.72   0.0843     O
C       0.4913   0.0012   0.6264     C
C       0.4913   0.1236   0.2488     C
C       0.4913   0.1264   0.0012     C
C       0.4913   0.2488   0.6236     C
C       0.4913   0.5012   0.1264     C
C       0.4913   0.6236   0.7488     C
C       0.4913   0.6264   0.5012     C
C       0.4913   0.7488   0.1236     C
C       0.4969   0.1174   0.3046     C
C       0.4969   0.1326   0.9454     C
C       0.4969   0.3046   0.6174     C
C       0.4969   0.4454   0.1326     C
C       0.4969   0.6174   0.8046     C
C       0.4969   0.6326   0.4454     C
C       0.4969   0.8046   0.1174     C
C       0.4969   0.9454   0.6326     C
C       0.4988   0.0087   0.8736     C
C       0.4988   0.2413   0.3764     C
C       0.4988   0.3736   0.0087     C
C       0.4988   0.3764   0.7413     C
C       0.4988   0.5087   0.3736     C
C       0.4988   0.7413   0.8764     C
C       0.4988   0.8736   0.5087     C
C       0.4988   0.8764   0.2413     C
Cd         0.5      0.0      0.0    Cd
Ho         0.5      0.0     0.25    Ho
Cd         0.5      0.0      0.5    Cd
Ho         0.5      0.0     0.75    Ho
O          0.5   0.0656   0.3156     O
O          0.5   0.1844   0.9344     O
Ho         0.5     0.25      0.0    Ho
Cd         0.5     0.25     0.25    Cd
Ho         0.5     0.25      0.5    Ho
Cd         0.5     0.25     0.75    Cd
O          0.5   0.3156   0.5656     O
O          0.5   0.4344   0.1844     O
Cd         0.5      0.5      0.0    Cd
Ho         0.5      0.5     0.25    Ho
Cd         0.5      0.5      0.5    Cd
Ho         0.5      0.5     0.75    Ho
O          0.5   0.5656   0.8156     O
O          0.5   0.6844   0.4344     O
Ho         0.5     0.75      0.0    Ho
Cd         0.5     0.75     0.25    Cd
Ho         0.5     0.75      0.5    Ho
Cd         0.5     0.75     0.75    Cd
O          0.5   0.8156   0.0656     O
O          0.5   0.9344   0.6844     O
C       0.5012   0.1236   0.7587     C
C       0.5012   0.1264   0.4913     C
C       0.5012   0.2587   0.1236     C
C       0.5012   0.4913   0.6264     C
C       0.5012   0.6236   0.2587     C
C       0.5012   0.6264   0.9913     C
C       0.5012   0.7587   0.6236     C
C       0.5012   0.9913   0.1264     C
C       0.5031   0.0546   0.3674     C
C       0.5031   0.1954   0.8826     C
C       0.5031   0.3674   0.5546     C
C       0.5031   0.3826   0.1954     C
C       0.5031   0.5546   0.8674     C
C       0.5031   0.6954   0.3826     C
C       0.5031   0.8674   0.0546     C
C       0.5031   0.8826   0.6954     C
C       0.5087   0.2512   0.8764     C
C       0.5087   0.3736   0.4988     C
C       0.5087   0.3764   0.2512     C
C       0.5087   0.4988   0.8736     C
C       0.5087   0.7512   0.3764     C
C       0.5087   0.8736   0.9988     C
C       0.5087   0.8764   0.7512     C
C       0.5087   0.9988   0.3736     C
O       0.5089     0.28   0.9157     O
O       0.5089   0.3343     0.47     O
O       0.5089   0.4157     0.28     O
O       0.5089     0.47   0.8343     O
O       0.5089     0.78   0.4157     O
O       0.5089   0.8343     0.97     O
O       0.5089   0.9157     0.78     O
O       0.5089     0.97   0.3343     O
O       0.5142   0.2722   0.8325     O
O       0.5142   0.3325   0.2722     O
O       0.5142   0.4175   0.4778     O
O       0.5142   0.4778   0.9175     O
O       0.5142   0.7722   0.3325     O
O       0.5142   0.8325   0.7722     O
O       0.5142   0.9175   0.9778     O
O       0.5142   0.9778   0.4175     O
O       0.5222   0.0825   0.4858     O
O       0.5222   0.1675   0.7642     O
O       0.5222   0.2642   0.1675     O
O       0.5222   0.4858   0.5825     O
O       0.5222   0.5825   0.9858     O
O       0.5222   0.6675   0.2642     O
O       0.5222   0.7642   0.6675     O
O       0.5222   0.9858   0.0825     O
H       0.5276   0.1153   0.9338     H
H       0.5276   0.1347   0.3162     H
H       0.5276   0.3162   0.6347     H
H       0.5276   0.4338   0.1153     H
H       0.5276   0.6153   0.4338     H
H       0.5276   0.6347   0.8162     H
H       0.5276   0.8162   0.1347     H
H       0.5276   0.9338   0.6153     H
O         0.53   0.0843   0.7589     O
O         0.53   0.1657   0.4911     O
O         0.53   0.2589   0.0843     O
O         0.53   0.4911   0.6657     O
O         0.53   0.5843   0.2589     O
O         0.53   0.6657   0.9911     O
O         0.53   0.7589   0.5843     O
O         0.53   0.9911   0.1657     O
H       0.5321    0.072   0.3824     H
H       0.5321    0.178   0.8676     H
H       0.5321   0.3676    0.178     H
H       0.5321   0.3824    0.572     H
H       0.5321    0.572   0.8824     H
H       0.5321    0.678   0.3676     H
H       0.5321   0.8676    0.678     H
H       0.5321   0.8824    0.072     H
C       0.5546   0.0031   0.8674     C
C       0.5546   0.2469   0.3826     C
C       0.5546   0.3674   0.0031     C
C       0.5546   0.3826   0.7469     C
C       0.5546   0.5031   0.3674     C
C       0.5546   0.7469   0.8826     C
C       0.5546   0.8674   0.5031     C
C       0.5546   0.8826   0.2469     C
O       0.5656      0.0   0.8156     O
O       0.5656     0.25   0.4344     O
O       0.5656   0.3156      0.0     O
O       0.5656   0.4344     0.75     O
O       0.5656      0.5   0.3156     O
O       0.5656     0.75   0.9344     O
O       0.5656   0.8156      0.5     O
O       0.5656   0.9344     0.25     O
H       0.5662   0.2776   0.3653     H
H       0.5662   0.3653   0.7776     H
H       0.5662   0.3847   0.9724     H
H       0.5662   0.4724   0.3847     H
H       0.5662   0.7776   0.8653     H
H       0.5662   0.8653   0.2776     H
H       0.5662   0.8847   0.4724     H
H       0.5662   0.9724   0.8847     H
H        0.572   0.0321   0.8824     H
H        0.572   0.2179   0.3676     H
H        0.572   0.3676   0.7179     H
H        0.572   0.3824   0.0321     H
H        0.572   0.5321   0.3824     H
H        0.572   0.7179   0.8676     H
H        0.572   0.8676   0.2179     H
H        0.572   0.8824   0.5321     H
O       0.5825   0.0222   0.9858     O
O       0.5825   0.2278   0.2642     O
O       0.5825   0.2642   0.7278     O
O       0.5825   0.4858   0.0222     O
O       0.5825   0.5222   0.4858     O
O       0.5825   0.7278   0.7642     O
O       0.5825   0.7642   0.2278     O
O       0.5825   0.9858   0.5222     O
O       0.5843     0.03   0.2589     O
O       0.5843     0.22   0.9911     O
O       0.5843   0.2589     0.53     O
O       0.5843   0.4911     0.22     O
O       0.5843     0.53   0.7589     O
O       0.5843     0.72   0.4911     O
O       0.5843   0.7589     0.03     O
O       0.5843   0.9911     0.72     O
H       0.6153   0.0276   0.4338     H
H       0.6153   0.2224   0.8162     H
H       0.6153   0.3162   0.2224     H
H       0.6153   0.4338   0.5276     H
H       0.6153   0.5276   0.9338     H
H       0.6153   0.7224   0.3162     H
H       0.6153   0.8162   0.7224     H
H       0.6153   0.9338   0.0276     H
C       0.6174   0.2531   0.4454     C
C       0.6174   0.3046   0.9969     C
C       0.6174   0.4454   0.7531     C
C       0.6174   0.4969   0.3046     C
C       0.6174   0.7531   0.9454     C
C       0.6174   0.8046   0.4969     C
C       0.6174   0.9454   0.2531     C
C       0.6174   0.9969   0.8046     C
H       0.6176   0.2821    0.822     H
H       0.6176    0.322   0.2821     H
H       0.6176    0.428   0.4679     H
H       0.6176   0.4679    0.928     H
H       0.6176   0.7821    0.322     H
H       0.6176    0.822   0.7821     H
H       0.6176    0.928   0.9679     H
H       0.6176   0.9679    0.428     H
C       0.6236   0.0012   0.2587     C
C       0.6236   0.2488   0.9913     C
C       0.6236   0.2587   0.5012     C
C       0.6236   0.4913   0.2488     C
C       0.6236   0.5012   0.7587     C
C       0.6236   0.7488   0.4913     C
C       0.6236   0.7587   0.0012     C
C       0.6236   0.9913   0.7488     C
C       0.6264   0.0012   0.9913     C
C       0.6264   0.2488   0.2587     C
C       0.6264   0.2587   0.7488     C
C       0.6264   0.4913   0.0012     C
C       0.6264   0.5012   0.4913     C
C       0.6264   0.7488   0.7587     C
C       0.6264   0.7587   0.2488     C
C       0.6264   0.9913   0.5012     C
H       0.6324   0.2821    0.428     H
H       0.6324    0.322   0.9679     H
H       0.6324    0.428   0.7821     H
H       0.6324   0.4679    0.322     H
H       0.6324   0.7821    0.928     H
H       0.6324    0.822   0.4679     H
H       0.6324    0.928   0.2821     H
H       0.6324   0.9679    0.822     H
C       0.6326   0.2531   0.8046     C
C       0.6326   0.3046   0.2531     C
C       0.6326   0.4454   0.4969     C
C       0.6326   0.4969   0.9454     C
C       0.6326   0.7531   0.3046     C
C       0.6326   0.8046   0.7531     C
C       0.6326   0.9454   0.9969     C
C       0.6326   0.9969   0.4454     C
H       0.6347   0.0276   0.8162     H
H       0.6347   0.2224   0.4338     H
H       0.6347   0.3162   0.0276     H
H       0.6347   0.4338   0.7224     H
H       0.6347   0.5276   0.3162     H
H       0.6347   0.7224   0.9338     H
H       0.6347   0.8162   0.5276     H
H       0.6347   0.9338   0.2224     H
O       0.6657     0.03   0.9911     O
O       0.6657     0.22   0.2589     O
O       0.6657   0.2589     0.72     O
O       0.6657   0.4911     0.03     O
O       0.6657     0.53   0.4911     O
O       0.6657     0.72   0.7589     O
O       0.6657   0.7589     0.22     O
O       0.6657   0.9911     0.53     O
O       0.6675   0.0222   0.2642     O
O       0.6675   0.2278   0.9858     O
O       0.6675   0.2642   0.5222     O
O       0.6675   0.4858   0.2278     O
O       0.6675   0.5222   0.7642     O
O       0.6675   0.7278   0.4858     O
O       0.6675   0.7642   0.0222     O
O       0.6675   0.9858   0.7278     O
H        0.678   0.0321   0.3676     H
H        0.678   0.2179   0.8824     H
H        0.678   0.3676   0.5321     H
H        0.678   0.3824   0.2179     H
H        0.678   0.5321   0.8676     H
H        0.678   0.7179   0.3824     H
H        0.678   0.8676   0.0321     H
H        0.678   0.8824   0.7179     H
H       0.6838   0.2776   0.8847     H
H       0.6838   0.3653   0.4724     H
H       0.6838   0.3847   0.2776     H
H       0.6838   0.4724   0.8653     H
H       0.6838   0.7776   0.3847     H
H       0.6838   0.8653   0.9724     H
H       0.6838   0.8847   0.7776     H
H       0.6838   0.9724   0.3653     H
O       0.6844      0.0   0.4344     O
O       0.6844     0.25   0.8156     O
O       0.6844   0.3156     0.25     O
O       0.6844   0.4344      0.5     O
O       0.6844      0.5   0.9344     O
O       0.6844     0.75   0.3156     O
O       0.6844   0.8156     0.75     O
O       0.6844   0.9344      0.0     O
C       0.6954   0.0031   0.3826     C
C       0.6954   0.2469   0.8674     C
C       0.6954   0.3674   0.2469     C
C       0.6954   0.3826   0.5031     C
C       0.6954   0.5031   0.8826     C
C       0.6954   0.7469   0.3674     C
C       0.6954   0.8674   0.7469     C
C       0.6954   0.8826   0.0031     C
H       0.7179    0.072   0.8676     H
H       0.7179    0.178   0.3824     H
H       0.7179   0.3676    0.072     H
H       0.7179   0.3824    0.678     H
H       0.7179    0.572   0.3676     H
H       0.7179    0.678   0.8824     H
H       0.7179   0.8676    0.572     H
H       0.7179   0.8824    0.178     H
O         0.72   0.0843   0.4911     O
O         0.72   0.1657   0.7589     O
O         0.72   0.2589   0.1657     O
O         0.72   0.4911   0.5843     O
O         0.72   0.5843   0.9911     O
O         0.72   0.6657   0.2589     O
O         0.72   0.7589   0.6657     O
O         0.72   0.9911   0.0843     O
H       0.7224   0.1153   0.3162     H
H       0.7224   0.1347   0.9338     H
H       0.7224   0.3162   0.6153     H
H       0.7224   0.4338   0.1347     H
H       0.7224   0.6153   0.8162     H
H       0.7224   0.6347   0.4338     H
H       0.7224   0.8162   0.1153     H
H       0.7224   0.9338   0.6347     H
O       0.7278   0.0825   0.7642     O
O       0.7278   0.1675   0.4858     O
O       0.7278   0.2642   0.0825     O
O       0.7278   0.4858   0.6675     O
O       0.7278   0.5825   0.2642     O
O       0.7278   0.6675   0.9858     O
O       0.7278   0.7642   0.5825     O
O       0.7278   0.9858   0.1675     O
O       0.7358   0.2722   0.4175     O
O       0.7358   0.3325   0.9778     O
O       0.7358   0.4175   0.7722     O
O       0.7358   0.4778   0.3325     O
O       0.7358   0.7722   0.9175     O
O       0.7358   0.8325   0.4778     O
O       0.7358   0.9175   0.2722     O
O       0.7358   0.9778   0.8325     O
O       0.7411     0.28   0.3343     O
O       0.7411   0.3343     0.78     O
O       0.7411   0.4157     0.97     O
O       0.7411     0.47   0.4157     O
O       0.7411     0.78   0.8343     O
O       0.7411   0.8343     0.28     O
O       0.7411   0.9157     0.47     O
O       0.7411     0.97   0.9157     O
C       0.7413   0.2512   0.3736     C
C       0.7413   0.3736   0.7512     C
C       0.7413   0.3764   0.9988     C
C       0.7413   0.4988   0.3764     C
C       0.7413   0.7512   0.8736     C
C       0.7413   0.8736   0.2512     C
C       0.7413   0.8764   0.4988     C
C       0.7413   0.9988   0.8764     C
C       0.7469   0.0546   0.8826     C
C       0.7469   0.1954   0.3674     C
C       0.7469   0.3674   0.6954     C
C       0.7469   0.3826   0.0546     C
C       0.7469   0.5546   0.3826     C
C       0.7469   0.6954   0.8674     C
C       0.7469   0.8674   0.1954     C
C       0.7469   0.8826   0.5546     C
C       0.7488   0.1236   0.4913     C
C       0.7488   0.1264   0.7587     C
C       0.7488   0.2587   0.1264     C
C       0.7488   0.4913   0.6236     C
C       0.7488   0.6236   0.9913     C
C       0.7488   0.6264   0.2587     C
C       0.7488   0.7587   0.6264     C
C       0.7488   0.9913   0.1236     C
Ho        0.75      0.0      0.0    Ho
Cd        0.75      0.0     0.25    Cd
Ho        0.75      0.0      0.5    Ho
Cd        0.75      0.0     0.75    Cd
O         0.75   0.0656   0.9344     O
O         0.75   0.1844   0.3156     O
Cd        0.75     0.25      0.0    Cd
Ho        0.75     0.25     0.25    Ho
Cd        0.75     0.25      0.5    Cd
Ho        0.75     0.25     0.75    Ho
O         0.75   0.3156   0.6844     O
O         0.75   0.4344   0.0656     O
Ho        0.75      0.5      0.0    Ho
Cd        0.75      0.5     0.25    Cd
Ho        0.75      0.5      0.5    Ho
Cd        0.75      0.5     0.75    Cd
O         0.75   0.5656   0.4344     O
O         0.75   0.6844   0.8156     O
Cd        0.75     0.75      0.0    Cd
Ho        0.75     0.75     0.25    Ho
Cd        0.75     0.75      0.5    Cd
Ho        0.75     0.75     0.75    Ho
O         0.75   0.8156   0.1844     O
O         0.75   0.9344   0.5656     O
C       0.7512   0.0087   0.3764     C
C       0.7512   0.2413   0.8736     C
C       0.7512   0.3736   0.2413     C
C       0.7512   0.3764   0.5087     C
C       0.7512   0.5087   0.8764     C
C       0.7512   0.7413   0.3736     C
C       0.7512   0.8736   0.7413     C
C       0.7512   0.8764   0.0087     C
C       0.7531   0.1174   0.9454     C
C       0.7531   0.1326   0.3046     C
C       0.7531   0.3046   0.6326     C
C       0.7531   0.4454   0.1174     C
C       0.7531   0.6174   0.4454     C
C       0.7531   0.6326   0.8046     C
C       0.7531   0.8046   0.1326     C
C       0.7531   0.9454   0.6174     C
C       0.7587   0.0012   0.6236     C
C       0.7587   0.1236   0.0012     C
C       0.7587   0.1264   0.2488     C
C       0.7587   0.2488   0.6264     C
C       0.7587   0.5012   0.1236     C
C       0.7587   0.6236   0.5012     C
C       0.7587   0.6264   0.7488     C
C       0.7587   0.7488   0.1264     C
O       0.7589     0.03   0.5843     O
O       0.7589   0.0843     0.03     O
O       0.7589   0.1657     0.22     O
O       0.7589     0.22   0.6657     O
O       0.7589     0.53   0.0843     O
O       0.7589   0.5843     0.53     O
O       0.7589   0.6657     0.72     O
O       0.7589     0.72   0.1657     O
O       0.7642   0.0222   0.6675     O
O       0.7642   0.0825   0.2278     O
O       0.7642   0.1675   0.0222     O
O       0.7642   0.2278   0.5825     O
O       0.7642   0.5222   0.1675     O
O       0.7642   0.5825   0.7278     O
O       0.7642   0.6675   0.5222     O
O       0.7642   0.7278   0.0825     O
O       0.7722   0.0142   0.3325     O
O       0.7722   0.2358   0.9175     O
O       0.7722   0.3325   0.5142     O
O       0.7722   0.4175   0.2358     O
O       0.7722   0.5142   0.8325     O
O       0.7722   0.7358   0.4175     O
O       0.7722   0.8325   0.0142     O
O       0.7722   0.9175   0.7358     O
H       0.7776   0.0662   0.8653     H
H       0.7776   0.1838   0.3847     H
H       0.7776   0.3653   0.0662     H
H       0.7776   0.3847   0.6838     H
H       0.7776   0.5662   0.3653     H
H       0.7776   0.6838   0.8847     H
H       0.7776   0.8653   0.5662     H
H       0.7776   0.8847   0.1838     H
O         0.78   0.0089   0.4157     O
O         0.78   0.2411   0.8343     O
O         0.78   0.3343   0.2411     O
O         0.78   0.4157   0.5089     O
O         0.78   0.5089   0.9157     O
O         0.78   0.7411   0.3343     O
O         0.78   0.8343   0.7411     O
O         0.78   0.9157   0.0089     O
H       0.7821   0.1176    0.322     H
H       0.7821   0.1324    0.928     H
H       0.7821    0.322   0.6176     H
H       0.7821    0.428   0.1324     H
H       0.7821   0.6176    0.822     H
H       0.7821   0.6324    0.428     H
H       0.7821    0.822   0.1176     H
H       0.7821    0.928   0.6324     H
C       0.8046   0.1174   0.4969     C
C       0.8046   0.1326   0.7531     C
C       0.8046   0.2531   0.1326     C
C       0.8046   0.4969   0.6174     C
C       0.8046   0.6174   0.9969     C
C       0.8046   0.6326   0.2531     C
C       0.8046   0.7531   0.6326     C
C       0.8046   0.9969   0.1174     C
O       0.8156      0.0   0.0656     O
O       0.8156   0.0656      0.5     O
O       0.8156   0.1844     0.75     O
O       0.8156     0.25   0.1844     O
O       0.8156      0.5   0.5656     O
O       0.8156   0.5656      0.0     O
O       0.8156   0.6844     0.25     O
O       0.8156     0.75   0.6844     O
H       0.8162   0.0276   0.1347     H
H       0.8162   0.1153   0.7224     H
H       0.8162   0.1347   0.5276     H
H       0.8162   0.2224   0.1153     H
H       0.8162   0.5276   0.6347     H
H       0.8162   0.6153   0.2224     H
H       0.8162   0.6347   0.0276     H
H       0.8162   0.7224   0.6153     H
H        0.822   0.1176   0.7821     H
H        0.822   0.1324   0.4679     H
H        0.822   0.2821   0.1176     H
H        0.822   0.4679   0.6324     H
H        0.822   0.6176   0.2821     H
H        0.822   0.6324   0.9679     H
H        0.822   0.7821   0.6176     H
H        0.822   0.9679   0.1324     H
O       0.8325   0.0142   0.7722     O
O       0.8325   0.2358   0.4778     O
O       0.8325   0.2722   0.0142     O
O       0.8325   0.4778   0.7358     O
O       0.8325   0.5142   0.2722     O
O       0.8325   0.7358   0.9778     O
O       0.8325   0.7722   0.5142     O
O       0.8325   0.9778   0.2358     O
O       0.8343   0.0089     0.97     O
O       0.8343   0.2411     0.28     O
O       0.8343     0.28   0.7411     O
O       0.8343     0.47   0.0089     O
O       0.8343   0.5089     0.47     O
O       0.8343   0.7411     0.78     O
O       0.8343     0.78   0.2411     O
O       0.8343     0.97   0.5089     O
H       0.8653   0.0662   0.2776     H
H       0.8653   0.1838   0.9724     H
H       0.8653   0.2776   0.5662     H
H       0.8653   0.4724   0.1838     H
H       0.8653   0.5662   0.7776     H
H       0.8653   0.6838   0.4724     H
H       0.8653   0.7776   0.0662     H
H       0.8653   0.9724   0.6838     H
C       0.8674   0.0031   0.0546     C
C       0.8674   0.0546   0.5031     C
C       0.8674   0.1954   0.7469     C
C       0.8674   0.2469   0.1954     C
C       0.8674   0.5031   0.5546     C
C       0.8674   0.5546   0.0031     C
C       0.8674   0.6954   0.2469     C
C       0.8674   0.7469   0.6954     C
H       0.8676   0.0321    0.678     H
H       0.8676    0.072   0.2179     H
H       0.8676    0.178   0.0321     H
H       0.8676   0.2179    0.572     H
H       0.8676   0.5321    0.178     H
H       0.8676    0.572   0.7179     H
H       0.8676    0.678   0.5321     H
H       0.8676   0.7179    0.072     H
C       0.8736   0.0087   0.9988     C
C       0.8736   0.2413   0.2512     C
C       0.8736   0.2512   0.7413     C
C       0.8736   0.4988   0.0087     C
C       0.8736   0.5087   0.4988     C
C       0.8736   0.7413   0.7512     C
C       0.8736   0.7512   0.2413     C
C       0.8736   0.9988   0.5087     C
C       0.8764   0.0087   0.7512     C
C       0.8764   0.2413   0.4988     C
C       0.8764   0.2512   0.0087     C
C       0.8764   0.4988   0.7413     C
C       0.8764   0.5087   0.2512     C
C       0.8764   0.7413   0.9988     C
C       0.8764   0.7512   0.5087     C
C       0.8764   0.9988   0.2413     C
H       0.8824   0.0321    0.072     H
H       0.8824    0.072   0.5321     H
H       0.8824    0.178   0.7179     H
H       0.8824   0.2179    0.178     H
H       0.8824   0.5321    0.572     H
H       0.8824    0.572   0.0321     H
H       0.8824    0.678   0.2179     H
H       0.8824   0.7179    0.678     H
C       0.8826   0.0031   0.6954     C
C       0.8826   0.0546   0.2469     C
C       0.8826   0.1954   0.0031     C
C       0.8826   0.2469   0.5546     C
C       0.8826   0.5031   0.1954     C
C       0.8826   0.5546   0.7469     C
C       0.8826   0.6954   0.5031     C
C       0.8826   0.7469   0.0546     C
H       0.8847   0.0662   0.4724     H
H       0.8847   0.1838   0.7776     H
H       0.8847   0.2776   0.1838     H
H       0.8847   0.4724   0.5662     H
H       0.8847   0.5662   0.9724     H
H       0.8847   0.6838   0.2776     H
H       0.8847   0.7776   0.6838     H
H       0.8847   0.9724   0.0662     H
O       0.9157   0.0089     0.78     O
O       0.9157   0.2411     0.47     O
O       0.9157     0.28   0.0089     O
O       0.9157     0.47   0.7411     O
O       0.9157   0.5089     0.28     O
O       0.9157   0.7411     0.97     O
O       0.9157     0.78   0.5089     O
O       0.9157     0.97   0.2411     O
O       0.9175   0.0142   0.9778     O
O       0.9175   0.2358   0.2722     O
O       0.9175   0.2722   0.7358     O
O       0.9175   0.4778   0.0142     O
O       0.9175   0.5142   0.4778     O
O       0.9175   0.7358   0.7722     O
O       0.9175   0.7722   0.2358     O
O       0.9175   0.9778   0.5142     O
H        0.928   0.1176   0.9679     H
H        0.928   0.1324   0.2821     H
H        0.928   0.2821   0.6324     H
H        0.928   0.4679   0.1176     H
H        0.928   0.6176   0.4679     H
H        0.928   0.6324   0.7821     H
H        0.928   0.7821   0.1324     H
H        0.928   0.9679   0.6176     H
H       0.9338   0.0276   0.6153     H
H       0.9338   0.1153   0.0276     H
H       0.9338   0.1347   0.2224     H
H       0.9338   0.2224   0.6347     H
H       0.9338   0.5276   0.1153     H
H       0.9338   0.6153   0.5276     H
H       0.9338   0.6347   0.7224     H
H       0.9338   0.7224   0.1347     H
O       0.9344      0.0   0.6844     O
O       0.9344   0.0656     0.25     O
O       0.9344   0.1844      0.0     O
O       0.9344     0.25   0.5656     O
O       0.9344      0.5   0.1844     O
O       0.9344   0.5656     0.75     O
O       0.9344   0.6844      0.5     O
O       0.9344     0.75   0.0656     O
C       0.9454   0.1174   0.2531     C
C       0.9454   0.1326   0.9969     C
C       0.9454   0.2531   0.6174     C
C       0.9454   0.4969   0.1326     C
C       0.9454   0.6174   0.7531     C
C       0.9454   0.6326   0.4969     C
C       0.9454   0.7531   0.1174     C
C       0.9454   0.9969   0.6326     C
H       0.9679   0.1176    0.428     H
H       0.9679   0.1324    0.822     H
H       0.9679    0.322   0.1324     H
H       0.9679    0.428   0.6176     H
H       0.9679   0.6176    0.928     H
H       0.9679   0.6324    0.322     H
H       0.9679    0.822   0.6324     H
H       0.9679    0.928   0.1176     H
O         0.97   0.0089   0.3343     O
O         0.97   0.2411   0.9157     O
O         0.97   0.3343   0.5089     O
O         0.97   0.4157   0.2411     O
O         0.97   0.5089   0.8343     O
O         0.97   0.7411   0.4157     O
O         0.97   0.8343   0.0089     O
O         0.97   0.9157   0.7411     O
H       0.9724   0.0662   0.8847     H
H       0.9724   0.1838   0.3653     H
H       0.9724   0.3653   0.6838     H
H       0.9724   0.3847   0.0662     H
H       0.9724   0.5662   0.3847     H
H       0.9724   0.6838   0.8653     H
H       0.9724   0.8653   0.1838     H
H       0.9724   0.8847   0.5662     H
O       0.9778   0.0142   0.4175     O
O       0.9778   0.2358   0.8325     O
O       0.9778   0.3325   0.2358     O
O       0.9778   0.4175   0.5142     O
O       0.9778   0.5142   0.9175     O
O       0.9778   0.7358   0.3325     O
O       0.9778   0.8325   0.7358     O
O       0.9778   0.9175   0.0142     O
O       0.9858   0.0222   0.0825     O
O       0.9858   0.0825   0.5222     O
O       0.9858   0.1675   0.7278     O
O       0.9858   0.2278   0.1675     O
O       0.9858   0.5222   0.5825     O
O       0.9858   0.5825   0.0222     O
O       0.9858   0.6675   0.2278     O
O       0.9858   0.7278   0.6675     O
O       0.9911     0.03   0.1657     O
O       0.9911   0.0843     0.72     O
O       0.9911   0.1657     0.53     O
O       0.9911     0.22   0.0843     O
O       0.9911     0.53   0.6657     O
O       0.9911   0.5843     0.22     O
O       0.9911   0.6657     0.03     O
O       0.9911     0.72   0.5843     O
C       0.9913   0.0012   0.1264     C
C       0.9913   0.1236   0.7488     C
C       0.9913   0.1264   0.5012     C
C       0.9913   0.2488   0.1236     C
C       0.9913   0.5012   0.6264     C
C       0.9913   0.6236   0.2488     C
C       0.9913   0.6264   0.0012     C
C       0.9913   0.7488   0.6236     C
C       0.9969   0.1174   0.8046     C
C       0.9969   0.1326   0.4454     C
C       0.9969   0.3046   0.1174     C
C       0.9969   0.4454   0.6326     C
C       0.9969   0.6174   0.3046     C
C       0.9969   0.6326   0.9454     C
C       0.9969   0.8046   0.6174     C
C       0.9969   0.9454   0.1326     C
C       0.9988   0.0087   0.3736     C
C       0.9988   0.2413   0.8764     C
C       0.9988   0.3736   0.5087     C
C       0.9988   0.3764   0.2413     C
C       0.9988   0.5087   0.8736     C
C       0.9988   0.7413   0.3764     C
C       0.9988   0.8736   0.0087     C
C       0.9988   0.8764   0.7413     C
