data_I
_chemical_name_common  '/home/zhangsd/repos/MofS-CGCNN/ML/data/TSD/clean_cifs/KOMJON_clean'
_cell_length_a 26.16000
_cell_length_b 26.16000
_cell_length_c 26.16000
_cell_angle_alpha 90.00000
_cell_angle_beta  90.00000
_cell_angle_gamma 90.00000
_space_group_name_H-M_alt      'P 1'


loop_
_space_group_symop_operation_xyz
  'x, y, z' 

loop_
_atom_site_label
_atom_site_fract_x
_atom_site_fract_y
_atom_site_fract_z
_atom_site_type_symbol
Cd         0.0      0.0      0.0    Cd
Er         0.0      0.0     0.25    Er
Cd         0.0      0.0      0.5    Cd
Er         0.0      0.0     0.75    Er
O          0.0   0.0654   0.8154     O
O          0.0   0.1846   0.4346     O
Er         0.0     0.25      0.0    Er
Cd         0.0     0.25     0.25    Cd
Er         0.0     0.25      0.5    Er
Cd         0.0     0.25     0.75    Cd
O          0.0   0.3154   0.0654     O
O          0.0   0.4346   0.6846     O
Cd         0.0      0.5      0.0    Cd
Er         0.0      0.5     0.25    Er
Cd         0.0      0.5      0.5    Cd
Er         0.0      0.5     0.75    Er
O          0.0   0.5654   0.3154     O
O          0.0   0.6846   0.9346     O
Er         0.0     0.75      0.0    Er
Cd         0.0     0.75     0.25    Cd
Er         0.0     0.75      0.5    Er
Cd         0.0     0.75     0.75    Cd
O          0.0   0.8154   0.5654     O
O          0.0   0.9346   0.1846     O
C       0.0013   0.1233   0.2587     C
C       0.0013   0.1267   0.9913     C
C       0.0013   0.2587   0.6233     C
C       0.0013   0.4913   0.1267     C
C       0.0013   0.6233   0.7587     C
C       0.0013   0.6267   0.4913     C
C       0.0013   0.7587   0.1233     C
C       0.0013   0.9913   0.6267     C
C       0.0034   0.0542   0.8672     C
C       0.0034   0.1958   0.3828     C
C       0.0034   0.3672   0.0542     C
C       0.0034   0.3828   0.6958     C
C       0.0034   0.5542   0.3672     C
C       0.0034   0.6958   0.8828     C
C       0.0034   0.8672   0.5542     C
C       0.0034   0.8828   0.1958     C
C       0.0087   0.2513   0.3767     C
C       0.0087   0.3733   0.9987     C
C       0.0087   0.3767   0.7513     C
C       0.0087   0.4987   0.3733     C
C       0.0087   0.7513   0.8767     C
C       0.0087   0.8733   0.4987     C
C       0.0087   0.8767   0.2513     C
C       0.0087   0.9987   0.8733     C
O       0.0089   0.2801   0.4157     O
O       0.0089   0.3343   0.9699     O
O       0.0089   0.4157   0.7801     O
O       0.0089   0.4699   0.3343     O
O       0.0089   0.7801   0.9157     O
O       0.0089   0.8343   0.4699     O
O       0.0089   0.9157   0.2801     O
O       0.0089   0.9699   0.8343     O
O       0.0141   0.2727   0.3331     O
O       0.0141   0.3331   0.7727     O
O       0.0141   0.4169   0.9773     O
O       0.0141   0.4773   0.4169     O
O       0.0141   0.7727   0.8331     O
O       0.0141   0.8331   0.2727     O
O       0.0141   0.9169   0.4773     O
O       0.0141   0.9773   0.9169     O
O       0.0227   0.0831   0.9859     O
O       0.0227   0.1669   0.2641     O
O       0.0227   0.2641   0.6669     O
O       0.0227   0.4859   0.0831     O
O       0.0227   0.5831   0.4859     O
O       0.0227   0.6669   0.7641     O
O       0.0227   0.7641   0.1669     O
O       0.0227   0.9859   0.5831     O
H        0.027   0.1152    0.434     H
H        0.027   0.1348    0.816     H
H        0.027    0.316   0.1348     H
H        0.027    0.434   0.6152     H
H        0.027   0.6152    0.934     H
H        0.027   0.6348    0.316     H
H        0.027    0.816   0.6348     H
H        0.027    0.934   0.1152     H
O       0.0301   0.0843   0.2589     O
O       0.0301   0.1657   0.9911     O
O       0.0301   0.2589   0.5843     O
O       0.0301   0.4911   0.1657     O
O       0.0301   0.5843   0.7589     O
O       0.0301   0.6657   0.4911     O
O       0.0301   0.7589   0.0843     O
O       0.0301   0.9911   0.6657     O
H       0.0328   0.0714   0.8819     H
H       0.0328   0.1786   0.3681     H
H       0.0328   0.3681   0.6786     H
H       0.0328   0.3819   0.0714     H
H       0.0328   0.5714   0.3819     H
H       0.0328   0.6786   0.8681     H
H       0.0328   0.8681   0.1786     H
H       0.0328   0.8819   0.5714     H
C       0.0542   0.0034   0.3672     C
C       0.0542   0.2466   0.8828     C
C       0.0542   0.3672   0.5034     C
C       0.0542   0.3828   0.2466     C
C       0.0542   0.5034   0.8672     C
C       0.0542   0.7466   0.3828     C
C       0.0542   0.8672   0.0034     C
C       0.0542   0.8828   0.7466     C
O       0.0654      0.0   0.3154     O
O       0.0654     0.25   0.9346     O
O       0.0654   0.3154      0.5     O
O       0.0654   0.4346     0.25     O
O       0.0654      0.5   0.8154     O
O       0.0654     0.75   0.4346     O
O       0.0654   0.8154      0.0     O
O       0.0654   0.9346     0.75     O
H        0.066    0.277   0.8652     H
H        0.066   0.3652    0.277     H
H        0.066   0.3848    0.473     H
H        0.066    0.473   0.8848     H
H        0.066    0.777   0.3652     H
H        0.066   0.8652    0.777     H
H        0.066   0.8848    0.973     H
H        0.066    0.973   0.3848     H
H       0.0714   0.0328   0.3819     H
H       0.0714   0.2172   0.8681     H
H       0.0714   0.3681   0.2172     H
H       0.0714   0.3819   0.5328     H
H       0.0714   0.5328   0.8819     H
H       0.0714   0.7172   0.3681     H
H       0.0714   0.8681   0.7172     H
H       0.0714   0.8819   0.0328     H
O       0.0831   0.0227   0.4859     O
O       0.0831   0.2273   0.7641     O
O       0.0831   0.2641   0.2273     O
O       0.0831   0.4859   0.5227     O
O       0.0831   0.5227   0.9859     O
O       0.0831   0.7273   0.2641     O
O       0.0831   0.7641   0.7273     O
O       0.0831   0.9859   0.0227     O
O       0.0843   0.0301   0.7589     O
O       0.0843   0.2199   0.4911     O
O       0.0843   0.2589   0.0301     O
O       0.0843   0.4911   0.7199     O
O       0.0843   0.5301   0.2589     O
O       0.0843   0.7199   0.9911     O
O       0.0843   0.7589   0.5301     O
O       0.0843   0.9911   0.2199     O
H       0.1152    0.027    0.934     H
H       0.1152    0.223    0.316     H
H       0.1152    0.316    0.723     H
H       0.1152    0.434    0.027     H
H       0.1152    0.527    0.434     H
H       0.1152    0.723    0.816     H
H       0.1152    0.816    0.223     H
H       0.1152    0.934    0.527     H
C       0.1172   0.2534   0.9458     C
C       0.1172   0.3042   0.4966     C
C       0.1172   0.4458   0.2534     C
C       0.1172   0.4966   0.8042     C
C       0.1172   0.7534   0.4458     C
C       0.1172   0.8042   0.9966     C
C       0.1172   0.9458   0.7534     C
C       0.1172   0.9966   0.3042     C
H       0.1181   0.2828   0.3214     H
H       0.1181   0.3214   0.7828     H
H       0.1181   0.4286   0.9672     H
H       0.1181   0.4672   0.4286     H
H       0.1181   0.7828   0.8214     H
H       0.1181   0.8214   0.2828     H
H       0.1181   0.9286   0.4672     H
H       0.1181   0.9672   0.9286     H
C       0.1233   0.0013   0.7587     C
C       0.1233   0.2487   0.4913     C
C       0.1233   0.2587   0.0013     C
C       0.1233   0.4913   0.7487     C
C       0.1233   0.5013   0.2587     C
C       0.1233   0.7487   0.9913     C
C       0.1233   0.7587   0.5013     C
C       0.1233   0.9913   0.2487     C
C       0.1267   0.0013   0.4913     C
C       0.1267   0.2487   0.7587     C
C       0.1267   0.2587   0.2487     C
C       0.1267   0.4913   0.5013     C
C       0.1267   0.5013   0.9913     C
C       0.1267   0.7487   0.2587     C
C       0.1267   0.7587   0.7487     C
C       0.1267   0.9913   0.0013     C
H       0.1319   0.2828   0.9286     H
H       0.1319   0.3214   0.4672     H
H       0.1319   0.4286   0.2828     H
H       0.1319   0.4672   0.8214     H
H       0.1319   0.7828   0.4286     H
H       0.1319   0.8214   0.9672     H
H       0.1319   0.9286   0.7828     H
H       0.1319   0.9672   0.3214     H
C       0.1328   0.2534   0.3042     C
C       0.1328   0.3042   0.7534     C
C       0.1328   0.4458   0.9966     C
C       0.1328   0.4966   0.4458     C
C       0.1328   0.7534   0.8042     C
C       0.1328   0.8042   0.2534     C
C       0.1328   0.9458   0.4966     C
C       0.1328   0.9966   0.9458     C
H       0.1348    0.027    0.316     H
H       0.1348    0.223    0.934     H
H       0.1348    0.316    0.527     H
H       0.1348    0.434    0.223     H
H       0.1348    0.527    0.816     H
H       0.1348    0.723    0.434     H
H       0.1348    0.816    0.027     H
H       0.1348    0.934    0.723     H
O       0.1657   0.0301   0.4911     O
O       0.1657   0.2199   0.7589     O
O       0.1657   0.2589   0.2199     O
O       0.1657   0.4911   0.5301     O
O       0.1657   0.5301   0.9911     O
O       0.1657   0.7199   0.2589     O
O       0.1657   0.7589   0.7199     O
O       0.1657   0.9911   0.0301     O
O       0.1669   0.0227   0.7641     O
O       0.1669   0.2273   0.4859     O
O       0.1669   0.2641   0.0227     O
O       0.1669   0.4859   0.7273     O
O       0.1669   0.5227   0.2641     O
O       0.1669   0.7273   0.9859     O
O       0.1669   0.7641   0.5227     O
O       0.1669   0.9859   0.2273     O
H       0.1786   0.0328   0.8681     H
H       0.1786   0.2172   0.3819     H
H       0.1786   0.3681   0.0328     H
H       0.1786   0.3819   0.7172     H
H       0.1786   0.5328   0.3681     H
H       0.1786   0.7172   0.8819     H
H       0.1786   0.8681   0.5328     H
H       0.1786   0.8819   0.2172     H
H        0.184    0.277   0.3848     H
H        0.184   0.3652    0.973     H
H        0.184   0.3848    0.777     H
H        0.184    0.473   0.3652     H
H        0.184    0.777   0.8848     H
H        0.184   0.8652    0.473     H
H        0.184   0.8848    0.277     H
H        0.184    0.973   0.8652     H
O       0.1846      0.0   0.9346     O
O       0.1846     0.25   0.3154     O
O       0.1846   0.3154     0.75     O
O       0.1846   0.4346      0.0     O
O       0.1846      0.5   0.4346     O
O       0.1846     0.75   0.8154     O
O       0.1846   0.8154     0.25     O
O       0.1846   0.9346      0.5     O
C       0.1958   0.0034   0.8828     C
C       0.1958   0.2466   0.3672     C
C       0.1958   0.3672   0.7466     C
C       0.1958   0.3828   0.0034     C
C       0.1958   0.5034   0.3828     C
C       0.1958   0.7466   0.8672     C
C       0.1958   0.8672   0.2466     C
C       0.1958   0.8828   0.5034     C
H       0.2172   0.0714   0.3681     H
H       0.2172   0.1786   0.8819     H
H       0.2172   0.3681   0.5714     H
H       0.2172   0.3819   0.1786     H
H       0.2172   0.5714   0.8681     H
H       0.2172   0.6786   0.3819     H
H       0.2172   0.8681   0.0714     H
H       0.2172   0.8819   0.6786     H
O       0.2199   0.0843   0.9911     O
O       0.2199   0.1657   0.2589     O
O       0.2199   0.2589   0.6657     O
O       0.2199   0.4911   0.0843     O
O       0.2199   0.5843   0.4911     O
O       0.2199   0.6657   0.7589     O
O       0.2199   0.7589   0.1657     O
O       0.2199   0.9911   0.5843     O
H        0.223   0.1152    0.816     H
H        0.223   0.1348    0.434     H
H        0.223    0.316   0.1152     H
H        0.223    0.434   0.6348     H
H        0.223   0.6152    0.316     H
H        0.223   0.6348    0.934     H
H        0.223    0.816   0.6152     H
H        0.223    0.934   0.1348     H
O       0.2273   0.0831   0.2641     O
O       0.2273   0.1669   0.9859     O
O       0.2273   0.2641   0.5831     O
O       0.2273   0.4859   0.1669     O
O       0.2273   0.5831   0.7641     O
O       0.2273   0.6669   0.4859     O
O       0.2273   0.7641   0.0831     O
O       0.2273   0.9859   0.6669     O
O       0.2359   0.2727   0.9169     O
O       0.2359   0.3331   0.4773     O
O       0.2359   0.4169   0.2727     O
O       0.2359   0.4773   0.8331     O
O       0.2359   0.7727   0.4169     O
O       0.2359   0.8331   0.9773     O
O       0.2359   0.9169   0.7727     O
O       0.2359   0.9773   0.3331     O
O       0.2411   0.2801   0.8343     O
O       0.2411   0.3343   0.2801     O
O       0.2411   0.4157   0.4699     O
O       0.2411   0.4699   0.9157     O
O       0.2411   0.7801   0.3343     O
O       0.2411   0.8343   0.7801     O
O       0.2411   0.9157   0.9699     O
O       0.2411   0.9699   0.4157     O
C       0.2413   0.2513   0.8733     C
C       0.2413   0.3733   0.2513     C
C       0.2413   0.3767   0.4987     C
C       0.2413   0.4987   0.8767     C
C       0.2413   0.7513   0.3733     C
C       0.2413   0.8733   0.7513     C
C       0.2413   0.8767   0.9987     C
C       0.2413   0.9987   0.3767     C
C       0.2466   0.0542   0.3828     C
C       0.2466   0.1958   0.8672     C
C       0.2466   0.3672   0.1958     C
C       0.2466   0.3828   0.5542     C
C       0.2466   0.5542   0.8828     C
C       0.2466   0.6958   0.3672     C
C       0.2466   0.8672   0.6958     C
C       0.2466   0.8828   0.0542     C
C       0.2487   0.1233   0.9913     C
C       0.2487   0.1267   0.2587     C
C       0.2487   0.2587   0.6267     C
C       0.2487   0.4913   0.1233     C
C       0.2487   0.6233   0.4913     C
C       0.2487   0.6267   0.7587     C
C       0.2487   0.7587   0.1267     C
C       0.2487   0.9913   0.6233     C
Er        0.25      0.0      0.0    Er
Cd        0.25      0.0     0.25    Cd
Er        0.25      0.0      0.5    Er
Cd        0.25      0.0     0.75    Cd
O         0.25   0.0654   0.4346     O
O         0.25   0.1846   0.8154     O
Cd        0.25     0.25      0.0    Cd
Er        0.25     0.25     0.25    Er
Cd        0.25     0.25      0.5    Cd
Er        0.25     0.25     0.75    Er
O         0.25   0.3154   0.1846     O
O         0.25   0.4346   0.5654     O
Er        0.25      0.5      0.0    Er
Cd        0.25      0.5     0.25    Cd
Er        0.25      0.5      0.5    Er
Cd        0.25      0.5     0.75    Cd
O         0.25   0.5654   0.9346     O
O         0.25   0.6846   0.3154     O
Cd        0.25     0.75      0.0    Cd
Er        0.25     0.75     0.25    Er
Cd        0.25     0.75      0.5    Cd
Er        0.25     0.75     0.75    Er
O         0.25   0.8154   0.6846     O
O         0.25   0.9346   0.0654     O
C       0.2513   0.0087   0.8767     C
C       0.2513   0.2413   0.3733     C
C       0.2513   0.3733   0.7413     C
C       0.2513   0.3767   0.0087     C
C       0.2513   0.5087   0.3767     C
C       0.2513   0.7413   0.8733     C
C       0.2513   0.8733   0.2413     C
C       0.2513   0.8767   0.5087     C
C       0.2534   0.1172   0.4458     C
C       0.2534   0.1328   0.8042     C
C       0.2534   0.3042   0.1328     C
C       0.2534   0.4458   0.6172     C
C       0.2534   0.6172   0.9458     C
C       0.2534   0.6328   0.3042     C
C       0.2534   0.8042   0.6328     C
C       0.2534   0.9458   0.1172     C
C       0.2587   0.0013   0.1233     C
C       0.2587   0.1233   0.5013     C
C       0.2587   0.1267   0.7487     C
C       0.2587   0.2487   0.1267     C
C       0.2587   0.5013   0.6233     C
C       0.2587   0.6233   0.0013     C
C       0.2587   0.6267   0.2487     C
C       0.2587   0.7487   0.6267     C
O       0.2589   0.0301   0.0843     O
O       0.2589   0.0843   0.5301     O
O       0.2589   0.1657   0.7199     O
O       0.2589   0.2199   0.1657     O
O       0.2589   0.5301   0.5843     O
O       0.2589   0.5843   0.0301     O
O       0.2589   0.6657   0.2199     O
O       0.2589   0.7199   0.6657     O
O       0.2641   0.0227   0.1669     O
O       0.2641   0.0831   0.7273     O
O       0.2641   0.1669   0.5227     O
O       0.2641   0.2273   0.0831     O
O       0.2641   0.5227   0.6669     O
O       0.2641   0.5831   0.2273     O
O       0.2641   0.6669   0.0227     O
O       0.2641   0.7273   0.5831     O
O       0.2727   0.0141   0.8331     O
O       0.2727   0.2359   0.4169     O
O       0.2727   0.3331   0.0141     O
O       0.2727   0.4169   0.7359     O
O       0.2727   0.5141   0.3331     O
O       0.2727   0.7359   0.9169     O
O       0.2727   0.8331   0.5141     O
O       0.2727   0.9169   0.2359     O
H        0.277    0.066   0.3652     H
H        0.277    0.184   0.8848     H
H        0.277   0.3652    0.566     H
H        0.277   0.3848    0.184     H
H        0.277    0.566   0.8652     H
H        0.277    0.684   0.3848     H
H        0.277   0.8652    0.066     H
H        0.277   0.8848    0.684     H
O       0.2801   0.0089   0.9157     O
O       0.2801   0.2411   0.3343     O
O       0.2801   0.3343   0.7411     O
O       0.2801   0.4157   0.0089     O
O       0.2801   0.5089   0.4157     O
O       0.2801   0.7411   0.8343     O
O       0.2801   0.8343   0.2411     O
O       0.2801   0.9157   0.5089     O
H       0.2828   0.1181   0.8214     H
H       0.2828   0.1319   0.4286     H
H       0.2828   0.3214   0.1181     H
H       0.2828   0.4286   0.6319     H
H       0.2828   0.6181   0.3214     H
H       0.2828   0.6319   0.9286     H
H       0.2828   0.8214   0.6181     H
H       0.2828   0.9286   0.1319     H
C       0.3042   0.1172   0.9966     C
C       0.3042   0.1328   0.2534     C
C       0.3042   0.2534   0.6328     C
C       0.3042   0.4966   0.1172     C
C       0.3042   0.6172   0.4966     C
C       0.3042   0.6328   0.7534     C
C       0.3042   0.7534   0.1328     C
C       0.3042   0.9966   0.6172     C
O       0.3154      0.0   0.5654     O
O       0.3154   0.0654      0.0     O
O       0.3154   0.1846     0.25     O
O       0.3154     0.25   0.6846     O
O       0.3154      0.5   0.0654     O
O       0.3154   0.5654      0.5     O
O       0.3154   0.6846     0.75     O
O       0.3154     0.75   0.1846     O
H        0.316    0.027   0.6348     H
H        0.316   0.1152    0.223     H
H        0.316   0.1348    0.027     H
H        0.316    0.223   0.6152     H
H        0.316    0.527   0.1348     H
H        0.316   0.6152    0.723     H
H        0.316   0.6348    0.527     H
H        0.316    0.723   0.1152     H
H       0.3214   0.1181   0.2828     H
H       0.3214   0.1319   0.9672     H
H       0.3214   0.2828   0.6181     H
H       0.3214   0.4672   0.1319     H
H       0.3214   0.6181   0.7828     H
H       0.3214   0.6319   0.4672     H
H       0.3214   0.7828   0.1181     H
H       0.3214   0.9672   0.6319     H
O       0.3331   0.0141   0.2727     O
O       0.3331   0.2359   0.9773     O
O       0.3331   0.2727   0.5141     O
O       0.3331   0.4773   0.2359     O
O       0.3331   0.5141   0.7727     O
O       0.3331   0.7359   0.4773     O
O       0.3331   0.7727   0.0141     O
O       0.3331   0.9773   0.7359     O
O       0.3343   0.0089   0.4699     O
O       0.3343   0.2411   0.7801     O
O       0.3343   0.2801   0.2411     O
O       0.3343   0.4699   0.5089     O
O       0.3343   0.5089   0.9699     O
O       0.3343   0.7411   0.2801     O
O       0.3343   0.7801   0.7411     O
O       0.3343   0.9699   0.0089     O
H       0.3652    0.066    0.777     H
H       0.3652    0.184    0.473     H
H       0.3652    0.277    0.066     H
H       0.3652    0.473    0.684     H
H       0.3652    0.566    0.277     H
H       0.3652    0.684    0.973     H
H       0.3652    0.777    0.566     H
H       0.3652    0.973    0.184     H
C       0.3672   0.0034   0.5542     C
C       0.3672   0.0542   0.0034     C
C       0.3672   0.1958   0.2466     C
C       0.3672   0.2466   0.6958     C
C       0.3672   0.5034   0.0542     C
C       0.3672   0.5542   0.5034     C
C       0.3672   0.6958   0.7466     C
C       0.3672   0.7466   0.1958     C
H       0.3681   0.0328   0.1786     H
H       0.3681   0.0714   0.7172     H
H       0.3681   0.1786   0.5328     H
H       0.3681   0.2172   0.0714     H
H       0.3681   0.5328   0.6786     H
H       0.3681   0.5714   0.2172     H
H       0.3681   0.6786   0.0328     H
H       0.3681   0.7172   0.5714     H
C       0.3733   0.0087   0.4987     C
C       0.3733   0.2413   0.7513     C
C       0.3733   0.2513   0.2413     C
C       0.3733   0.4987   0.5087     C
C       0.3733   0.5087   0.9987     C
C       0.3733   0.7413   0.2513     C
C       0.3733   0.7513   0.7413     C
C       0.3733   0.9987   0.0087     C
C       0.3767   0.0087   0.2513     C
C       0.3767   0.2413   0.9987     C
C       0.3767   0.2513   0.5087     C
C       0.3767   0.4987   0.2413     C
C       0.3767   0.5087   0.7513     C
C       0.3767   0.7413   0.4987     C
C       0.3767   0.7513   0.0087     C
C       0.3767   0.9987   0.7413     C
H       0.3819   0.0328   0.5714     H
H       0.3819   0.0714   0.0328     H
H       0.3819   0.1786   0.2172     H
H       0.3819   0.2172   0.6786     H
H       0.3819   0.5328   0.0714     H
H       0.3819   0.5714   0.5328     H
H       0.3819   0.6786   0.7172     H
H       0.3819   0.7172   0.1786     H
C       0.3828   0.0034   0.1958     C
C       0.3828   0.0542   0.7466     C
C       0.3828   0.1958   0.5034     C
C       0.3828   0.2466   0.0542     C
C       0.3828   0.5034   0.6958     C
C       0.3828   0.5542   0.2466     C
C       0.3828   0.6958   0.0034     C
C       0.3828   0.7466   0.5542     C
H       0.3848    0.066    0.973     H
H       0.3848    0.184    0.277     H
H       0.3848    0.277    0.684     H
H       0.3848    0.473    0.066     H
H       0.3848    0.566    0.473     H
H       0.3848    0.684    0.777     H
H       0.3848    0.777    0.184     H
H       0.3848    0.973    0.566     H
O       0.4157   0.0089   0.2801     O
O       0.4157   0.2411   0.9699     O
O       0.4157   0.2801   0.5089     O
O       0.4157   0.4699   0.2411     O
O       0.4157   0.5089   0.7801     O
O       0.4157   0.7411   0.4699     O
O       0.4157   0.7801   0.0089     O
O       0.4157   0.9699   0.7411     O
O       0.4169   0.0141   0.4773     O
O       0.4169   0.2359   0.7727     O
O       0.4169   0.2727   0.2359     O
O       0.4169   0.4773   0.5141     O
O       0.4169   0.5141   0.9773     O
O       0.4169   0.7359   0.2727     O
O       0.4169   0.7727   0.7359     O
O       0.4169   0.9773   0.0141     O
H       0.4286   0.1181   0.4672     H
H       0.4286   0.1319   0.7828     H
H       0.4286   0.2828   0.1319     H
H       0.4286   0.4672   0.6181     H
H       0.4286   0.6181   0.9672     H
H       0.4286   0.6319   0.2828     H
H       0.4286   0.7828   0.6319     H
H       0.4286   0.9672   0.1181     H
H        0.434    0.027   0.1152     H
H        0.434   0.1152    0.527     H
H        0.434   0.1348    0.723     H
H        0.434    0.223   0.1348     H
H        0.434    0.527   0.6152     H
H        0.434   0.6152    0.027     H
H        0.434   0.6348    0.223     H
H        0.434    0.723   0.6348     H
O       0.4346      0.0   0.1846     O
O       0.4346   0.0654     0.75     O
O       0.4346   0.1846      0.5     O
O       0.4346     0.25   0.0654     O
O       0.4346      0.5   0.6846     O
O       0.4346   0.5654     0.25     O
O       0.4346   0.6846      0.0     O
O       0.4346     0.75   0.5654     O
C       0.4458   0.1172   0.7534     C
C       0.4458   0.1328   0.4966     C
C       0.4458   0.2534   0.1172     C
C       0.4458   0.4966   0.6328     C
C       0.4458   0.6172   0.2534     C
C       0.4458   0.6328   0.9966     C
C       0.4458   0.7534   0.6172     C
C       0.4458   0.9966   0.1328     C
H       0.4672   0.1181   0.9286     H
H       0.4672   0.1319   0.3214     H
H       0.4672   0.3214   0.6319     H
H       0.4672   0.4286   0.1181     H
H       0.4672   0.6181   0.4286     H
H       0.4672   0.6319   0.8214     H
H       0.4672   0.8214   0.1319     H
H       0.4672   0.9286   0.6181     H
O       0.4699   0.0089   0.8343     O
O       0.4699   0.2411   0.4157     O
O       0.4699   0.3343   0.0089     O
O       0.4699   0.4157   0.7411     O
O       0.4699   0.5089   0.3343     O
O       0.4699   0.7411   0.9157     O
O       0.4699   0.8343   0.5089     O
O       0.4699   0.9157   0.2411     O
H        0.473    0.066   0.3848     H
H        0.473    0.184   0.8652     H
H        0.473   0.3652    0.184     H
H        0.473   0.3848    0.566     H
H        0.473    0.566   0.8848     H
H        0.473    0.684   0.3652     H
H        0.473   0.8652    0.684     H
H        0.473   0.8848    0.066     H
O       0.4773   0.0141   0.9169     O
O       0.4773   0.2359   0.3331     O
O       0.4773   0.3331   0.7359     O
O       0.4773   0.4169   0.0141     O
O       0.4773   0.5141   0.4169     O
O       0.4773   0.7359   0.8331     O
O       0.4773   0.8331   0.2359     O
O       0.4773   0.9169   0.5141     O
O       0.4859   0.0227   0.5831     O
O       0.4859   0.0831   0.0227     O
O       0.4859   0.1669   0.2273     O
O       0.4859   0.2273   0.6669     O
O       0.4859   0.5227   0.0831     O
O       0.4859   0.5831   0.5227     O
O       0.4859   0.6669   0.7273     O
O       0.4859   0.7273   0.1669     O
O       0.4911   0.0301   0.6657     O
O       0.4911   0.0843   0.2199     O
O       0.4911   0.1657   0.0301     O
O       0.4911   0.2199   0.5843     O
O       0.4911   0.5301   0.1657     O
O       0.4911   0.5843   0.7199     O
O       0.4911   0.6657   0.5301     O
O       0.4911   0.7199   0.0843     O
C       0.4913   0.0013   0.6267     C
C       0.4913   0.1233   0.2487     C
C       0.4913   0.1267   0.0013     C
C       0.4913   0.2487   0.6233     C
C       0.4913   0.5013   0.1267     C
C       0.4913   0.6233   0.7487     C
C       0.4913   0.6267   0.5013     C
C       0.4913   0.7487   0.1233     C
C       0.4966   0.1172   0.3042     C
C       0.4966   0.1328   0.9458     C
C       0.4966   0.3042   0.6172     C
C       0.4966   0.4458   0.1328     C
C       0.4966   0.6172   0.8042     C
C       0.4966   0.6328   0.4458     C
C       0.4966   0.8042   0.1172     C
C       0.4966   0.9458   0.6328     C
C       0.4987   0.0087   0.8733     C
C       0.4987   0.2413   0.3767     C
C       0.4987   0.3733   0.0087     C
C       0.4987   0.3767   0.7413     C
C       0.4987   0.5087   0.3733     C
C       0.4987   0.7413   0.8767     C
C       0.4987   0.8733   0.5087     C
C       0.4987   0.8767   0.2413     C
Cd         0.5      0.0      0.0    Cd
Er         0.5      0.0     0.25    Er
Cd         0.5      0.0      0.5    Cd
Er         0.5      0.0     0.75    Er
O          0.5   0.0654   0.3154     O
O          0.5   0.1846   0.9346     O
Er         0.5     0.25      0.0    Er
Cd         0.5     0.25     0.25    Cd
Er         0.5     0.25      0.5    Er
Cd         0.5     0.25     0.75    Cd
O          0.5   0.3154   0.5654     O
O          0.5   0.4346   0.1846     O
Cd         0.5      0.5      0.0    Cd
Er         0.5      0.5     0.25    Er
Cd         0.5      0.5      0.5    Cd
Er         0.5      0.5     0.75    Er
O          0.5   0.5654   0.8154     O
O          0.5   0.6846   0.4346     O
Er         0.5     0.75      0.0    Er
Cd         0.5     0.75     0.25    Cd
Er         0.5     0.75      0.5    Er
Cd         0.5     0.75     0.75    Cd
O          0.5   0.8154   0.0654     O
O          0.5   0.9346   0.6846     O
C       0.5013   0.1233   0.7587     C
C       0.5013   0.1267   0.4913     C
C       0.5013   0.2587   0.1233     C
C       0.5013   0.4913   0.6267     C
C       0.5013   0.6233   0.2587     C
C       0.5013   0.6267   0.9913     C
C       0.5013   0.7587   0.6233     C
C       0.5013   0.9913   0.1267     C
C       0.5034   0.0542   0.3672     C
C       0.5034   0.1958   0.8828     C
C       0.5034   0.3672   0.5542     C
C       0.5034   0.3828   0.1958     C
C       0.5034   0.5542   0.8672     C
C       0.5034   0.6958   0.3828     C
C       0.5034   0.8672   0.0542     C
C       0.5034   0.8828   0.6958     C
C       0.5087   0.2513   0.8767     C
C       0.5087   0.3733   0.4987     C
C       0.5087   0.3767   0.2513     C
C       0.5087   0.4987   0.8733     C
C       0.5087   0.7513   0.3767     C
C       0.5087   0.8733   0.9987     C
C       0.5087   0.8767   0.7513     C
C       0.5087   0.9987   0.3733     C
O       0.5089   0.2801   0.9157     O
O       0.5089   0.3343   0.4699     O
O       0.5089   0.4157   0.2801     O
O       0.5089   0.4699   0.8343     O
O       0.5089   0.7801   0.4157     O
O       0.5089   0.8343   0.9699     O
O       0.5089   0.9157   0.7801     O
O       0.5089   0.9699   0.3343     O
O       0.5141   0.2727   0.8331     O
O       0.5141   0.3331   0.2727     O
O       0.5141   0.4169   0.4773     O
O       0.5141   0.4773   0.9169     O
O       0.5141   0.7727   0.3331     O
O       0.5141   0.8331   0.7727     O
O       0.5141   0.9169   0.9773     O
O       0.5141   0.9773   0.4169     O
O       0.5227   0.0831   0.4859     O
O       0.5227   0.1669   0.7641     O
O       0.5227   0.2641   0.1669     O
O       0.5227   0.4859   0.5831     O
O       0.5227   0.5831   0.9859     O
O       0.5227   0.6669   0.2641     O
O       0.5227   0.7641   0.6669     O
O       0.5227   0.9859   0.0831     O
H        0.527   0.1152    0.934     H
H        0.527   0.1348    0.316     H
H        0.527    0.316   0.6348     H
H        0.527    0.434   0.1152     H
H        0.527   0.6152    0.434     H
H        0.527   0.6348    0.816     H
H        0.527    0.816   0.1348     H
H        0.527    0.934   0.6152     H
O       0.5301   0.0843   0.7589     O
O       0.5301   0.1657   0.4911     O
O       0.5301   0.2589   0.0843     O
O       0.5301   0.4911   0.6657     O
O       0.5301   0.5843   0.2589     O
O       0.5301   0.6657   0.9911     O
O       0.5301   0.7589   0.5843     O
O       0.5301   0.9911   0.1657     O
H       0.5328   0.0714   0.3819     H
H       0.5328   0.1786   0.8681     H
H       0.5328   0.3681   0.1786     H
H       0.5328   0.3819   0.5714     H
H       0.5328   0.5714   0.8819     H
H       0.5328   0.6786   0.3681     H
H       0.5328   0.8681   0.6786     H
H       0.5328   0.8819   0.0714     H
C       0.5542   0.0034   0.8672     C
C       0.5542   0.2466   0.3828     C
C       0.5542   0.3672   0.0034     C
C       0.5542   0.3828   0.7466     C
C       0.5542   0.5034   0.3672     C
C       0.5542   0.7466   0.8828     C
C       0.5542   0.8672   0.5034     C
C       0.5542   0.8828   0.2466     C
O       0.5654      0.0   0.8154     O
O       0.5654     0.25   0.4346     O
O       0.5654   0.3154      0.0     O
O       0.5654   0.4346     0.75     O
O       0.5654      0.5   0.3154     O
O       0.5654     0.75   0.9346     O
O       0.5654   0.8154      0.5     O
O       0.5654   0.9346     0.25     O
H        0.566    0.277   0.3652     H
H        0.566   0.3652    0.777     H
H        0.566   0.3848    0.973     H
H        0.566    0.473   0.3848     H
H        0.566    0.777   0.8652     H
H        0.566   0.8652    0.277     H
H        0.566   0.8848    0.473     H
H        0.566    0.973   0.8848     H
H       0.5714   0.0328   0.8819     H
H       0.5714   0.2172   0.3681     H
H       0.5714   0.3681   0.7172     H
H       0.5714   0.3819   0.0328     H
H       0.5714   0.5328   0.3819     H
H       0.5714   0.7172   0.8681     H
H       0.5714   0.8681   0.2172     H
H       0.5714   0.8819   0.5328     H
O       0.5831   0.0227   0.9859     O
O       0.5831   0.2273   0.2641     O
O       0.5831   0.2641   0.7273     O
O       0.5831   0.4859   0.0227     O
O       0.5831   0.5227   0.4859     O
O       0.5831   0.7273   0.7641     O
O       0.5831   0.7641   0.2273     O
O       0.5831   0.9859   0.5227     O
O       0.5843   0.0301   0.2589     O
O       0.5843   0.2199   0.9911     O
O       0.5843   0.2589   0.5301     O
O       0.5843   0.4911   0.2199     O
O       0.5843   0.5301   0.7589     O
O       0.5843   0.7199   0.4911     O
O       0.5843   0.7589   0.0301     O
O       0.5843   0.9911   0.7199     O
H       0.6152    0.027    0.434     H
H       0.6152    0.223    0.816     H
H       0.6152    0.316    0.223     H
H       0.6152    0.434    0.527     H
H       0.6152    0.527    0.934     H
H       0.6152    0.723    0.316     H
H       0.6152    0.816    0.723     H
H       0.6152    0.934    0.027     H
C       0.6172   0.2534   0.4458     C
C       0.6172   0.3042   0.9966     C
C       0.6172   0.4458   0.7534     C
C       0.6172   0.4966   0.3042     C
C       0.6172   0.7534   0.9458     C
C       0.6172   0.8042   0.4966     C
C       0.6172   0.9458   0.2534     C
C       0.6172   0.9966   0.8042     C
H       0.6181   0.2828   0.8214     H
H       0.6181   0.3214   0.2828     H
H       0.6181   0.4286   0.4672     H
H       0.6181   0.4672   0.9286     H
H       0.6181   0.7828   0.3214     H
H       0.6181   0.8214   0.7828     H
H       0.6181   0.9286   0.9672     H
H       0.6181   0.9672   0.4286     H
C       0.6233   0.0013   0.2587     C
C       0.6233   0.2487   0.9913     C
C       0.6233   0.2587   0.5013     C
C       0.6233   0.4913   0.2487     C
C       0.6233   0.5013   0.7587     C
C       0.6233   0.7487   0.4913     C
C       0.6233   0.7587   0.0013     C
C       0.6233   0.9913   0.7487     C
C       0.6267   0.0013   0.9913     C
C       0.6267   0.2487   0.2587     C
C       0.6267   0.2587   0.7487     C
C       0.6267   0.4913   0.0013     C
C       0.6267   0.5013   0.4913     C
C       0.6267   0.7487   0.7587     C
C       0.6267   0.7587   0.2487     C
C       0.6267   0.9913   0.5013     C
H       0.6319   0.2828   0.4286     H
H       0.6319   0.3214   0.9672     H
H       0.6319   0.4286   0.7828     H
H       0.6319   0.4672   0.3214     H
H       0.6319   0.7828   0.9286     H
H       0.6319   0.8214   0.4672     H
H       0.6319   0.9286   0.2828     H
H       0.6319   0.9672   0.8214     H
C       0.6328   0.2534   0.8042     C
C       0.6328   0.3042   0.2534     C
C       0.6328   0.4458   0.4966     C
C       0.6328   0.4966   0.9458     C
C       0.6328   0.7534   0.3042     C
C       0.6328   0.8042   0.7534     C
C       0.6328   0.9458   0.9966     C
C       0.6328   0.9966   0.4458     C
H       0.6348    0.027    0.816     H
H       0.6348    0.223    0.434     H
H       0.6348    0.316    0.027     H
H       0.6348    0.434    0.723     H
H       0.6348    0.527    0.316     H
H       0.6348    0.723    0.934     H
H       0.6348    0.816    0.527     H
H       0.6348    0.934    0.223     H
O       0.6657   0.0301   0.9911     O
O       0.6657   0.2199   0.2589     O
O       0.6657   0.2589   0.7199     O
O       0.6657   0.4911   0.0301     O
O       0.6657   0.5301   0.4911     O
O       0.6657   0.7199   0.7589     O
O       0.6657   0.7589   0.2199     O
O       0.6657   0.9911   0.5301     O
O       0.6669   0.0227   0.2641     O
O       0.6669   0.2273   0.9859     O
O       0.6669   0.2641   0.5227     O
O       0.6669   0.4859   0.2273     O
O       0.6669   0.5227   0.7641     O
O       0.6669   0.7273   0.4859     O
O       0.6669   0.7641   0.0227     O
O       0.6669   0.9859   0.7273     O
H       0.6786   0.0328   0.3681     H
H       0.6786   0.2172   0.8819     H
H       0.6786   0.3681   0.5328     H
H       0.6786   0.3819   0.2172     H
H       0.6786   0.5328   0.8681     H
H       0.6786   0.7172   0.3819     H
H       0.6786   0.8681   0.0328     H
H       0.6786   0.8819   0.7172     H
H        0.684    0.277   0.8848     H
H        0.684   0.3652    0.473     H
H        0.684   0.3848    0.277     H
H        0.684    0.473   0.8652     H
H        0.684    0.777   0.3848     H
H        0.684   0.8652    0.973     H
H        0.684   0.8848    0.777     H
H        0.684    0.973   0.3652     H
O       0.6846      0.0   0.4346     O
O       0.6846     0.25   0.8154     O
O       0.6846   0.3154     0.25     O
O       0.6846   0.4346      0.5     O
O       0.6846      0.5   0.9346     O
O       0.6846     0.75   0.3154     O
O       0.6846   0.8154     0.75     O
O       0.6846   0.9346      0.0     O
C       0.6958   0.0034   0.3828     C
C       0.6958   0.2466   0.8672     C
C       0.6958   0.3672   0.2466     C
C       0.6958   0.3828   0.5034     C
C       0.6958   0.5034   0.8828     C
C       0.6958   0.7466   0.3672     C
C       0.6958   0.8672   0.7466     C
C       0.6958   0.8828   0.0034     C
H       0.7172   0.0714   0.8681     H
H       0.7172   0.1786   0.3819     H
H       0.7172   0.3681   0.0714     H
H       0.7172   0.3819   0.6786     H
H       0.7172   0.5714   0.3681     H
H       0.7172   0.6786   0.8819     H
H       0.7172   0.8681   0.5714     H
H       0.7172   0.8819   0.1786     H
O       0.7199   0.0843   0.4911     O
O       0.7199   0.1657   0.7589     O
O       0.7199   0.2589   0.1657     O
O       0.7199   0.4911   0.5843     O
O       0.7199   0.5843   0.9911     O
O       0.7199   0.6657   0.2589     O
O       0.7199   0.7589   0.6657     O
O       0.7199   0.9911   0.0843     O
H        0.723   0.1152    0.316     H
H        0.723   0.1348    0.934     H
H        0.723    0.316   0.6152     H
H        0.723    0.434   0.1348     H
H        0.723   0.6152    0.816     H
H        0.723   0.6348    0.434     H
H        0.723    0.816   0.1152     H
H        0.723    0.934   0.6348     H
O       0.7273   0.0831   0.7641     O
O       0.7273   0.1669   0.4859     O
O       0.7273   0.2641   0.0831     O
O       0.7273   0.4859   0.6669     O
O       0.7273   0.5831   0.2641     O
O       0.7273   0.6669   0.9859     O
O       0.7273   0.7641   0.5831     O
O       0.7273   0.9859   0.1669     O
O       0.7359   0.2727   0.4169     O
O       0.7359   0.3331   0.9773     O
O       0.7359   0.4169   0.7727     O
O       0.7359   0.4773   0.3331     O
O       0.7359   0.7727   0.9169     O
O       0.7359   0.8331   0.4773     O
O       0.7359   0.9169   0.2727     O
O       0.7359   0.9773   0.8331     O
O       0.7411   0.2801   0.3343     O
O       0.7411   0.3343   0.7801     O
O       0.7411   0.4157   0.9699     O
O       0.7411   0.4699   0.4157     O
O       0.7411   0.7801   0.8343     O
O       0.7411   0.8343   0.2801     O
O       0.7411   0.9157   0.4699     O
O       0.7411   0.9699   0.9157     O
C       0.7413   0.2513   0.3733     C
C       0.7413   0.3733   0.7513     C
C       0.7413   0.3767   0.9987     C
C       0.7413   0.4987   0.3767     C
C       0.7413   0.7513   0.8733     C
C       0.7413   0.8733   0.2513     C
C       0.7413   0.8767   0.4987     C
C       0.7413   0.9987   0.8767     C
C       0.7466   0.0542   0.8828     C
C       0.7466   0.1958   0.3672     C
C       0.7466   0.3672   0.6958     C
C       0.7466   0.3828   0.0542     C
C       0.7466   0.5542   0.3828     C
C       0.7466   0.6958   0.8672     C
C       0.7466   0.8672   0.1958     C
C       0.7466   0.8828   0.5542     C
C       0.7487   0.1233   0.4913     C
C       0.7487   0.1267   0.7587     C
C       0.7487   0.2587   0.1267     C
C       0.7487   0.4913   0.6233     C
C       0.7487   0.6233   0.9913     C
C       0.7487   0.6267   0.2587     C
C       0.7487   0.7587   0.6267     C
C       0.7487   0.9913   0.1233     C
Er        0.75      0.0      0.0    Er
Cd        0.75      0.0     0.25    Cd
Er        0.75      0.0      0.5    Er
Cd        0.75      0.0     0.75    Cd
O         0.75   0.0654   0.9346     O
O         0.75   0.1846   0.3154     O
Cd        0.75     0.25      0.0    Cd
Er        0.75     0.25     0.25    Er
Cd        0.75     0.25      0.5    Cd
Er        0.75     0.25     0.75    Er
O         0.75   0.3154   0.6846     O
O         0.75   0.4346   0.0654     O
Er        0.75      0.5      0.0    Er
Cd        0.75      0.5     0.25    Cd
Er        0.75      0.5      0.5    Er
Cd        0.75      0.5     0.75    Cd
O         0.75   0.5654   0.4346     O
O         0.75   0.6846   0.8154     O
Cd        0.75     0.75      0.0    Cd
Er        0.75     0.75     0.25    Er
Cd        0.75     0.75      0.5    Cd
Er        0.75     0.75     0.75    Er
O         0.75   0.8154   0.1846     O
O         0.75   0.9346   0.5654     O
C       0.7513   0.0087   0.3767     C
C       0.7513   0.2413   0.8733     C
C       0.7513   0.3733   0.2413     C
C       0.7513   0.3767   0.5087     C
C       0.7513   0.5087   0.8767     C
C       0.7513   0.7413   0.3733     C
C       0.7513   0.8733   0.7413     C
C       0.7513   0.8767   0.0087     C
C       0.7534   0.1172   0.9458     C
C       0.7534   0.1328   0.3042     C
C       0.7534   0.3042   0.6328     C
C       0.7534   0.4458   0.1172     C
C       0.7534   0.6172   0.4458     C
C       0.7534   0.6328   0.8042     C
C       0.7534   0.8042   0.1328     C
C       0.7534   0.9458   0.6172     C
C       0.7587   0.0013   0.6233     C
C       0.7587   0.1233   0.0013     C
C       0.7587   0.1267   0.2487     C
C       0.7587   0.2487   0.6267     C
C       0.7587   0.5013   0.1233     C
C       0.7587   0.6233   0.5013     C
C       0.7587   0.6267   0.7487     C
C       0.7587   0.7487   0.1267     C
O       0.7589   0.0301   0.5843     O
O       0.7589   0.0843   0.0301     O
O       0.7589   0.1657   0.2199     O
O       0.7589   0.2199   0.6657     O
O       0.7589   0.5301   0.0843     O
O       0.7589   0.5843   0.5301     O
O       0.7589   0.6657   0.7199     O
O       0.7589   0.7199   0.1657     O
O       0.7641   0.0227   0.6669     O
O       0.7641   0.0831   0.2273     O
O       0.7641   0.1669   0.0227     O
O       0.7641   0.2273   0.5831     O
O       0.7641   0.5227   0.1669     O
O       0.7641   0.5831   0.7273     O
O       0.7641   0.6669   0.5227     O
O       0.7641   0.7273   0.0831     O
O       0.7727   0.0141   0.3331     O
O       0.7727   0.2359   0.9169     O
O       0.7727   0.3331   0.5141     O
O       0.7727   0.4169   0.2359     O
O       0.7727   0.5141   0.8331     O
O       0.7727   0.7359   0.4169     O
O       0.7727   0.8331   0.0141     O
O       0.7727   0.9169   0.7359     O
H        0.777    0.066   0.8652     H
H        0.777    0.184   0.3848     H
H        0.777   0.3652    0.066     H
H        0.777   0.3848    0.684     H
H        0.777    0.566   0.3652     H
H        0.777    0.684   0.8848     H
H        0.777   0.8652    0.566     H
H        0.777   0.8848    0.184     H
O       0.7801   0.0089   0.4157     O
O       0.7801   0.2411   0.8343     O
O       0.7801   0.3343   0.2411     O
O       0.7801   0.4157   0.5089     O
O       0.7801   0.5089   0.9157     O
O       0.7801   0.7411   0.3343     O
O       0.7801   0.8343   0.7411     O
O       0.7801   0.9157   0.0089     O
H       0.7828   0.1181   0.3214     H
H       0.7828   0.1319   0.9286     H
H       0.7828   0.3214   0.6181     H
H       0.7828   0.4286   0.1319     H
H       0.7828   0.6181   0.8214     H
H       0.7828   0.6319   0.4286     H
H       0.7828   0.8214   0.1181     H
H       0.7828   0.9286   0.6319     H
C       0.8042   0.1172   0.4966     C
C       0.8042   0.1328   0.7534     C
C       0.8042   0.2534   0.1328     C
C       0.8042   0.4966   0.6172     C
C       0.8042   0.6172   0.9966     C
C       0.8042   0.6328   0.2534     C
C       0.8042   0.7534   0.6328     C
C       0.8042   0.9966   0.1172     C
O       0.8154      0.0   0.0654     O
O       0.8154   0.0654      0.5     O
O       0.8154   0.1846     0.75     O
O       0.8154     0.25   0.1846     O
O       0.8154      0.5   0.5654     O
O       0.8154   0.5654      0.0     O
O       0.8154   0.6846     0.25     O
O       0.8154     0.75   0.6846     O
H        0.816    0.027   0.1348     H
H        0.816   0.1152    0.723     H
H        0.816   0.1348    0.527     H
H        0.816    0.223   0.1152     H
H        0.816    0.527   0.6348     H
H        0.816   0.6152    0.223     H
H        0.816   0.6348    0.027     H
H        0.816    0.723   0.6152     H
H       0.8214   0.1181   0.7828     H
H       0.8214   0.1319   0.4672     H
H       0.8214   0.2828   0.1181     H
H       0.8214   0.4672   0.6319     H
H       0.8214   0.6181   0.2828     H
H       0.8214   0.6319   0.9672     H
H       0.8214   0.7828   0.6181     H
H       0.8214   0.9672   0.1319     H
O       0.8331   0.0141   0.7727     O
O       0.8331   0.2359   0.4773     O
O       0.8331   0.2727   0.0141     O
O       0.8331   0.4773   0.7359     O
O       0.8331   0.5141   0.2727     O
O       0.8331   0.7359   0.9773     O
O       0.8331   0.7727   0.5141     O
O       0.8331   0.9773   0.2359     O
O       0.8343   0.0089   0.9699     O
O       0.8343   0.2411   0.2801     O
O       0.8343   0.2801   0.7411     O
O       0.8343   0.4699   0.0089     O
O       0.8343   0.5089   0.4699     O
O       0.8343   0.7411   0.7801     O
O       0.8343   0.7801   0.2411     O
O       0.8343   0.9699   0.5089     O
H       0.8652    0.066    0.277     H
H       0.8652    0.184    0.973     H
H       0.8652    0.277    0.566     H
H       0.8652    0.473    0.184     H
H       0.8652    0.566    0.777     H
H       0.8652    0.684    0.473     H
H       0.8652    0.777    0.066     H
H       0.8652    0.973    0.684     H
C       0.8672   0.0034   0.0542     C
C       0.8672   0.0542   0.5034     C
C       0.8672   0.1958   0.7466     C
C       0.8672   0.2466   0.1958     C
C       0.8672   0.5034   0.5542     C
C       0.8672   0.5542   0.0034     C
C       0.8672   0.6958   0.2466     C
C       0.8672   0.7466   0.6958     C
H       0.8681   0.0328   0.6786     H
H       0.8681   0.0714   0.2172     H
H       0.8681   0.1786   0.0328     H
H       0.8681   0.2172   0.5714     H
H       0.8681   0.5328   0.1786     H
H       0.8681   0.5714   0.7172     H
H       0.8681   0.6786   0.5328     H
H       0.8681   0.7172   0.0714     H
C       0.8733   0.0087   0.9987     C
C       0.8733   0.2413   0.2513     C
C       0.8733   0.2513   0.7413     C
C       0.8733   0.4987   0.0087     C
C       0.8733   0.5087   0.4987     C
C       0.8733   0.7413   0.7513     C
C       0.8733   0.7513   0.2413     C
C       0.8733   0.9987   0.5087     C
C       0.8767   0.0087   0.7513     C
C       0.8767   0.2413   0.4987     C
C       0.8767   0.2513   0.0087     C
C       0.8767   0.4987   0.7413     C
C       0.8767   0.5087   0.2513     C
C       0.8767   0.7413   0.9987     C
C       0.8767   0.7513   0.5087     C
C       0.8767   0.9987   0.2413     C
H       0.8819   0.0328   0.0714     H
H       0.8819   0.0714   0.5328     H
H       0.8819   0.1786   0.7172     H
H       0.8819   0.2172   0.1786     H
H       0.8819   0.5328   0.5714     H
H       0.8819   0.5714   0.0328     H
H       0.8819   0.6786   0.2172     H
H       0.8819   0.7172   0.6786     H
C       0.8828   0.0034   0.6958     C
C       0.8828   0.0542   0.2466     C
C       0.8828   0.1958   0.0034     C
C       0.8828   0.2466   0.5542     C
C       0.8828   0.5034   0.1958     C
C       0.8828   0.5542   0.7466     C
C       0.8828   0.6958   0.5034     C
C       0.8828   0.7466   0.0542     C
H       0.8848    0.066    0.473     H
H       0.8848    0.184    0.777     H
H       0.8848    0.277    0.184     H
H       0.8848    0.473    0.566     H
H       0.8848    0.566    0.973     H
H       0.8848    0.684    0.277     H
H       0.8848    0.777    0.684     H
H       0.8848    0.973    0.066     H
O       0.9157   0.0089   0.7801     O
O       0.9157   0.2411   0.4699     O
O       0.9157   0.2801   0.0089     O
O       0.9157   0.4699   0.7411     O
O       0.9157   0.5089   0.2801     O
O       0.9157   0.7411   0.9699     O
O       0.9157   0.7801   0.5089     O
O       0.9157   0.9699   0.2411     O
O       0.9169   0.0141   0.9773     O
O       0.9169   0.2359   0.2727     O
O       0.9169   0.2727   0.7359     O
O       0.9169   0.4773   0.0141     O
O       0.9169   0.5141   0.4773     O
O       0.9169   0.7359   0.7727     O
O       0.9169   0.7727   0.2359     O
O       0.9169   0.9773   0.5141     O
H       0.9286   0.1181   0.9672     H
H       0.9286   0.1319   0.2828     H
H       0.9286   0.2828   0.6319     H
H       0.9286   0.4672   0.1181     H
H       0.9286   0.6181   0.4672     H
H       0.9286   0.6319   0.7828     H
H       0.9286   0.7828   0.1319     H
H       0.9286   0.9672   0.6181     H
H        0.934    0.027   0.6152     H
H        0.934   0.1152    0.027     H
H        0.934   0.1348    0.223     H
H        0.934    0.223   0.6348     H
H        0.934    0.527   0.1152     H
H        0.934   0.6152    0.527     H
H        0.934   0.6348    0.723     H
H        0.934    0.723   0.1348     H
O       0.9346      0.0   0.6846     O
O       0.9346   0.0654     0.25     O
O       0.9346   0.1846      0.0     O
O       0.9346     0.25   0.5654     O
O       0.9346      0.5   0.1846     O
O       0.9346   0.5654     0.75     O
O       0.9346   0.6846      0.5     O
O       0.9346     0.75   0.0654     O
C       0.9458   0.1172   0.2534     C
C       0.9458   0.1328   0.9966     C
C       0.9458   0.2534   0.6172     C
C       0.9458   0.4966   0.1328     C
C       0.9458   0.6172   0.7534     C
C       0.9458   0.6328   0.4966     C
C       0.9458   0.7534   0.1172     C
C       0.9458   0.9966   0.6328     C
H       0.9672   0.1181   0.4286     H
H       0.9672   0.1319   0.8214     H
H       0.9672   0.3214   0.1319     H
H       0.9672   0.4286   0.6181     H
H       0.9672   0.6181   0.9286     H
H       0.9672   0.6319   0.3214     H
H       0.9672   0.8214   0.6319     H
H       0.9672   0.9286   0.1181     H
O       0.9699   0.0089   0.3343     O
O       0.9699   0.2411   0.9157     O
O       0.9699   0.3343   0.5089     O
O       0.9699   0.4157   0.2411     O
O       0.9699   0.5089   0.8343     O
O       0.9699   0.7411   0.4157     O
O       0.9699   0.8343   0.0089     O
O       0.9699   0.9157   0.7411     O
H        0.973    0.066   0.8848     H
H        0.973    0.184   0.3652     H
H        0.973   0.3652    0.684     H
H        0.973   0.3848    0.066     H
H        0.973    0.566   0.3848     H
H        0.973    0.684   0.8652     H
H        0.973   0.8652    0.184     H
H        0.973   0.8848    0.566     H
O       0.9773   0.0141   0.4169     O
O       0.9773   0.2359   0.8331     O
O       0.9773   0.3331   0.2359     O
O       0.9773   0.4169   0.5141     O
O       0.9773   0.5141   0.9169     O
O       0.9773   0.7359   0.3331     O
O       0.9773   0.8331   0.7359     O
O       0.9773   0.9169   0.0141     O
O       0.9859   0.0227   0.0831     O
O       0.9859   0.0831   0.5227     O
O       0.9859   0.1669   0.7273     O
O       0.9859   0.2273   0.1669     O
O       0.9859   0.5227   0.5831     O
O       0.9859   0.5831   0.0227     O
O       0.9859   0.6669   0.2273     O
O       0.9859   0.7273   0.6669     O
O       0.9911   0.0301   0.1657     O
O       0.9911   0.0843   0.7199     O
O       0.9911   0.1657   0.5301     O
O       0.9911   0.2199   0.0843     O
O       0.9911   0.5301   0.6657     O
O       0.9911   0.5843   0.2199     O
O       0.9911   0.6657   0.0301     O
O       0.9911   0.7199   0.5843     O
C       0.9913   0.0013   0.1267     C
C       0.9913   0.1233   0.7487     C
C       0.9913   0.1267   0.5013     C
C       0.9913   0.2487   0.1233     C
C       0.9913   0.5013   0.6267     C
C       0.9913   0.6233   0.2487     C
C       0.9913   0.6267   0.0013     C
C       0.9913   0.7487   0.6233     C
C       0.9966   0.1172   0.8042     C
C       0.9966   0.1328   0.4458     C
C       0.9966   0.3042   0.1172     C
C       0.9966   0.4458   0.6328     C
C       0.9966   0.6172   0.3042     C
C       0.9966   0.6328   0.9458     C
C       0.9966   0.8042   0.6172     C
C       0.9966   0.9458   0.1328     C
C       0.9987   0.0087   0.3733     C
C       0.9987   0.2413   0.8767     C
C       0.9987   0.3733   0.5087     C
C       0.9987   0.3767   0.2413     C
C       0.9987   0.5087   0.8733     C
C       0.9987   0.7413   0.3767     C
C       0.9987   0.8733   0.0087     C
C       0.9987   0.8767   0.7413     C
