data_I
_chemical_name_common  '/home/zhangsd/repos/MofS-CGCNN/ML/data/TSD/clean_cifs/KOMJED_clean'
_cell_length_a 26.25220
_cell_length_b 26.25220
_cell_length_c 26.25220
_cell_angle_alpha 90.00000
_cell_angle_beta  90.00000
_cell_angle_gamma 90.00000
_space_group_name_H-M_alt      'P 1'


loop_
_space_group_symop_operation_xyz
  'x, y, z' 

loop_
_atom_site_label
_atom_site_fract_x
_atom_site_fract_y
_atom_site_fract_z
_atom_site_type_symbol
Cd         0.0      0.0      0.0    Cd
Dy         0.0      0.0     0.25    Dy
Cd         0.0      0.0      0.5    Cd
Dy         0.0      0.0     0.75    Dy
O          0.0   0.0658   0.3158     O
O          0.0   0.1842   0.9342     O
Dy         0.0     0.25      0.0    Dy
Cd         0.0     0.25     0.25    Cd
Dy         0.0     0.25      0.5    Dy
Cd         0.0     0.25     0.75    Cd
O          0.0   0.3158   0.5658     O
O          0.0   0.4342   0.1842     O
Cd         0.0      0.5      0.0    Cd
Dy         0.0      0.5     0.25    Dy
Cd         0.0      0.5      0.5    Cd
Dy         0.0      0.5     0.75    Dy
O          0.0   0.5658   0.8158     O
O          0.0   0.6842   0.4342     O
Dy         0.0     0.75      0.0    Dy
Cd         0.0     0.75     0.25    Cd
Dy         0.0     0.75      0.5    Dy
Cd         0.0     0.75     0.75    Cd
O          0.0   0.8158   0.0658     O
O          0.0   0.9342   0.6842     O
C       0.0022   0.1237   0.7598     C
C       0.0022   0.1263   0.4902     C
C       0.0022   0.2598   0.1237     C
C       0.0022   0.4902   0.6263     C
C       0.0022   0.6237   0.2598     C
C       0.0022   0.6263   0.9902     C
C       0.0022   0.7598   0.6237     C
C       0.0022   0.9902   0.1263     C
C       0.0035   0.0546   0.3672     C
C       0.0035   0.1954   0.8828     C
C       0.0035   0.3672   0.5546     C
C       0.0035   0.3828   0.1954     C
C       0.0035   0.5546   0.8672     C
C       0.0035   0.6954   0.3828     C
C       0.0035   0.8672   0.0546     C
C       0.0035   0.8828   0.6954     C
O       0.0089   0.2797   0.9151     O
O       0.0089   0.3349   0.4703     O
O       0.0089   0.4151   0.2797     O
O       0.0089   0.4703   0.8349     O
O       0.0089   0.7797   0.4151     O
O       0.0089   0.8349   0.9703     O
O       0.0089   0.9151   0.7797     O
O       0.0089   0.9703   0.3349     O
C       0.0098   0.2522   0.8763     C
C       0.0098   0.3737   0.4978     C
C       0.0098   0.3763   0.2522     C
C       0.0098   0.4978   0.8737     C
C       0.0098   0.7522   0.3763     C
C       0.0098   0.8737   0.9978     C
C       0.0098   0.8763   0.7522     C
C       0.0098   0.9978   0.3737     C
O       0.0143   0.2714   0.8326     O
O       0.0143   0.3326   0.2714     O
O       0.0143   0.4174   0.4786     O
O       0.0143   0.4786   0.9174     O
O       0.0143   0.7714   0.3326     O
O       0.0143   0.8326   0.7714     O
O       0.0143   0.9174   0.9786     O
O       0.0143   0.9786   0.4174     O
O       0.0214   0.0826   0.4857     O
O       0.0214   0.1674   0.7643     O
O       0.0214   0.2643   0.1674     O
O       0.0214   0.4857   0.5826     O
O       0.0214   0.5826   0.9857     O
O       0.0214   0.6674   0.2643     O
O       0.0214   0.7643   0.6674     O
O       0.0214   0.9857   0.0826     O
H       0.0271   0.1154   0.9341     H
H       0.0271   0.1346   0.3159     H
H       0.0271   0.3159   0.6346     H
H       0.0271   0.4341   0.1154     H
H       0.0271   0.6154   0.4341     H
H       0.0271   0.6346   0.8159     H
H       0.0271   0.8159   0.1346     H
H       0.0271   0.9341   0.6154     H
O       0.0297   0.0849   0.7589     O
O       0.0297   0.1651   0.4911     O
O       0.0297   0.2589   0.0849     O
O       0.0297   0.4911   0.6651     O
O       0.0297   0.5849   0.2589     O
O       0.0297   0.6651   0.9911     O
O       0.0297   0.7589   0.5849     O
O       0.0297   0.9911   0.1651     O
H       0.0324   0.0722    0.382     H
H       0.0324   0.1778    0.868     H
H       0.0324    0.368   0.1778     H
H       0.0324    0.382   0.5722     H
H       0.0324   0.5722    0.882     H
H       0.0324   0.6778    0.368     H
H       0.0324    0.868   0.6778     H
H       0.0324    0.882   0.0722     H
C       0.0546   0.0035   0.8672     C
C       0.0546   0.2465   0.3828     C
C       0.0546   0.3672   0.0035     C
C       0.0546   0.3828   0.7465     C
C       0.0546   0.5035   0.3672     C
C       0.0546   0.7465   0.8828     C
C       0.0546   0.8672   0.5035     C
C       0.0546   0.8828   0.2465     C
O       0.0658      0.0   0.8158     O
O       0.0658     0.25   0.4342     O
O       0.0658   0.3158      0.0     O
O       0.0658   0.4342     0.75     O
O       0.0658      0.5   0.3158     O
O       0.0658     0.75   0.9342     O
O       0.0658   0.8158      0.5     O
O       0.0658   0.9342     0.25     O
H       0.0659   0.2771   0.3654     H
H       0.0659   0.3654   0.7771     H
H       0.0659   0.3846   0.9729     H
H       0.0659   0.4729   0.3846     H
H       0.0659   0.7771   0.8654     H
H       0.0659   0.8654   0.2771     H
H       0.0659   0.8846   0.4729     H
H       0.0659   0.9729   0.8846     H
H       0.0722   0.0324    0.882     H
H       0.0722   0.2176    0.368     H
H       0.0722    0.368   0.7176     H
H       0.0722    0.382   0.0324     H
H       0.0722   0.5324    0.382     H
H       0.0722   0.7176    0.868     H
H       0.0722    0.868   0.2176     H
H       0.0722    0.882   0.5324     H
O       0.0826   0.0214   0.9857     O
O       0.0826   0.2286   0.2643     O
O       0.0826   0.2643   0.7286     O
O       0.0826   0.4857   0.0214     O
O       0.0826   0.5214   0.4857     O
O       0.0826   0.7286   0.7643     O
O       0.0826   0.7643   0.2286     O
O       0.0826   0.9857   0.5214     O
O       0.0849   0.0297   0.2589     O
O       0.0849   0.2203   0.9911     O
O       0.0849   0.2589   0.5297     O
O       0.0849   0.4911   0.2203     O
O       0.0849   0.5297   0.7589     O
O       0.0849   0.7203   0.4911     O
O       0.0849   0.7589   0.0297     O
O       0.0849   0.9911   0.7203     O
H       0.1154   0.0271   0.4341     H
H       0.1154   0.2229   0.8159     H
H       0.1154   0.3159   0.2229     H
H       0.1154   0.4341   0.5271     H
H       0.1154   0.5271   0.9341     H
H       0.1154   0.7229   0.3159     H
H       0.1154   0.8159   0.7229     H
H       0.1154   0.9341   0.0271     H
C       0.1172   0.2535   0.4454     C
C       0.1172   0.3046   0.9965     C
C       0.1172   0.4454   0.7535     C
C       0.1172   0.4965   0.3046     C
C       0.1172   0.7535   0.9454     C
C       0.1172   0.8046   0.4965     C
C       0.1172   0.9454   0.2535     C
C       0.1172   0.9965   0.8046     C
H        0.118   0.2824   0.8222     H
H        0.118   0.3222   0.2824     H
H        0.118   0.4278   0.4676     H
H        0.118   0.4676   0.9278     H
H        0.118   0.7824   0.3222     H
H        0.118   0.8222   0.7824     H
H        0.118   0.9278   0.9676     H
H        0.118   0.9676   0.4278     H
C       0.1237   0.0022   0.2598     C
C       0.1237   0.2478   0.9902     C
C       0.1237   0.2598   0.5022     C
C       0.1237   0.4902   0.2478     C
C       0.1237   0.5022   0.7598     C
C       0.1237   0.7478   0.4902     C
C       0.1237   0.7598   0.0022     C
C       0.1237   0.9902   0.7478     C
C       0.1263   0.0022   0.9902     C
C       0.1263   0.2478   0.2598     C
C       0.1263   0.2598   0.7478     C
C       0.1263   0.4902   0.0022     C
C       0.1263   0.5022   0.4902     C
C       0.1263   0.7478   0.7598     C
C       0.1263   0.7598   0.2478     C
C       0.1263   0.9902   0.5022     C
H        0.132   0.2824   0.4278     H
H        0.132   0.3222   0.9676     H
H        0.132   0.4278   0.7824     H
H        0.132   0.4676   0.3222     H
H        0.132   0.7824   0.9278     H
H        0.132   0.8222   0.4676     H
H        0.132   0.9278   0.2824     H
H        0.132   0.9676   0.8222     H
C       0.1328   0.2535   0.8046     C
C       0.1328   0.3046   0.2535     C
C       0.1328   0.4454   0.4965     C
C       0.1328   0.4965   0.9454     C
C       0.1328   0.7535   0.3046     C
C       0.1328   0.8046   0.7535     C
C       0.1328   0.9454   0.9965     C
C       0.1328   0.9965   0.4454     C
H       0.1346   0.0271   0.8159     H
H       0.1346   0.2229   0.4341     H
H       0.1346   0.3159   0.0271     H
H       0.1346   0.4341   0.7229     H
H       0.1346   0.5271   0.3159     H
H       0.1346   0.7229   0.9341     H
H       0.1346   0.8159   0.5271     H
H       0.1346   0.9341   0.2229     H
O       0.1651   0.0297   0.9911     O
O       0.1651   0.2203   0.2589     O
O       0.1651   0.2589   0.7203     O
O       0.1651   0.4911   0.0297     O
O       0.1651   0.5297   0.4911     O
O       0.1651   0.7203   0.7589     O
O       0.1651   0.7589   0.2203     O
O       0.1651   0.9911   0.5297     O
O       0.1674   0.0214   0.2643     O
O       0.1674   0.2286   0.9857     O
O       0.1674   0.2643   0.5214     O
O       0.1674   0.4857   0.2286     O
O       0.1674   0.5214   0.7643     O
O       0.1674   0.7286   0.4857     O
O       0.1674   0.7643   0.0214     O
O       0.1674   0.9857   0.7286     O
H       0.1778   0.0324    0.368     H
H       0.1778   0.2176    0.882     H
H       0.1778    0.368   0.5324     H
H       0.1778    0.382   0.2176     H
H       0.1778   0.5324    0.868     H
H       0.1778   0.7176    0.382     H
H       0.1778    0.868   0.0324     H
H       0.1778    0.882   0.7176     H
H       0.1841   0.2771   0.8846     H
H       0.1841   0.3654   0.4729     H
H       0.1841   0.3846   0.2771     H
H       0.1841   0.4729   0.8654     H
H       0.1841   0.7771   0.3846     H
H       0.1841   0.8654   0.9729     H
H       0.1841   0.8846   0.7771     H
H       0.1841   0.9729   0.3654     H
O       0.1842      0.0   0.4342     O
O       0.1842     0.25   0.8158     O
O       0.1842   0.3158     0.25     O
O       0.1842   0.4342      0.5     O
O       0.1842      0.5   0.9342     O
O       0.1842     0.75   0.3158     O
O       0.1842   0.8158     0.75     O
O       0.1842   0.9342      0.0     O
C       0.1954   0.0035   0.3828     C
C       0.1954   0.2465   0.8672     C
C       0.1954   0.3672   0.2465     C
C       0.1954   0.3828   0.5035     C
C       0.1954   0.5035   0.8828     C
C       0.1954   0.7465   0.3672     C
C       0.1954   0.8672   0.7465     C
C       0.1954   0.8828   0.0035     C
H       0.2176   0.0722    0.868     H
H       0.2176   0.1778    0.382     H
H       0.2176    0.368   0.0722     H
H       0.2176    0.382   0.6778     H
H       0.2176   0.5722    0.368     H
H       0.2176   0.6778    0.882     H
H       0.2176    0.868   0.5722     H
H       0.2176    0.882   0.1778     H
O       0.2203   0.0849   0.4911     O
O       0.2203   0.1651   0.7589     O
O       0.2203   0.2589   0.1651     O
O       0.2203   0.4911   0.5849     O
O       0.2203   0.5849   0.9911     O
O       0.2203   0.6651   0.2589     O
O       0.2203   0.7589   0.6651     O
O       0.2203   0.9911   0.0849     O
H       0.2229   0.1154   0.3159     H
H       0.2229   0.1346   0.9341     H
H       0.2229   0.3159   0.6154     H
H       0.2229   0.4341   0.1346     H
H       0.2229   0.6154   0.8159     H
H       0.2229   0.6346   0.4341     H
H       0.2229   0.8159   0.1154     H
H       0.2229   0.9341   0.6346     H
O       0.2286   0.0826   0.7643     O
O       0.2286   0.1674   0.4857     O
O       0.2286   0.2643   0.0826     O
O       0.2286   0.4857   0.6674     O
O       0.2286   0.5826   0.2643     O
O       0.2286   0.6674   0.9857     O
O       0.2286   0.7643   0.5826     O
O       0.2286   0.9857   0.1674     O
O       0.2357   0.2714   0.4174     O
O       0.2357   0.3326   0.9786     O
O       0.2357   0.4174   0.7714     O
O       0.2357   0.4786   0.3326     O
O       0.2357   0.7714   0.9174     O
O       0.2357   0.8326   0.4786     O
O       0.2357   0.9174   0.2714     O
O       0.2357   0.9786   0.8326     O
C       0.2402   0.2522   0.3737     C
C       0.2402   0.3737   0.7522     C
C       0.2402   0.3763   0.9978     C
C       0.2402   0.4978   0.3763     C
C       0.2402   0.7522   0.8737     C
C       0.2402   0.8737   0.2522     C
C       0.2402   0.8763   0.4978     C
C       0.2402   0.9978   0.8763     C
O       0.2411   0.2797   0.3349     O
O       0.2411   0.3349   0.7797     O
O       0.2411   0.4151   0.9703     O
O       0.2411   0.4703   0.4151     O
O       0.2411   0.7797   0.8349     O
O       0.2411   0.8349   0.2797     O
O       0.2411   0.9151   0.4703     O
O       0.2411   0.9703   0.9151     O
C       0.2465   0.0546   0.8828     C
C       0.2465   0.1954   0.3672     C
C       0.2465   0.3672   0.6954     C
C       0.2465   0.3828   0.0546     C
C       0.2465   0.5546   0.3828     C
C       0.2465   0.6954   0.8672     C
C       0.2465   0.8672   0.1954     C
C       0.2465   0.8828   0.5546     C
C       0.2478   0.1237   0.4902     C
C       0.2478   0.1263   0.7598     C
C       0.2478   0.2598   0.1263     C
C       0.2478   0.4902   0.6237     C
C       0.2478   0.6237   0.9902     C
C       0.2478   0.6263   0.2598     C
C       0.2478   0.7598   0.6263     C
C       0.2478   0.9902   0.1237     C
Dy        0.25      0.0      0.0    Dy
Cd        0.25      0.0     0.25    Cd
Dy        0.25      0.0      0.5    Dy
Cd        0.25      0.0     0.75    Cd
O         0.25   0.0658   0.9342     O
O         0.25   0.1842   0.3158     O
Cd        0.25     0.25      0.0    Cd
Dy        0.25     0.25     0.25    Dy
Cd        0.25     0.25      0.5    Cd
Dy        0.25     0.25     0.75    Dy
O         0.25   0.3158   0.6842     O
O         0.25   0.4342   0.0658     O
Dy        0.25      0.5      0.0    Dy
Cd        0.25      0.5     0.25    Cd
Dy        0.25      0.5      0.5    Dy
Cd        0.25      0.5     0.75    Cd
O         0.25   0.5658   0.4342     O
O         0.25   0.6842   0.8158     O
Cd        0.25     0.75      0.0    Cd
Dy        0.25     0.75     0.25    Dy
Cd        0.25     0.75      0.5    Cd
Dy        0.25     0.75     0.75    Dy
O         0.25   0.8158   0.1842     O
O         0.25   0.9342   0.5658     O
C       0.2522   0.0098   0.3763     C
C       0.2522   0.2402   0.8737     C
C       0.2522   0.3737   0.2402     C
C       0.2522   0.3763   0.5098     C
C       0.2522   0.5098   0.8763     C
C       0.2522   0.7402   0.3737     C
C       0.2522   0.8737   0.7402     C
C       0.2522   0.8763   0.0098     C
C       0.2535   0.1172   0.9454     C
C       0.2535   0.1328   0.3046     C
C       0.2535   0.3046   0.6328     C
C       0.2535   0.4454   0.1172     C
C       0.2535   0.6172   0.4454     C
C       0.2535   0.6328   0.8046     C
C       0.2535   0.8046   0.1328     C
C       0.2535   0.9454   0.6172     C
O       0.2589   0.0297   0.5849     O
O       0.2589   0.0849   0.0297     O
O       0.2589   0.1651   0.2203     O
O       0.2589   0.2203   0.6651     O
O       0.2589   0.5297   0.0849     O
O       0.2589   0.5849   0.5297     O
O       0.2589   0.6651   0.7203     O
O       0.2589   0.7203   0.1651     O
C       0.2598   0.0022   0.6237     C
C       0.2598   0.1237   0.0022     C
C       0.2598   0.1263   0.2478     C
C       0.2598   0.2478   0.6263     C
C       0.2598   0.5022   0.1237     C
C       0.2598   0.6237   0.5022     C
C       0.2598   0.6263   0.7478     C
C       0.2598   0.7478   0.1263     C
O       0.2643   0.0214   0.6674     O
O       0.2643   0.0826   0.2286     O
O       0.2643   0.1674   0.0214     O
O       0.2643   0.2286   0.5826     O
O       0.2643   0.5214   0.1674     O
O       0.2643   0.5826   0.7286     O
O       0.2643   0.6674   0.5214     O
O       0.2643   0.7286   0.0826     O
O       0.2714   0.0143   0.3326     O
O       0.2714   0.2357   0.9174     O
O       0.2714   0.3326   0.5143     O
O       0.2714   0.4174   0.2357     O
O       0.2714   0.5143   0.8326     O
O       0.2714   0.7357   0.4174     O
O       0.2714   0.8326   0.0143     O
O       0.2714   0.9174   0.7357     O
H       0.2771   0.0659   0.8654     H
H       0.2771   0.1841   0.3846     H
H       0.2771   0.3654   0.0659     H
H       0.2771   0.3846   0.6841     H
H       0.2771   0.5659   0.3654     H
H       0.2771   0.6841   0.8846     H
H       0.2771   0.8654   0.5659     H
H       0.2771   0.8846   0.1841     H
O       0.2797   0.0089   0.4151     O
O       0.2797   0.2411   0.8349     O
O       0.2797   0.3349   0.2411     O
O       0.2797   0.4151   0.5089     O
O       0.2797   0.5089   0.9151     O
O       0.2797   0.7411   0.3349     O
O       0.2797   0.8349   0.7411     O
O       0.2797   0.9151   0.0089     O
H       0.2824    0.118   0.3222     H
H       0.2824    0.132   0.9278     H
H       0.2824   0.3222    0.618     H
H       0.2824   0.4278    0.132     H
H       0.2824    0.618   0.8222     H
H       0.2824    0.632   0.4278     H
H       0.2824   0.8222    0.118     H
H       0.2824   0.9278    0.632     H
C       0.3046   0.1172   0.4965     C
C       0.3046   0.1328   0.7535     C
C       0.3046   0.2535   0.1328     C
C       0.3046   0.4965   0.6172     C
C       0.3046   0.6172   0.9965     C
C       0.3046   0.6328   0.2535     C
C       0.3046   0.7535   0.6328     C
C       0.3046   0.9965   0.1172     C
O       0.3158      0.0   0.0658     O
O       0.3158   0.0658      0.5     O
O       0.3158   0.1842     0.75     O
O       0.3158     0.25   0.1842     O
O       0.3158      0.5   0.5658     O
O       0.3158   0.5658      0.0     O
O       0.3158   0.6842     0.25     O
O       0.3158     0.75   0.6842     O
H       0.3159   0.0271   0.1346     H
H       0.3159   0.1154   0.7229     H
H       0.3159   0.1346   0.5271     H
H       0.3159   0.2229   0.1154     H
H       0.3159   0.5271   0.6346     H
H       0.3159   0.6154   0.2229     H
H       0.3159   0.6346   0.0271     H
H       0.3159   0.7229   0.6154     H
H       0.3222    0.118   0.7824     H
H       0.3222    0.132   0.4676     H
H       0.3222   0.2824    0.118     H
H       0.3222   0.4676    0.632     H
H       0.3222    0.618   0.2824     H
H       0.3222    0.632   0.9676     H
H       0.3222   0.7824    0.618     H
H       0.3222   0.9676    0.132     H
O       0.3326   0.0143   0.7714     O
O       0.3326   0.2357   0.4786     O
O       0.3326   0.2714   0.0143     O
O       0.3326   0.4786   0.7357     O
O       0.3326   0.5143   0.2714     O
O       0.3326   0.7357   0.9786     O
O       0.3326   0.7714   0.5143     O
O       0.3326   0.9786   0.2357     O
O       0.3349   0.0089   0.9703     O
O       0.3349   0.2411   0.2797     O
O       0.3349   0.2797   0.7411     O
O       0.3349   0.4703   0.0089     O
O       0.3349   0.5089   0.4703     O
O       0.3349   0.7411   0.7797     O
O       0.3349   0.7797   0.2411     O
O       0.3349   0.9703   0.5089     O
H       0.3654   0.0659   0.2771     H
H       0.3654   0.1841   0.9729     H
H       0.3654   0.2771   0.5659     H
H       0.3654   0.4729   0.1841     H
H       0.3654   0.5659   0.7771     H
H       0.3654   0.6841   0.4729     H
H       0.3654   0.7771   0.0659     H
H       0.3654   0.9729   0.6841     H
C       0.3672   0.0035   0.0546     C
C       0.3672   0.0546   0.5035     C
C       0.3672   0.1954   0.7465     C
C       0.3672   0.2465   0.1954     C
C       0.3672   0.5035   0.5546     C
C       0.3672   0.5546   0.0035     C
C       0.3672   0.6954   0.2465     C
C       0.3672   0.7465   0.6954     C
H        0.368   0.0324   0.6778     H
H        0.368   0.0722   0.2176     H
H        0.368   0.1778   0.0324     H
H        0.368   0.2176   0.5722     H
H        0.368   0.5324   0.1778     H
H        0.368   0.5722   0.7176     H
H        0.368   0.6778   0.5324     H
H        0.368   0.7176   0.0722     H
C       0.3737   0.0098   0.9978     C
C       0.3737   0.2402   0.2522     C
C       0.3737   0.2522   0.7402     C
C       0.3737   0.4978   0.0098     C
C       0.3737   0.5098   0.4978     C
C       0.3737   0.7402   0.7522     C
C       0.3737   0.7522   0.2402     C
C       0.3737   0.9978   0.5098     C
C       0.3763   0.0098   0.7522     C
C       0.3763   0.2402   0.4978     C
C       0.3763   0.2522   0.0098     C
C       0.3763   0.4978   0.7402     C
C       0.3763   0.5098   0.2522     C
C       0.3763   0.7402   0.9978     C
C       0.3763   0.7522   0.5098     C
C       0.3763   0.9978   0.2402     C
H        0.382   0.0324   0.0722     H
H        0.382   0.0722   0.5324     H
H        0.382   0.1778   0.7176     H
H        0.382   0.2176   0.1778     H
H        0.382   0.5324   0.5722     H
H        0.382   0.5722   0.0324     H
H        0.382   0.6778   0.2176     H
H        0.382   0.7176   0.6778     H
C       0.3828   0.0035   0.6954     C
C       0.3828   0.0546   0.2465     C
C       0.3828   0.1954   0.0035     C
C       0.3828   0.2465   0.5546     C
C       0.3828   0.5035   0.1954     C
C       0.3828   0.5546   0.7465     C
C       0.3828   0.6954   0.5035     C
C       0.3828   0.7465   0.0546     C
H       0.3846   0.0659   0.4729     H
H       0.3846   0.1841   0.7771     H
H       0.3846   0.2771   0.1841     H
H       0.3846   0.4729   0.5659     H
H       0.3846   0.5659   0.9729     H
H       0.3846   0.6841   0.2771     H
H       0.3846   0.7771   0.6841     H
H       0.3846   0.9729   0.0659     H
O       0.4151   0.0089   0.7797     O
O       0.4151   0.2411   0.4703     O
O       0.4151   0.2797   0.0089     O
O       0.4151   0.4703   0.7411     O
O       0.4151   0.5089   0.2797     O
O       0.4151   0.7411   0.9703     O
O       0.4151   0.7797   0.5089     O
O       0.4151   0.9703   0.2411     O
O       0.4174   0.0143   0.9786     O
O       0.4174   0.2357   0.2714     O
O       0.4174   0.2714   0.7357     O
O       0.4174   0.4786   0.0143     O
O       0.4174   0.5143   0.4786     O
O       0.4174   0.7357   0.7714     O
O       0.4174   0.7714   0.2357     O
O       0.4174   0.9786   0.5143     O
H       0.4278    0.118   0.9676     H
H       0.4278    0.132   0.2824     H
H       0.4278   0.2824    0.632     H
H       0.4278   0.4676    0.118     H
H       0.4278    0.618   0.4676     H
H       0.4278    0.632   0.7824     H
H       0.4278   0.7824    0.132     H
H       0.4278   0.9676    0.618     H
H       0.4341   0.0271   0.6154     H
H       0.4341   0.1154   0.0271     H
H       0.4341   0.1346   0.2229     H
H       0.4341   0.2229   0.6346     H
H       0.4341   0.5271   0.1154     H
H       0.4341   0.6154   0.5271     H
H       0.4341   0.6346   0.7229     H
H       0.4341   0.7229   0.1346     H
O       0.4342      0.0   0.6842     O
O       0.4342   0.0658     0.25     O
O       0.4342   0.1842      0.0     O
O       0.4342     0.25   0.5658     O
O       0.4342      0.5   0.1842     O
O       0.4342   0.5658     0.75     O
O       0.4342   0.6842      0.5     O
O       0.4342     0.75   0.0658     O
C       0.4454   0.1172   0.2535     C
C       0.4454   0.1328   0.9965     C
C       0.4454   0.2535   0.6172     C
C       0.4454   0.4965   0.1328     C
C       0.4454   0.6172   0.7535     C
C       0.4454   0.6328   0.4965     C
C       0.4454   0.7535   0.1172     C
C       0.4454   0.9965   0.6328     C
H       0.4676    0.118   0.4278     H
H       0.4676    0.132   0.8222     H
H       0.4676   0.3222    0.132     H
H       0.4676   0.4278    0.618     H
H       0.4676    0.618   0.9278     H
H       0.4676    0.632   0.3222     H
H       0.4676   0.8222    0.632     H
H       0.4676   0.9278    0.118     H
O       0.4703   0.0089   0.3349     O
O       0.4703   0.2411   0.9151     O
O       0.4703   0.3349   0.5089     O
O       0.4703   0.4151   0.2411     O
O       0.4703   0.5089   0.8349     O
O       0.4703   0.7411   0.4151     O
O       0.4703   0.8349   0.0089     O
O       0.4703   0.9151   0.7411     O
H       0.4729   0.0659   0.8846     H
H       0.4729   0.1841   0.3654     H
H       0.4729   0.3654   0.6841     H
H       0.4729   0.3846   0.0659     H
H       0.4729   0.5659   0.3846     H
H       0.4729   0.6841   0.8654     H
H       0.4729   0.8654   0.1841     H
H       0.4729   0.8846   0.5659     H
O       0.4786   0.0143   0.4174     O
O       0.4786   0.2357   0.8326     O
O       0.4786   0.3326   0.2357     O
O       0.4786   0.4174   0.5143     O
O       0.4786   0.5143   0.9174     O
O       0.4786   0.7357   0.3326     O
O       0.4786   0.8326   0.7357     O
O       0.4786   0.9174   0.0143     O
O       0.4857   0.0214   0.0826     O
O       0.4857   0.0826   0.5214     O
O       0.4857   0.1674   0.7286     O
O       0.4857   0.2286   0.1674     O
O       0.4857   0.5214   0.5826     O
O       0.4857   0.5826   0.0214     O
O       0.4857   0.6674   0.2286     O
O       0.4857   0.7286   0.6674     O
C       0.4902   0.0022   0.1263     C
C       0.4902   0.1237   0.7478     C
C       0.4902   0.1263   0.5022     C
C       0.4902   0.2478   0.1237     C
C       0.4902   0.5022   0.6263     C
C       0.4902   0.6237   0.2478     C
C       0.4902   0.6263   0.0022     C
C       0.4902   0.7478   0.6237     C
O       0.4911   0.0297   0.1651     O
O       0.4911   0.0849   0.7203     O
O       0.4911   0.1651   0.5297     O
O       0.4911   0.2203   0.0849     O
O       0.4911   0.5297   0.6651     O
O       0.4911   0.5849   0.2203     O
O       0.4911   0.6651   0.0297     O
O       0.4911   0.7203   0.5849     O
C       0.4965   0.1172   0.8046     C
C       0.4965   0.1328   0.4454     C
C       0.4965   0.3046   0.1172     C
C       0.4965   0.4454   0.6328     C
C       0.4965   0.6172   0.3046     C
C       0.4965   0.6328   0.9454     C
C       0.4965   0.8046   0.6172     C
C       0.4965   0.9454   0.1328     C
C       0.4978   0.0098   0.3737     C
C       0.4978   0.2402   0.8763     C
C       0.4978   0.3737   0.5098     C
C       0.4978   0.3763   0.2402     C
C       0.4978   0.5098   0.8737     C
C       0.4978   0.7402   0.3763     C
C       0.4978   0.8737   0.0098     C
C       0.4978   0.8763   0.7402     C
Cd         0.5      0.0      0.0    Cd
Dy         0.5      0.0     0.25    Dy
Cd         0.5      0.0      0.5    Cd
Dy         0.5      0.0     0.75    Dy
O          0.5   0.0658   0.8158     O
O          0.5   0.1842   0.4342     O
Dy         0.5     0.25      0.0    Dy
Cd         0.5     0.25     0.25    Cd
Dy         0.5     0.25      0.5    Dy
Cd         0.5     0.25     0.75    Cd
O          0.5   0.3158   0.0658     O
O          0.5   0.4342   0.6842     O
Cd         0.5      0.5      0.0    Cd
Dy         0.5      0.5     0.25    Dy
Cd         0.5      0.5      0.5    Cd
Dy         0.5      0.5     0.75    Dy
O          0.5   0.5658   0.3158     O
O          0.5   0.6842   0.9342     O
Dy         0.5     0.75      0.0    Dy
Cd         0.5     0.75     0.25    Cd
Dy         0.5     0.75      0.5    Dy
Cd         0.5     0.75     0.75    Cd
O          0.5   0.8158   0.5658     O
O          0.5   0.9342   0.1842     O
C       0.5022   0.1237   0.2598     C
C       0.5022   0.1263   0.9902     C
C       0.5022   0.2598   0.6237     C
C       0.5022   0.4902   0.1263     C
C       0.5022   0.6237   0.7598     C
C       0.5022   0.6263   0.4902     C
C       0.5022   0.7598   0.1237     C
C       0.5022   0.9902   0.6263     C
C       0.5035   0.0546   0.8672     C
C       0.5035   0.1954   0.3828     C
C       0.5035   0.3672   0.0546     C
C       0.5035   0.3828   0.6954     C
C       0.5035   0.5546   0.3672     C
C       0.5035   0.6954   0.8828     C
C       0.5035   0.8672   0.5546     C
C       0.5035   0.8828   0.1954     C
O       0.5089   0.2797   0.4151     O
O       0.5089   0.3349   0.9703     O
O       0.5089   0.4151   0.7797     O
O       0.5089   0.4703   0.3349     O
O       0.5089   0.7797   0.9151     O
O       0.5089   0.8349   0.4703     O
O       0.5089   0.9151   0.2797     O
O       0.5089   0.9703   0.8349     O
C       0.5098   0.2522   0.3763     C
C       0.5098   0.3737   0.9978     C
C       0.5098   0.3763   0.7522     C
C       0.5098   0.4978   0.3737     C
C       0.5098   0.7522   0.8763     C
C       0.5098   0.8737   0.4978     C
C       0.5098   0.8763   0.2522     C
C       0.5098   0.9978   0.8737     C
O       0.5143   0.2714   0.3326     O
O       0.5143   0.3326   0.7714     O
O       0.5143   0.4174   0.9786     O
O       0.5143   0.4786   0.4174     O
O       0.5143   0.7714   0.8326     O
O       0.5143   0.8326   0.2714     O
O       0.5143   0.9174   0.4786     O
O       0.5143   0.9786   0.9174     O
O       0.5214   0.0826   0.9857     O
O       0.5214   0.1674   0.2643     O
O       0.5214   0.2643   0.6674     O
O       0.5214   0.4857   0.0826     O
O       0.5214   0.5826   0.4857     O
O       0.5214   0.6674   0.7643     O
O       0.5214   0.7643   0.1674     O
O       0.5214   0.9857   0.5826     O
H       0.5271   0.1154   0.4341     H
H       0.5271   0.1346   0.8159     H
H       0.5271   0.3159   0.1346     H
H       0.5271   0.4341   0.6154     H
H       0.5271   0.6154   0.9341     H
H       0.5271   0.6346   0.3159     H
H       0.5271   0.8159   0.6346     H
H       0.5271   0.9341   0.1154     H
O       0.5297   0.0849   0.2589     O
O       0.5297   0.1651   0.9911     O
O       0.5297   0.2589   0.5849     O
O       0.5297   0.4911   0.1651     O
O       0.5297   0.5849   0.7589     O
O       0.5297   0.6651   0.4911     O
O       0.5297   0.7589   0.0849     O
O       0.5297   0.9911   0.6651     O
H       0.5324   0.0722    0.882     H
H       0.5324   0.1778    0.368     H
H       0.5324    0.368   0.6778     H
H       0.5324    0.382   0.0722     H
H       0.5324   0.5722    0.382     H
H       0.5324   0.6778    0.868     H
H       0.5324    0.868   0.1778     H
H       0.5324    0.882   0.5722     H
C       0.5546   0.0035   0.3672     C
C       0.5546   0.2465   0.8828     C
C       0.5546   0.3672   0.5035     C
C       0.5546   0.3828   0.2465     C
C       0.5546   0.5035   0.8672     C
C       0.5546   0.7465   0.3828     C
C       0.5546   0.8672   0.0035     C
C       0.5546   0.8828   0.7465     C
O       0.5658      0.0   0.3158     O
O       0.5658     0.25   0.9342     O
O       0.5658   0.3158      0.5     O
O       0.5658   0.4342     0.25     O
O       0.5658      0.5   0.8158     O
O       0.5658     0.75   0.4342     O
O       0.5658   0.8158      0.0     O
O       0.5658   0.9342     0.75     O
H       0.5659   0.2771   0.8654     H
H       0.5659   0.3654   0.2771     H
H       0.5659   0.3846   0.4729     H
H       0.5659   0.4729   0.8846     H
H       0.5659   0.7771   0.3654     H
H       0.5659   0.8654   0.7771     H
H       0.5659   0.8846   0.9729     H
H       0.5659   0.9729   0.3846     H
H       0.5722   0.0324    0.382     H
H       0.5722   0.2176    0.868     H
H       0.5722    0.368   0.2176     H
H       0.5722    0.382   0.5324     H
H       0.5722   0.5324    0.882     H
H       0.5722   0.7176    0.368     H
H       0.5722    0.868   0.7176     H
H       0.5722    0.882   0.0324     H
O       0.5826   0.0214   0.4857     O
O       0.5826   0.2286   0.7643     O
O       0.5826   0.2643   0.2286     O
O       0.5826   0.4857   0.5214     O
O       0.5826   0.5214   0.9857     O
O       0.5826   0.7286   0.2643     O
O       0.5826   0.7643   0.7286     O
O       0.5826   0.9857   0.0214     O
O       0.5849   0.0297   0.7589     O
O       0.5849   0.2203   0.4911     O
O       0.5849   0.2589   0.0297     O
O       0.5849   0.4911   0.7203     O
O       0.5849   0.5297   0.2589     O
O       0.5849   0.7203   0.9911     O
O       0.5849   0.7589   0.5297     O
O       0.5849   0.9911   0.2203     O
H       0.6154   0.0271   0.9341     H
H       0.6154   0.2229   0.3159     H
H       0.6154   0.3159   0.7229     H
H       0.6154   0.4341   0.0271     H
H       0.6154   0.5271   0.4341     H
H       0.6154   0.7229   0.8159     H
H       0.6154   0.8159   0.2229     H
H       0.6154   0.9341   0.5271     H
C       0.6172   0.2535   0.9454     C
C       0.6172   0.3046   0.4965     C
C       0.6172   0.4454   0.2535     C
C       0.6172   0.4965   0.8046     C
C       0.6172   0.7535   0.4454     C
C       0.6172   0.8046   0.9965     C
C       0.6172   0.9454   0.7535     C
C       0.6172   0.9965   0.3046     C
H        0.618   0.2824   0.3222     H
H        0.618   0.3222   0.7824     H
H        0.618   0.4278   0.9676     H
H        0.618   0.4676   0.4278     H
H        0.618   0.7824   0.8222     H
H        0.618   0.8222   0.2824     H
H        0.618   0.9278   0.4676     H
H        0.618   0.9676   0.9278     H
C       0.6237   0.0022   0.7598     C
C       0.6237   0.2478   0.4902     C
C       0.6237   0.2598   0.0022     C
C       0.6237   0.4902   0.7478     C
C       0.6237   0.5022   0.2598     C
C       0.6237   0.7478   0.9902     C
C       0.6237   0.7598   0.5022     C
C       0.6237   0.9902   0.2478     C
C       0.6263   0.0022   0.4902     C
C       0.6263   0.2478   0.7598     C
C       0.6263   0.2598   0.2478     C
C       0.6263   0.4902   0.5022     C
C       0.6263   0.5022   0.9902     C
C       0.6263   0.7478   0.2598     C
C       0.6263   0.7598   0.7478     C
C       0.6263   0.9902   0.0022     C
H        0.632   0.2824   0.9278     H
H        0.632   0.3222   0.4676     H
H        0.632   0.4278   0.2824     H
H        0.632   0.4676   0.8222     H
H        0.632   0.7824   0.4278     H
H        0.632   0.8222   0.9676     H
H        0.632   0.9278   0.7824     H
H        0.632   0.9676   0.3222     H
C       0.6328   0.2535   0.3046     C
C       0.6328   0.3046   0.7535     C
C       0.6328   0.4454   0.9965     C
C       0.6328   0.4965   0.4454     C
C       0.6328   0.7535   0.8046     C
C       0.6328   0.8046   0.2535     C
C       0.6328   0.9454   0.4965     C
C       0.6328   0.9965   0.9454     C
H       0.6346   0.0271   0.3159     H
H       0.6346   0.2229   0.9341     H
H       0.6346   0.3159   0.5271     H
H       0.6346   0.4341   0.2229     H
H       0.6346   0.5271   0.8159     H
H       0.6346   0.7229   0.4341     H
H       0.6346   0.8159   0.0271     H
H       0.6346   0.9341   0.7229     H
O       0.6651   0.0297   0.4911     O
O       0.6651   0.2203   0.7589     O
O       0.6651   0.2589   0.2203     O
O       0.6651   0.4911   0.5297     O
O       0.6651   0.5297   0.9911     O
O       0.6651   0.7203   0.2589     O
O       0.6651   0.7589   0.7203     O
O       0.6651   0.9911   0.0297     O
O       0.6674   0.0214   0.7643     O
O       0.6674   0.2286   0.4857     O
O       0.6674   0.2643   0.0214     O
O       0.6674   0.4857   0.7286     O
O       0.6674   0.5214   0.2643     O
O       0.6674   0.7286   0.9857     O
O       0.6674   0.7643   0.5214     O
O       0.6674   0.9857   0.2286     O
H       0.6778   0.0324    0.868     H
H       0.6778   0.2176    0.382     H
H       0.6778    0.368   0.0324     H
H       0.6778    0.382   0.7176     H
H       0.6778   0.5324    0.368     H
H       0.6778   0.7176    0.882     H
H       0.6778    0.868   0.5324     H
H       0.6778    0.882   0.2176     H
H       0.6841   0.2771   0.3846     H
H       0.6841   0.3654   0.9729     H
H       0.6841   0.3846   0.7771     H
H       0.6841   0.4729   0.3654     H
H       0.6841   0.7771   0.8846     H
H       0.6841   0.8654   0.4729     H
H       0.6841   0.8846   0.2771     H
H       0.6841   0.9729   0.8654     H
O       0.6842      0.0   0.9342     O
O       0.6842     0.25   0.3158     O
O       0.6842   0.3158     0.75     O
O       0.6842   0.4342      0.0     O
O       0.6842      0.5   0.4342     O
O       0.6842     0.75   0.8158     O
O       0.6842   0.8158     0.25     O
O       0.6842   0.9342      0.5     O
C       0.6954   0.0035   0.8828     C
C       0.6954   0.2465   0.3672     C
C       0.6954   0.3672   0.7465     C
C       0.6954   0.3828   0.0035     C
C       0.6954   0.5035   0.3828     C
C       0.6954   0.7465   0.8672     C
C       0.6954   0.8672   0.2465     C
C       0.6954   0.8828   0.5035     C
H       0.7176   0.0722    0.368     H
H       0.7176   0.1778    0.882     H
H       0.7176    0.368   0.5722     H
H       0.7176    0.382   0.1778     H
H       0.7176   0.5722    0.868     H
H       0.7176   0.6778    0.382     H
H       0.7176    0.868   0.0722     H
H       0.7176    0.882   0.6778     H
O       0.7203   0.0849   0.9911     O
O       0.7203   0.1651   0.2589     O
O       0.7203   0.2589   0.6651     O
O       0.7203   0.4911   0.0849     O
O       0.7203   0.5849   0.4911     O
O       0.7203   0.6651   0.7589     O
O       0.7203   0.7589   0.1651     O
O       0.7203   0.9911   0.5849     O
H       0.7229   0.1154   0.8159     H
H       0.7229   0.1346   0.4341     H
H       0.7229   0.3159   0.1154     H
H       0.7229   0.4341   0.6346     H
H       0.7229   0.6154   0.3159     H
H       0.7229   0.6346   0.9341     H
H       0.7229   0.8159   0.6154     H
H       0.7229   0.9341   0.1346     H
O       0.7286   0.0826   0.2643     O
O       0.7286   0.1674   0.9857     O
O       0.7286   0.2643   0.5826     O
O       0.7286   0.4857   0.1674     O
O       0.7286   0.5826   0.7643     O
O       0.7286   0.6674   0.4857     O
O       0.7286   0.7643   0.0826     O
O       0.7286   0.9857   0.6674     O
O       0.7357   0.2714   0.9174     O
O       0.7357   0.3326   0.4786     O
O       0.7357   0.4174   0.2714     O
O       0.7357   0.4786   0.8326     O
O       0.7357   0.7714   0.4174     O
O       0.7357   0.8326   0.9786     O
O       0.7357   0.9174   0.7714     O
O       0.7357   0.9786   0.3326     O
C       0.7402   0.2522   0.8737     C
C       0.7402   0.3737   0.2522     C
C       0.7402   0.3763   0.4978     C
C       0.7402   0.4978   0.8763     C
C       0.7402   0.7522   0.3737     C
C       0.7402   0.8737   0.7522     C
C       0.7402   0.8763   0.9978     C
C       0.7402   0.9978   0.3763     C
O       0.7411   0.2797   0.8349     O
O       0.7411   0.3349   0.2797     O
O       0.7411   0.4151   0.4703     O
O       0.7411   0.4703   0.9151     O
O       0.7411   0.7797   0.3349     O
O       0.7411   0.8349   0.7797     O
O       0.7411   0.9151   0.9703     O
O       0.7411   0.9703   0.4151     O
C       0.7465   0.0546   0.3828     C
C       0.7465   0.1954   0.8672     C
C       0.7465   0.3672   0.1954     C
C       0.7465   0.3828   0.5546     C
C       0.7465   0.5546   0.8828     C
C       0.7465   0.6954   0.3672     C
C       0.7465   0.8672   0.6954     C
C       0.7465   0.8828   0.0546     C
C       0.7478   0.1237   0.9902     C
C       0.7478   0.1263   0.2598     C
C       0.7478   0.2598   0.6263     C
C       0.7478   0.4902   0.1237     C
C       0.7478   0.6237   0.4902     C
C       0.7478   0.6263   0.7598     C
C       0.7478   0.7598   0.1263     C
C       0.7478   0.9902   0.6237     C
Dy        0.75      0.0      0.0    Dy
Cd        0.75      0.0     0.25    Cd
Dy        0.75      0.0      0.5    Dy
Cd        0.75      0.0     0.75    Cd
O         0.75   0.0658   0.4342     O
O         0.75   0.1842   0.8158     O
Cd        0.75     0.25      0.0    Cd
Dy        0.75     0.25     0.25    Dy
Cd        0.75     0.25      0.5    Cd
Dy        0.75     0.25     0.75    Dy
O         0.75   0.3158   0.1842     O
O         0.75   0.4342   0.5658     O
Dy        0.75      0.5      0.0    Dy
Cd        0.75      0.5     0.25    Cd
Dy        0.75      0.5      0.5    Dy
Cd        0.75      0.5     0.75    Cd
O         0.75   0.5658   0.9342     O
O         0.75   0.6842   0.3158     O
Cd        0.75     0.75      0.0    Cd
Dy        0.75     0.75     0.25    Dy
Cd        0.75     0.75      0.5    Cd
Dy        0.75     0.75     0.75    Dy
O         0.75   0.8158   0.6842     O
O         0.75   0.9342   0.0658     O
C       0.7522   0.0098   0.8763     C
C       0.7522   0.2402   0.3737     C
C       0.7522   0.3737   0.7402     C
C       0.7522   0.3763   0.0098     C
C       0.7522   0.5098   0.3763     C
C       0.7522   0.7402   0.8737     C
C       0.7522   0.8737   0.2402     C
C       0.7522   0.8763   0.5098     C
C       0.7535   0.1172   0.4454     C
C       0.7535   0.1328   0.8046     C
C       0.7535   0.3046   0.1328     C
C       0.7535   0.4454   0.6172     C
C       0.7535   0.6172   0.9454     C
C       0.7535   0.6328   0.3046     C
C       0.7535   0.8046   0.6328     C
C       0.7535   0.9454   0.1172     C
O       0.7589   0.0297   0.0849     O
O       0.7589   0.0849   0.5297     O
O       0.7589   0.1651   0.7203     O
O       0.7589   0.2203   0.1651     O
O       0.7589   0.5297   0.5849     O
O       0.7589   0.5849   0.0297     O
O       0.7589   0.6651   0.2203     O
O       0.7589   0.7203   0.6651     O
C       0.7598   0.0022   0.1237     C
C       0.7598   0.1237   0.5022     C
C       0.7598   0.1263   0.7478     C
C       0.7598   0.2478   0.1263     C
C       0.7598   0.5022   0.6237     C
C       0.7598   0.6237   0.0022     C
C       0.7598   0.6263   0.2478     C
C       0.7598   0.7478   0.6263     C
O       0.7643   0.0214   0.1674     O
O       0.7643   0.0826   0.7286     O
O       0.7643   0.1674   0.5214     O
O       0.7643   0.2286   0.0826     O
O       0.7643   0.5214   0.6674     O
O       0.7643   0.5826   0.2286     O
O       0.7643   0.6674   0.0214     O
O       0.7643   0.7286   0.5826     O
O       0.7714   0.0143   0.8326     O
O       0.7714   0.2357   0.4174     O
O       0.7714   0.3326   0.0143     O
O       0.7714   0.4174   0.7357     O
O       0.7714   0.5143   0.3326     O
O       0.7714   0.7357   0.9174     O
O       0.7714   0.8326   0.5143     O
O       0.7714   0.9174   0.2357     O
H       0.7771   0.0659   0.3654     H
H       0.7771   0.1841   0.8846     H
H       0.7771   0.3654   0.5659     H
H       0.7771   0.3846   0.1841     H
H       0.7771   0.5659   0.8654     H
H       0.7771   0.6841   0.3846     H
H       0.7771   0.8654   0.0659     H
H       0.7771   0.8846   0.6841     H
O       0.7797   0.0089   0.9151     O
O       0.7797   0.2411   0.3349     O
O       0.7797   0.3349   0.7411     O
O       0.7797   0.4151   0.0089     O
O       0.7797   0.5089   0.4151     O
O       0.7797   0.7411   0.8349     O
O       0.7797   0.8349   0.2411     O
O       0.7797   0.9151   0.5089     O
H       0.7824    0.118   0.8222     H
H       0.7824    0.132   0.4278     H
H       0.7824   0.3222    0.118     H
H       0.7824   0.4278    0.632     H
H       0.7824    0.618   0.3222     H
H       0.7824    0.632   0.9278     H
H       0.7824   0.8222    0.618     H
H       0.7824   0.9278    0.132     H
C       0.8046   0.1172   0.9965     C
C       0.8046   0.1328   0.2535     C
C       0.8046   0.2535   0.6328     C
C       0.8046   0.4965   0.1172     C
C       0.8046   0.6172   0.4965     C
C       0.8046   0.6328   0.7535     C
C       0.8046   0.7535   0.1328     C
C       0.8046   0.9965   0.6172     C
O       0.8158      0.0   0.5658     O
O       0.8158   0.0658      0.0     O
O       0.8158   0.1842     0.25     O
O       0.8158     0.25   0.6842     O
O       0.8158      0.5   0.0658     O
O       0.8158   0.5658      0.5     O
O       0.8158   0.6842     0.75     O
O       0.8158     0.75   0.1842     O
H       0.8159   0.0271   0.6346     H
H       0.8159   0.1154   0.2229     H
H       0.8159   0.1346   0.0271     H
H       0.8159   0.2229   0.6154     H
H       0.8159   0.5271   0.1346     H
H       0.8159   0.6154   0.7229     H
H       0.8159   0.6346   0.5271     H
H       0.8159   0.7229   0.1154     H
H       0.8222    0.118   0.2824     H
H       0.8222    0.132   0.9676     H
H       0.8222   0.2824    0.618     H
H       0.8222   0.4676    0.132     H
H       0.8222    0.618   0.7824     H
H       0.8222    0.632   0.4676     H
H       0.8222   0.7824    0.118     H
H       0.8222   0.9676    0.632     H
O       0.8326   0.0143   0.2714     O
O       0.8326   0.2357   0.9786     O
O       0.8326   0.2714   0.5143     O
O       0.8326   0.4786   0.2357     O
O       0.8326   0.5143   0.7714     O
O       0.8326   0.7357   0.4786     O
O       0.8326   0.7714   0.0143     O
O       0.8326   0.9786   0.7357     O
O       0.8349   0.0089   0.4703     O
O       0.8349   0.2411   0.7797     O
O       0.8349   0.2797   0.2411     O
O       0.8349   0.4703   0.5089     O
O       0.8349   0.5089   0.9703     O
O       0.8349   0.7411   0.2797     O
O       0.8349   0.7797   0.7411     O
O       0.8349   0.9703   0.0089     O
H       0.8654   0.0659   0.7771     H
H       0.8654   0.1841   0.4729     H
H       0.8654   0.2771   0.0659     H
H       0.8654   0.4729   0.6841     H
H       0.8654   0.5659   0.2771     H
H       0.8654   0.6841   0.9729     H
H       0.8654   0.7771   0.5659     H
H       0.8654   0.9729   0.1841     H
C       0.8672   0.0035   0.5546     C
C       0.8672   0.0546   0.0035     C
C       0.8672   0.1954   0.2465     C
C       0.8672   0.2465   0.6954     C
C       0.8672   0.5035   0.0546     C
C       0.8672   0.5546   0.5035     C
C       0.8672   0.6954   0.7465     C
C       0.8672   0.7465   0.1954     C
H        0.868   0.0324   0.1778     H
H        0.868   0.0722   0.7176     H
H        0.868   0.1778   0.5324     H
H        0.868   0.2176   0.0722     H
H        0.868   0.5324   0.6778     H
H        0.868   0.5722   0.2176     H
H        0.868   0.6778   0.0324     H
H        0.868   0.7176   0.5722     H
C       0.8737   0.0098   0.4978     C
C       0.8737   0.2402   0.7522     C
C       0.8737   0.2522   0.2402     C
C       0.8737   0.4978   0.5098     C
C       0.8737   0.5098   0.9978     C
C       0.8737   0.7402   0.2522     C
C       0.8737   0.7522   0.7402     C
C       0.8737   0.9978   0.0098     C
C       0.8763   0.0098   0.2522     C
C       0.8763   0.2402   0.9978     C
C       0.8763   0.2522   0.5098     C
C       0.8763   0.4978   0.2402     C
C       0.8763   0.5098   0.7522     C
C       0.8763   0.7402   0.4978     C
C       0.8763   0.7522   0.0098     C
C       0.8763   0.9978   0.7402     C
H        0.882   0.0324   0.5722     H
H        0.882   0.0722   0.0324     H
H        0.882   0.1778   0.2176     H
H        0.882   0.2176   0.6778     H
H        0.882   0.5324   0.0722     H
H        0.882   0.5722   0.5324     H
H        0.882   0.6778   0.7176     H
H        0.882   0.7176   0.1778     H
C       0.8828   0.0035   0.1954     C
C       0.8828   0.0546   0.7465     C
C       0.8828   0.1954   0.5035     C
C       0.8828   0.2465   0.0546     C
C       0.8828   0.5035   0.6954     C
C       0.8828   0.5546   0.2465     C
C       0.8828   0.6954   0.0035     C
C       0.8828   0.7465   0.5546     C
H       0.8846   0.0659   0.9729     H
H       0.8846   0.1841   0.2771     H
H       0.8846   0.2771   0.6841     H
H       0.8846   0.4729   0.0659     H
H       0.8846   0.5659   0.4729     H
H       0.8846   0.6841   0.7771     H
H       0.8846   0.7771   0.1841     H
H       0.8846   0.9729   0.5659     H
O       0.9151   0.0089   0.2797     O
O       0.9151   0.2411   0.9703     O
O       0.9151   0.2797   0.5089     O
O       0.9151   0.4703   0.2411     O
O       0.9151   0.5089   0.7797     O
O       0.9151   0.7411   0.4703     O
O       0.9151   0.7797   0.0089     O
O       0.9151   0.9703   0.7411     O
O       0.9174   0.0143   0.4786     O
O       0.9174   0.2357   0.7714     O
O       0.9174   0.2714   0.2357     O
O       0.9174   0.4786   0.5143     O
O       0.9174   0.5143   0.9786     O
O       0.9174   0.7357   0.2714     O
O       0.9174   0.7714   0.7357     O
O       0.9174   0.9786   0.0143     O
H       0.9278    0.118   0.4676     H
H       0.9278    0.132   0.7824     H
H       0.9278   0.2824    0.132     H
H       0.9278   0.4676    0.618     H
H       0.9278    0.618   0.9676     H
H       0.9278    0.632   0.2824     H
H       0.9278   0.7824    0.632     H
H       0.9278   0.9676    0.118     H
H       0.9341   0.0271   0.1154     H
H       0.9341   0.1154   0.5271     H
H       0.9341   0.1346   0.7229     H
H       0.9341   0.2229   0.1346     H
H       0.9341   0.5271   0.6154     H
H       0.9341   0.6154   0.0271     H
H       0.9341   0.6346   0.2229     H
H       0.9341   0.7229   0.6346     H
O       0.9342      0.0   0.1842     O
O       0.9342   0.0658     0.75     O
O       0.9342   0.1842      0.5     O
O       0.9342     0.25   0.0658     O
O       0.9342      0.5   0.6842     O
O       0.9342   0.5658     0.25     O
O       0.9342   0.6842      0.0     O
O       0.9342     0.75   0.5658     O
C       0.9454   0.1172   0.7535     C
C       0.9454   0.1328   0.4965     C
C       0.9454   0.2535   0.1172     C
C       0.9454   0.4965   0.6328     C
C       0.9454   0.6172   0.2535     C
C       0.9454   0.6328   0.9965     C
C       0.9454   0.7535   0.6172     C
C       0.9454   0.9965   0.1328     C
H       0.9676    0.118   0.9278     H
H       0.9676    0.132   0.3222     H
H       0.9676   0.3222    0.632     H
H       0.9676   0.4278    0.118     H
H       0.9676    0.618   0.4278     H
H       0.9676    0.632   0.8222     H
H       0.9676   0.8222    0.132     H
H       0.9676   0.9278    0.618     H
O       0.9703   0.0089   0.8349     O
O       0.9703   0.2411   0.4151     O
O       0.9703   0.3349   0.0089     O
O       0.9703   0.4151   0.7411     O
O       0.9703   0.5089   0.3349     O
O       0.9703   0.7411   0.9151     O
O       0.9703   0.8349   0.5089     O
O       0.9703   0.9151   0.2411     O
H       0.9729   0.0659   0.3846     H
H       0.9729   0.1841   0.8654     H
H       0.9729   0.3654   0.1841     H
H       0.9729   0.3846   0.5659     H
H       0.9729   0.5659   0.8846     H
H       0.9729   0.6841   0.3654     H
H       0.9729   0.8654   0.6841     H
H       0.9729   0.8846   0.0659     H
O       0.9786   0.0143   0.9174     O
O       0.9786   0.2357   0.3326     O
O       0.9786   0.3326   0.7357     O
O       0.9786   0.4174   0.0143     O
O       0.9786   0.5143   0.4174     O
O       0.9786   0.7357   0.8326     O
O       0.9786   0.8326   0.2357     O
O       0.9786   0.9174   0.5143     O
O       0.9857   0.0214   0.5826     O
O       0.9857   0.0826   0.0214     O
O       0.9857   0.1674   0.2286     O
O       0.9857   0.2286   0.6674     O
O       0.9857   0.5214   0.0826     O
O       0.9857   0.5826   0.5214     O
O       0.9857   0.6674   0.7286     O
O       0.9857   0.7286   0.1674     O
C       0.9902   0.0022   0.6263     C
C       0.9902   0.1237   0.2478     C
C       0.9902   0.1263   0.0022     C
C       0.9902   0.2478   0.6237     C
C       0.9902   0.5022   0.1263     C
C       0.9902   0.6237   0.7478     C
C       0.9902   0.6263   0.5022     C
C       0.9902   0.7478   0.1237     C
O       0.9911   0.0297   0.6651     O
O       0.9911   0.0849   0.2203     O
O       0.9911   0.1651   0.0297     O
O       0.9911   0.2203   0.5849     O
O       0.9911   0.5297   0.1651     O
O       0.9911   0.5849   0.7203     O
O       0.9911   0.6651   0.5297     O
O       0.9911   0.7203   0.0849     O
C       0.9965   0.1172   0.3046     C
C       0.9965   0.1328   0.9454     C
C       0.9965   0.3046   0.6172     C
C       0.9965   0.4454   0.1328     C
C       0.9965   0.6172   0.8046     C
C       0.9965   0.6328   0.4454     C
C       0.9965   0.8046   0.1172     C
C       0.9965   0.9454   0.6328     C
C       0.9978   0.0098   0.8737     C
C       0.9978   0.2402   0.3763     C
C       0.9978   0.3737   0.0098     C
C       0.9978   0.3763   0.7402     C
C       0.9978   0.5098   0.3737     C
C       0.9978   0.7402   0.8763     C
C       0.9978   0.8737   0.5098     C
C       0.9978   0.8763   0.2402     C
