data_I
_chemical_name_common  '/home/zhangsd/repos/MofS-CGCNN/ML/data/TSD/clean_cifs/KONFEA_clean'
_cell_length_a  7.04040
_cell_length_b 13.00150
_cell_length_c 13.73380
_cell_angle_alpha 90.00000
_cell_angle_beta  100.88100
_cell_angle_gamma 90.00000
_space_group_name_H-M_alt      'P 1'


loop_
_space_group_symop_operation_xyz
  'x, y, z' 

loop_
_atom_site_label
_atom_site_fract_x
_atom_site_fract_y
_atom_site_fract_z
_atom_site_type_symbol
O       0.0004   0.3825   0.9924     O
N       0.0258   0.0498   0.1507     N
C       0.0434   0.2879   0.9968     C
C        0.052   0.5096   0.7752     C
O       0.0729   0.7171   0.0046     O
O       0.0784   0.4091   0.5731     O
C        0.079   0.9311   0.4076     C
C       0.0906   0.9861    0.311     C
O       0.1143    0.059   0.9088     O
La     0.20765  0.53844  0.04226    La
O       0.2423   0.9124   0.4607     O
C       0.2558    0.265   0.0075     C
S       0.2581  0.05736  0.18774     S
O       0.2665    0.472   0.2166     O
C       0.2672   0.4971   0.7993     C
N        0.269     0.01   0.2987     N
C       0.2904   0.0796   0.9278     C
N       0.3151   0.6691   0.1989     N
C       0.3214    0.517   0.2967     C
O        0.327   0.4794   0.3803     O
O       0.3417   0.4954   0.8884     O
C       0.3578   0.1791   0.9817     C
O       0.3589   0.4933   0.7305     O
S       0.3679  0.79124  0.20186     S
N       0.3716   0.3401    0.044     N
C       0.3724   0.6304   0.2886     C
O       0.3825   0.2829   0.4941     O
S       0.4047  0.80682  0.95077     S
O        0.413   0.1127   0.4933     O
La     0.41322  0.46409  0.55926    La
O       0.4211   0.0253   0.9028     O
C       0.4413   0.1987   0.5342     C
N        0.452    0.692   0.9967     N
C       0.4593   0.7051   0.3582     C
N       0.4635   0.7979   0.3166     N
N       0.5365   0.2979   0.6834     N
C       0.5407   0.2051   0.6418     C
N        0.548    0.192   0.0033     N
C       0.5587   0.6987   0.4658     C
O       0.5789   0.5253   0.0972     O
La     0.58678  0.96409  0.44074    La
O        0.587   0.6127   0.5067     O
S       0.5953  0.30682  0.04923     S
O       0.6175   0.7829   0.5059     O
C       0.6276   0.1304   0.7114     C
N       0.6284   0.8401    0.956     N
S       0.6321  0.29124  0.79814     S
O       0.6411   0.9933   0.2695     O
C       0.6422   0.6791   0.0183     C
O       0.6583   0.9954   0.1116     O
O        0.673   0.9794   0.6197     O
C       0.6786    0.017   0.7033     C
N       0.6849   0.1691   0.8011     N
C       0.7096   0.5796   0.0722     C
N        0.731     0.51   0.7013     N
C       0.7328   0.9971   0.2007     C
O       0.7335    0.972   0.7834     O
S       0.7419  0.55736  0.81226     S
C       0.7442    0.765   0.9925     C
O       0.7577   0.4124   0.5393     O
La     0.79235  0.03844  0.95774    La
O       0.8857    0.559   0.0912     O
C       0.9094   0.4861    0.689     C
C        0.921   0.4311   0.5924     C
O       0.9216   0.9091   0.4269     O
O       0.9271   0.2171   0.9954     O
C        0.948   0.0096   0.2248     C
C       0.9566   0.7879   0.0032     C
N       0.9742   0.5498   0.8493     N
O       0.9996   0.8825   0.0076     O
