data_I
_chemical_name_common  '/home/zhangsd/repos/MofS-CGCNN/ML/data/TSD/clean_cifs/KONSAJ_clean'
_cell_length_a 25.02750
_cell_length_b 25.02750
_cell_length_c 25.02750
_cell_angle_alpha 109.47100
_cell_angle_beta  109.47100
_cell_angle_gamma 109.47100
_space_group_name_H-M_alt      'P 1'


loop_
_space_group_symop_operation_xyz
  'x, y, z' 

loop_
_atom_site_label
_atom_site_fract_x
_atom_site_fract_y
_atom_site_fract_z
_atom_site_type_symbol
Fe         0.0  0.17554  0.51914    Fe
N          0.0  0.30189  0.62671     N
N          0.0  0.31682  0.54018     N
C          0.0   0.3247   0.6897     C
C          0.0   0.3602    0.512     C
C          0.0     0.39    0.708     C
C          0.0   0.4189   0.5575     C
C          0.0    0.512   0.3602     C
Fe         0.0  0.51914  0.17554    Fe
N          0.0  0.54018  0.31682     N
C          0.0   0.5575   0.4189     C
N          0.0  0.62671  0.30189     N
C          0.0   0.6897   0.3247     C
C          0.0    0.708     0.39     C
H       0.0538   0.4859   0.9103     H
H       0.0538   0.9103   0.4859     H
H       0.0575   0.4083   0.4838     H
H       0.0575   0.4838   0.4083     H
H       0.0593   0.3489   0.7824     H
H       0.0593   0.7824   0.3489     H
C       0.0599   0.3838   0.5061     C
C       0.0599   0.5061   0.3838     C
C       0.0606   0.3363   0.7423     C
C       0.0606   0.7423   0.3363     C
P      0.06156  0.33415  0.61177     P
P      0.06156  0.61177  0.33415     P
H       0.0626   0.3469   0.4817     H
H       0.0626   0.4817   0.3469     H
H       0.0632    0.297   0.7298     H
H       0.0632   0.7298    0.297     H
H        0.072   0.3987   0.9167     H
H        0.072   0.9167   0.3987     H
C       0.0755   0.2669    0.582     C
C       0.0755    0.582   0.2669     C
H       0.0755   0.5917   0.6492     H
H       0.0755   0.6492   0.5917     H
H       0.0772   0.2582   0.4962     H
H       0.0772   0.4962   0.2582     H
C       0.0782   0.2413   0.5243     C
C       0.0782   0.5243   0.2413     C
H       0.0791   0.2303   0.6492     H
H       0.0791   0.6492   0.2303     H
C       0.0798   0.2253   0.6109     C
C       0.0798   0.6109   0.2253     C
C       0.0824   0.1832   0.5168     C
C       0.0824   0.5168   0.1832     C
H       0.0833   0.1553    0.482     H
H       0.0833    0.482   0.1553     H
C       0.0851   0.1764   0.5687     C
C       0.0851   0.5687   0.1764     C
H       0.0897   0.1435   0.5756     H
H       0.0897   0.5756   0.1435     H
C       0.0913   0.4836   0.9149     C
C       0.0913   0.9149   0.4836     C
H        0.098   0.4113   0.5489     H
H        0.098   0.5489   0.4113     H
H       0.0984   0.3708   0.7488     H
H       0.0984   0.7488   0.3708     H
C       0.1008   0.4344   0.9176     C
C       0.1008   0.9176   0.4344     C
C       0.1223   0.6162   0.6761     C
C       0.1223   0.6761   0.6162     C
H       0.1348   0.6531   0.7157     H
H       0.1348   0.7157   0.6531     H
H       0.1376   0.5887   0.6867     H
H       0.1376   0.6867   0.5887     H
C       0.1386   0.5811   0.5811     C
H       0.1435   0.0897   0.5756     H
H       0.1435   0.5756   0.0897     H
C       0.1455   0.5311   0.9202     C
C       0.1455   0.9202   0.5311     C
H       0.1512   0.5701   0.9209     H
H       0.1512   0.9209   0.5701     H
C       0.1518   0.6398   0.6398     C
Cu     0.15477    0.425  0.68159    Cu
Cu     0.15477  0.68159    0.425    Cu
H       0.1553   0.0833    0.482     H
H       0.1553    0.482   0.0833     H
C       0.1631   0.4461   0.9218     C
C       0.1631   0.9218   0.4461     C
Br     0.17506  0.53046  0.76402    Br
Br     0.17506  0.76402  0.53046    Br
Fe     0.17554     -0.0  0.51914    Fe
Fe     0.17554  0.51914     -0.0    Fe
C       0.1764   0.0851   0.5687     C
C       0.1764   0.5687   0.0851     C
H        0.181    0.419   0.9228     H
H        0.181   0.9228    0.419     H
C       0.1832   0.0824   0.5168     C
C       0.1832   0.5168   0.0824     C
C       0.1914   0.5065   0.9245     C
C       0.1914   0.9245   0.5065     C
H       0.2176   0.2769   0.5665     H
H       0.2176   0.5665   0.2769     H
N      0.22336  0.68318  0.68318     N
C       0.2253   0.0798   0.6109     C
C       0.2253   0.6109   0.0798     C
H       0.2303   0.0791   0.6492     H
H       0.2303   0.6492   0.0791     H
Br     0.23356  0.46954   0.6446    Br
Br     0.23356   0.6446  0.46954    Br
H       0.2338   0.6666   0.9368     H
H       0.2338   0.9368   0.6666     H
Br     0.23598  0.41104  0.76644    Br
Br     0.23598  0.76644  0.41104    Br
H        0.238   0.7418    0.819     H
H        0.238    0.819   0.7418     H
C       0.2413   0.0782   0.5243     C
C       0.2413   0.5243   0.0782     C
H       0.2512   0.3496    0.622     H
H       0.2512    0.622   0.3496     H
Cu     0.25659    0.575  0.72977    Cu
Cu     0.25659  0.72977    0.575    Cu
C       0.2577   0.3183    0.594     C
C       0.2577    0.594   0.3183     C
H       0.2582   0.0772   0.4962     H
H       0.2582   0.4962   0.0772     H
C       0.2669   0.0755    0.582     C
C       0.2669    0.582   0.0755     C
H       0.2702   0.3334   0.5672     H
H       0.2702   0.5672   0.3334     H
Cu     0.27023  0.52682  0.84523    Cu
Cu     0.27023  0.84523  0.52682    Cu
H       0.2724   0.6504   0.9016     H
H       0.2724   0.9016   0.6504     H
P      0.27259  0.55021  0.93844     P
P      0.27259  0.93844  0.55021     P
C       0.2757   0.6817   0.9394     C
C       0.2757   0.9394   0.6817     C
H       0.2769   0.2176   0.5665     H
H       0.2769   0.5665   0.2176     H
P      0.27762  0.66585  0.72741     P
P      0.27762  0.72741  0.66585     P
C        0.283   0.7587   0.8369     C
C        0.283   0.8369   0.7587     C
H       0.2843   0.4191   0.9374     H
H       0.2843   0.9374   0.4191     H
H       0.2896   0.7231   0.9407     H
H       0.2896   0.9407   0.7231     H
C        0.292    0.292    0.682     C
C        0.292    0.682    0.292     C
H        0.297   0.0632   0.7298     H
H        0.297   0.7298   0.0632     H
N      0.30189     -0.0  0.62671     N
N      0.30189  0.62671      0.0     N
C       0.3103   0.3103    0.635     C
C       0.3103    0.635   0.3103     C
H       0.3133   0.4509    0.902     H
H       0.3133    0.902   0.4509     H
C       0.3151   0.7331   0.8086     C
C       0.3151   0.8086   0.7331     C
N      0.31682     -0.0  0.54018     N
N      0.31682  0.54018     -0.0     N
C        0.318     0.61     0.61     C
C       0.3183   0.2577    0.594     C
C       0.3183    0.594   0.2577     C
Cu     0.31841  0.47318  0.74341    Cu
Cu     0.31841  0.74341  0.47318    Cu
C       0.3239   0.4462   0.9401     C
C       0.3239   0.9401   0.4462     C
C       0.3247     -0.0   0.6897     C
C       0.3247   0.6897     -0.0     C
N      0.32482  0.69811  0.69811     N
H       0.3267   0.8447    0.928     H
H       0.3267    0.928   0.8447     H
H       0.3334   0.2702   0.5672     H
H       0.3334   0.5672   0.2702     H
C       0.3336   0.8168   0.8992     C
C       0.3336   0.8992   0.8168     C
P      0.33415  0.06156  0.61177     P
P      0.33415  0.61177  0.06156     P
C       0.3363   0.0606   0.7423     C
C       0.3363   0.7423   0.0606     C
Fe      0.3436  0.82446  0.82446    Fe
H       0.3469   0.0626   0.4817     H
H       0.3469   0.4817   0.0626     H
H       0.3489   0.0593   0.7824     H
H       0.3489   0.7824   0.0593     H
H       0.3496   0.2512    0.622     H
H       0.3496    0.622   0.2512     H
H       0.3508   0.4263   0.9425     H
H       0.3508   0.4299   0.5811     H
H       0.3508   0.5811   0.4299     H
H       0.3508   0.9425   0.4263     H
Br      0.3554  0.58896  0.82494    Br
Br      0.3554  0.82494  0.58896    Br
C       0.3602      0.0    0.512     C
C       0.3602    0.512     -0.0     C
C        0.365   0.6753   0.6753     C
H       0.3708   0.0984   0.7488     H
H       0.3708   0.7488   0.0984     H
N      0.37329  0.37329  0.67518     N
N      0.37329  0.67518  0.37329     N
H        0.378   0.6292   0.7276     H
H        0.378   0.7276   0.6292     H
C       0.3838   0.0599   0.5061     C
C       0.3838   0.5061   0.0599     C
C       0.3856   0.7747   0.8545     C
C       0.3856   0.8545   0.7747     C
P      0.38823  0.44979  0.72238     P
P      0.38823  0.72238  0.44979     P
C       0.3891   0.4689   0.6144     C
C       0.3891   0.6144   0.4689     C
C         0.39     -0.0    0.708     C
C         0.39    0.708      0.0     C
C       0.3923   0.8236   0.9087     C
C       0.3923   0.9087   0.8236     C
H       0.3987    0.072   0.9167     H
H       0.3987   0.9167    0.072     H
C        0.406   0.6637   0.7243     C
C        0.406   0.7243   0.6637     C
H       0.4083   0.0575   0.4838     H
H       0.4083   0.4838   0.0575     H
Br     0.41104  0.23598  0.76644    Br
Br     0.41104  0.76644  0.23598    Br
H       0.4113    0.098   0.5489     H
H       0.4113   0.5489    0.098     H
C        0.418   0.4935   0.6849     C
C        0.418   0.6849   0.4935     C
C       0.4189     -0.0   0.5575     C
C       0.4189   0.5575     -0.0     C
H       0.4189   0.7697   0.8488     H
H       0.4189   0.8488   0.7697     H
H        0.419    0.181   0.9228     H
H        0.419   0.9228    0.181     H
H       0.4191   0.2843   0.9374     H
H       0.4191   0.9374   0.2843     H
H       0.4244   0.5141   0.5679     H
H       0.4244   0.5679   0.5141     H
Cu       0.425  0.15477  0.68159    Cu
Cu       0.425  0.68159  0.15477    Cu
H       0.4263   0.3508   0.9425     H
H       0.4263   0.9425   0.3508     H
H       0.4299   0.3508   0.5811     H
H       0.4299   0.5811   0.3508     H
C       0.4313   0.5164   0.6077     C
C       0.4313   0.6077   0.5164     C
H       0.4321   0.8565   0.9462     H
H       0.4321   0.9462   0.8565     H
H       0.4328    0.703   0.7662     H
H       0.4328   0.7662    0.703     H
H       0.4335   0.6511   0.7104     H
H       0.4335   0.7104   0.6511     H
C       0.4344   0.1008   0.9176     C
C       0.4344   0.9176   0.1008     C
C       0.4425   0.4425   0.8614     C
C       0.4425   0.8614   0.4425     C
C       0.4461   0.1631   0.9218     C
C       0.4461   0.9218   0.1631     C
C       0.4462   0.3239   0.9401     C
C       0.4462   0.9401   0.3239     C
P      0.44979  0.38823  0.72238     P
P      0.44979  0.72238  0.38823     P
H       0.4509   0.3133    0.902     H
H       0.4509    0.902   0.3133     H
H       0.4511   0.5491   0.8624     H
H       0.4511   0.8624   0.5491     H
N      0.45982  0.45982  0.77664     N
N      0.45982  0.77664  0.45982     N
C       0.4689   0.3891   0.6144     C
C       0.4689   0.6144   0.3891     C
Br     0.46954  0.23356   0.6446    Br
Br     0.46954   0.6446  0.23356    Br
Cu     0.47318  0.31841  0.74341    Cu
Cu     0.47318  0.74341  0.31841    Cu
C       0.4757   0.5539    0.717     C
C       0.4757    0.717   0.5539     C
Fe     0.48086  0.48086   0.6564    Fe
Fe     0.48086   0.6564  0.48086    Fe
H       0.4817   0.0626   0.3469     H
H       0.4817   0.3469   0.0626     H
H        0.482   0.0833   0.1553     H
H        0.482   0.1553   0.0833     H
C       0.4832   0.5656   0.6664     C
C       0.4832   0.6664   0.5656     C
C       0.4836   0.0913   0.9149     C
C       0.4836   0.9149   0.0913     C
H       0.4838   0.0575   0.4083     H
H       0.4838   0.4083   0.0575     H
H       0.4859   0.0538   0.9103     H
H       0.4859   0.9103   0.0538     H
C        0.488    0.488   0.8482     C
C        0.488   0.8482    0.488     C
C       0.4935    0.418   0.6849     C
C       0.4935   0.6849    0.418     C
C       0.4939   0.5538   0.8777     C
C       0.4939   0.8777   0.5538     C
H       0.4962   0.0772   0.2582     H
H       0.4962   0.2582   0.0772     H
H       0.5038    0.581    0.762     H
H       0.5038    0.762    0.581     H
C       0.5061   0.0599   0.3838     C
C       0.5061   0.3838   0.0599     C
C       0.5065   0.1914   0.9245     C
C       0.5065   0.9245   0.1914     C
C        0.512     -0.0   0.3602     C
C        0.512   0.3602     -0.0     C
H       0.5141   0.4244   0.5679     H
H       0.5141   0.5679   0.4244     H
H       0.5162   0.5737   0.9245     H
H       0.5162   0.9245   0.5737     H
C       0.5164   0.4313   0.6077     C
C       0.5164   0.6077   0.4313     C
C       0.5168   0.0824   0.1832     C
C       0.5168   0.1832   0.0824     C
H        0.518   0.6013   0.6733     H
H        0.518   0.6733   0.6013     H
H       0.5183   0.5809   0.8652     H
H       0.5183   0.8652   0.5809     H
Fe     0.51914     -0.0  0.17554    Fe
Fe     0.51914  0.17554     -0.0    Fe
C       0.5243   0.0782   0.2413     C
C       0.5243   0.2413   0.0782     C
Cu     0.52682  0.27023  0.84523    Cu
Cu     0.52682  0.84523  0.27023    Cu
Br     0.53046  0.17506  0.76402    Br
Br     0.53046  0.76402  0.17506    Br
C       0.5311   0.1455   0.9202     C
C       0.5311   0.9202   0.1455     C
N      0.54018     -0.0  0.31682     N
N      0.54018  0.31682     -0.0     N
H       0.5489    0.098   0.4113     H
H       0.5489   0.4113    0.098     H
H       0.5491   0.4511   0.8624     H
H       0.5491   0.8624   0.4511     H
P      0.55021  0.27259  0.93844     P
P      0.55021  0.93844  0.27259     P
C       0.5538   0.4939   0.8777     C
C       0.5538   0.8777   0.4939     C
C       0.5539   0.4757    0.717     C
C       0.5539    0.717   0.4757     C
C       0.5575     -0.0   0.4189     C
C       0.5575   0.4189     -0.0     C
C       0.5656   0.4832   0.6664     C
C       0.5656   0.6664   0.4832     C
H       0.5665   0.2176   0.2769     H
H       0.5665   0.2769   0.2176     H
H       0.5672   0.2702   0.3334     H
H       0.5672   0.3334   0.2702     H
H       0.5679   0.4244   0.5141     H
H       0.5679   0.5141   0.4244     H
C       0.5687   0.0851   0.1764     C
C       0.5687   0.1764   0.0851     C
H       0.5701   0.1512   0.9209     H
H       0.5701   0.9209   0.1512     H
H       0.5737   0.5162   0.9245     H
H       0.5737   0.9245   0.5162     H
Cu       0.575  0.25659  0.72977    Cu
Cu       0.575  0.72977  0.25659    Cu
H       0.5756   0.0897   0.1435     H
H       0.5756   0.1435   0.0897     H
H       0.5809   0.5183   0.8652     H
H       0.5809   0.8652   0.5183     H
H        0.581   0.5038    0.762     H
H        0.581    0.762   0.5038     H
C       0.5811   0.1386   0.5811     C
H       0.5811   0.3508   0.4299     H
H       0.5811   0.4299   0.3508     H
C       0.5811   0.5811   0.1386     C
C        0.582   0.0755   0.2669     C
C        0.582   0.2669   0.0755     C
H       0.5887   0.1376   0.6867     H
H       0.5887   0.6867   0.1376     H
Br     0.58896   0.3554  0.82494    Br
Br     0.58896  0.82494   0.3554    Br
H       0.5917   0.0755   0.6492     H
H       0.5917   0.6492   0.0755     H
C        0.594   0.2577   0.3183     C
C        0.594   0.3183   0.2577     C
H       0.6013    0.518   0.6733     H
H       0.6013   0.6733    0.518     H
C       0.6077   0.4313   0.5164     C
C       0.6077   0.5164   0.4313     C
C         0.61    0.318     0.61     C
C         0.61     0.61    0.318     C
C       0.6109   0.0798   0.2253     C
C       0.6109   0.2253   0.0798     C
P      0.61177  0.06156  0.33415     P
P      0.61177  0.33415  0.06156     P
C       0.6144   0.3891   0.4689     C
C       0.6144   0.4689   0.3891     C
C       0.6162   0.1223   0.6761     C
C       0.6162   0.6761   0.1223     C
H        0.622   0.2512   0.3496     H
H        0.622   0.3496   0.2512     H
N      0.62671     -0.0  0.30189     N
N      0.62671  0.30189     -0.0     N
H       0.6292    0.378   0.7276     H
H       0.6292   0.7276    0.378     H
C        0.635   0.3103   0.3103     C
C       0.6398   0.1518   0.6398     C
C       0.6398   0.6398   0.1518     C
Br      0.6446  0.23356  0.46954    Br
Br      0.6446  0.46954  0.23356    Br
H       0.6492   0.0755   0.5917     H
H       0.6492   0.0791   0.2303     H
H       0.6492   0.2303   0.0791     H
H       0.6492   0.5917   0.0755     H
H       0.6504   0.2724   0.9016     H
H       0.6504   0.9016   0.2724     H
H       0.6511   0.4335   0.7104     H
H       0.6511   0.7104   0.4335     H
H       0.6531   0.1348   0.7157     H
H       0.6531   0.7157   0.1348     H
Fe      0.6564  0.48086  0.48086    Fe
C       0.6637    0.406   0.7243     C
C       0.6637   0.7243    0.406     C
P      0.66585  0.27762  0.72741     P
P      0.66585  0.72741  0.27762     P
C       0.6664   0.4832   0.5656     C
C       0.6664   0.5656   0.4832     C
H       0.6666   0.2338   0.9368     H
H       0.6666   0.9368   0.2338     H
H       0.6733    0.518   0.6013     H
H       0.6733   0.6013    0.518     H
N      0.67518  0.37329  0.37329     N
C       0.6753    0.365   0.6753     C
C       0.6753   0.6753    0.365     C
C       0.6761   0.1223   0.6162     C
C       0.6761   0.6162   0.1223     C
Cu     0.68159  0.15477    0.425    Cu
Cu     0.68159    0.425  0.15477    Cu
C       0.6817   0.2757   0.9394     C
C       0.6817   0.9394   0.2757     C
C        0.682    0.292    0.292     C
N      0.68318  0.22336  0.68318     N
N      0.68318  0.68318  0.22336     N
C       0.6849    0.418   0.4935     C
C       0.6849   0.4935    0.418     C
H       0.6867   0.1376   0.5887     H
H       0.6867   0.5887   0.1376     H
C       0.6897     -0.0   0.3247     C
C       0.6897   0.3247     -0.0     C
N      0.69811  0.32482  0.69811     N
N      0.69811  0.69811  0.32482     N
H        0.703   0.4328   0.7662     H
H        0.703   0.7662   0.4328     H
C        0.708     -0.0     0.39     C
C        0.708     0.39     -0.0     C
H       0.7104   0.4335   0.6511     H
H       0.7104   0.6511   0.4335     H
H       0.7157   0.1348   0.6531     H
H       0.7157   0.6531   0.1348     H
C        0.717   0.4757   0.5539     C
C        0.717   0.5539   0.4757     C
P      0.72238  0.38823  0.44979     P
P      0.72238  0.44979  0.38823     P
H       0.7231   0.2896   0.9407     H
H       0.7231   0.9407   0.2896     H
C       0.7243    0.406   0.6637     C
C       0.7243   0.6637    0.406     C
P      0.72741  0.27762  0.66585     P
P      0.72741  0.66585  0.27762     P
H       0.7276    0.378   0.6292     H
H       0.7276   0.6292    0.378     H
Cu     0.72977  0.25659    0.575    Cu
Cu     0.72977    0.575  0.25659    Cu
H       0.7298   0.0632    0.297     H
H       0.7298    0.297   0.0632     H
C       0.7331   0.3151   0.8086     C
C       0.7331   0.8086   0.3151     C
H       0.7418    0.238    0.819     H
H       0.7418    0.819    0.238     H
C       0.7423   0.0606   0.3363     C
C       0.7423   0.3363   0.0606     C
Cu     0.74341  0.31841  0.47318    Cu
Cu     0.74341  0.47318  0.31841    Cu
H       0.7488   0.0984   0.3708     H
H       0.7488   0.3708   0.0984     H
C       0.7587    0.283   0.8369     C
C       0.7587   0.8369    0.283     C
H        0.762   0.5038    0.581     H
H        0.762    0.581   0.5038     H
Br     0.76402  0.17506  0.53046    Br
Br     0.76402  0.53046  0.17506    Br
H       0.7662   0.4328    0.703     H
H       0.7662    0.703   0.4328     H
Br     0.76644  0.23598  0.41104    Br
Br     0.76644  0.41104  0.23598    Br
H       0.7697   0.4189   0.8488     H
H       0.7697   0.8488   0.4189     H
C       0.7747   0.3856   0.8545     C
C       0.7747   0.8545   0.3856     C
N      0.77664  0.45982  0.45982     N
H       0.7824   0.0593   0.3489     H
H       0.7824   0.3489   0.0593     H
C       0.8086   0.3151   0.7331     C
C       0.8086   0.7331   0.3151     C
C       0.8168   0.3336   0.8992     C
C       0.8168   0.8992   0.3336     C
H        0.819    0.238   0.7418     H
H        0.819   0.7418    0.238     H
C       0.8236   0.3923   0.9087     C
C       0.8236   0.9087   0.3923     C
Fe     0.82446   0.3436  0.82446    Fe
Fe     0.82446  0.82446   0.3436    Fe
Br     0.82494   0.3554  0.58896    Br
Br     0.82494  0.58896   0.3554    Br
C       0.8369    0.283   0.7587     C
C       0.8369   0.7587    0.283     C
H       0.8447   0.3267    0.928     H
H       0.8447    0.928   0.3267     H
Cu     0.84523  0.27023  0.52682    Cu
Cu     0.84523  0.52682  0.27023    Cu
C       0.8482    0.488    0.488     C
H       0.8488   0.4189   0.7697     H
H       0.8488   0.7697   0.4189     H
C       0.8545   0.3856   0.7747     C
C       0.8545   0.7747   0.3856     C
H       0.8565   0.4321   0.9462     H
H       0.8565   0.9462   0.4321     H
C       0.8614   0.4425   0.4425     C
H       0.8624   0.4511   0.5491     H
H       0.8624   0.5491   0.4511     H
H       0.8652   0.5183   0.5809     H
H       0.8652   0.5809   0.5183     H
C       0.8777   0.4939   0.5538     C
C       0.8777   0.5538   0.4939     C
C       0.8992   0.3336   0.8168     C
C       0.8992   0.8168   0.3336     C
H       0.9016   0.2724   0.6504     H
H       0.9016   0.6504   0.2724     H
H        0.902   0.3133   0.4509     H
H        0.902   0.4509   0.3133     H
C       0.9087   0.3923   0.8236     C
C       0.9087   0.8236   0.3923     C
H       0.9103   0.0538   0.4859     H
H       0.9103   0.4859   0.0538     H
C       0.9149   0.0913   0.4836     C
C       0.9149   0.4836   0.0913     C
H       0.9167    0.072   0.3987     H
H       0.9167   0.3987    0.072     H
C       0.9176   0.1008   0.4344     C
C       0.9176   0.4344   0.1008     C
C       0.9202   0.1455   0.5311     C
C       0.9202   0.5311   0.1455     C
H       0.9209   0.1512   0.5701     H
H       0.9209   0.5701   0.1512     H
C       0.9218   0.1631   0.4461     C
C       0.9218   0.4461   0.1631     C
H       0.9228    0.181    0.419     H
H       0.9228    0.419    0.181     H
C       0.9245   0.1914   0.5065     C
C       0.9245   0.5065   0.1914     C
H       0.9245   0.5162   0.5737     H
H       0.9245   0.5737   0.5162     H
H        0.928   0.3267   0.8447     H
H        0.928   0.8447   0.3267     H
H       0.9368   0.2338   0.6666     H
H       0.9368   0.6666   0.2338     H
H       0.9374   0.2843   0.4191     H
H       0.9374   0.4191   0.2843     H
P      0.93844  0.27259  0.55021     P
P      0.93844  0.55021  0.27259     P
C       0.9394   0.2757   0.6817     C
C       0.9394   0.6817   0.2757     C
C       0.9401   0.3239   0.4462     C
C       0.9401   0.4462   0.3239     C
H       0.9407   0.2896   0.7231     H
H       0.9407   0.7231   0.2896     H
H       0.9425   0.3508   0.4263     H
H       0.9425   0.4263   0.3508     H
H       0.9462   0.4321   0.8565     H
H       0.9462   0.8565   0.4321     H
