data_I
_chemical_name_common  '/home/zhangsd/repos/MofS-CGCNN/ML/data/TSD/clean_cifs/KOSJAF_clean'
_cell_length_a  6.78100
_cell_length_b 15.09010
_cell_length_c 15.09010
_cell_angle_alpha 62.20270
_cell_angle_beta  81.38530
_cell_angle_gamma 98.61470
_space_group_name_H-M_alt      'P 1'


loop_
_space_group_symop_operation_xyz
  'x, y, z' 

loop_
_atom_site_label
_atom_site_fract_x
_atom_site_fract_y
_atom_site_fract_z
_atom_site_type_symbol
C       0.0383   0.0953   0.4664     C
C       0.0383   0.5336   0.9047     C
O       0.0613   0.5013   0.3265     O
O       0.0613   0.6735   0.4987     O
C      0.08525      0.0  0.50325     C
C      0.08525  0.49675     -0.0     C
H       0.0991  0.57615  0.42385     H
Co      0.1115   0.2944   0.2829    Co
Co      0.1115   0.7171   0.7056    Co
O       0.1779    0.181   0.4045     O
O       0.1779   0.5955    0.819     O
C       0.2039    0.459   0.3553     C
C       0.2039   0.6447    0.541     C
C       0.2465  0.55725  0.44275     C
H       0.2518      0.0   0.4836     H
H       0.2518   0.5164     -0.0     H
O       0.2606   0.3886   0.3377     O
O       0.2606   0.6623   0.6114     O
C       0.3148   0.4932   0.4129     C
C       0.3148   0.5871   0.5068     C
O       0.3878   0.3265   0.1722     O
O       0.3878   0.8278   0.6735     O
Co      0.3944   0.2829   0.4227    Co
Co      0.3944   0.5773   0.7171    Co
C       0.5047   0.4664   0.4383     C
C       0.5047   0.5617   0.5336     C
H      0.52295      0.0  0.57615     H
H      0.52295  0.42385     -0.0     H
C       0.5592   0.3553   0.1857     C
C       0.5592   0.8143   0.6447     C
O         0.56   0.1722   0.5013     O
O         0.56   0.4987   0.8278     O
O       0.5824   0.4045   0.4145     O
O       0.5824   0.5855   0.5955     O
C       0.5885  0.50325  0.49675     C
O       0.5983   0.3377   0.2737     O
O       0.5983   0.7263   0.6623     O
C      0.68925      0.0  0.55725     C
C      0.68925  0.44275     -0.0     C
C       0.7277   0.4129   0.0939     C
C       0.7277   0.9061   0.5871     C
H       0.7354   0.4836   0.5164     H
C       0.7449   0.1857    0.459     C
C       0.7449    0.541   0.8143     C
Co      0.8171   0.4227   0.2944    Co
Co      0.8171   0.7056   0.5773    Co
C       0.8216   0.0939   0.4932     C
C       0.8216   0.5068   0.9061     C
O        0.872   0.2737   0.3886     O
O        0.872   0.6114   0.7263     O
C        0.943   0.4383   0.0953     C
C        0.943   0.9047   0.5617     C
O       0.9969   0.4145    0.181     O
O       0.9969    0.819   0.5855     O
