data_I
_chemical_name_common  '/home/zhangsd/repos/MofS-CGCNN/ML/data/TSD/clean_cifs/KOSJEJ_clean'
_cell_length_a  6.78800
_cell_length_b 15.09610
_cell_length_c 15.09610
_cell_angle_alpha 62.20550
_cell_angle_beta  81.37970
_cell_angle_gamma 98.62030
_space_group_name_H-M_alt      'P 1'


loop_
_space_group_symop_operation_xyz
  'x, y, z' 

loop_
_atom_site_label
_atom_site_fract_x
_atom_site_fract_y
_atom_site_fract_z
_atom_site_type_symbol
O       0.0017   0.4173   0.1823     O
O       0.0017   0.8177   0.5827     O
C       0.0379   0.0937   0.4681     C
C       0.0379   0.5319   0.9063     C
O       0.0518    0.495   0.3259     O
O       0.0518   0.6741    0.505     O
C       0.0801      0.0   0.5004     C
C       0.0801   0.4996     -0.0     C
Co      0.1019   0.2992   0.2835    Co
Co      0.1019   0.7165   0.7008    Co
H       0.1069  0.57285  0.42715     H
O        0.184   0.1823   0.4004     O
O        0.184   0.5996   0.8177     O
C       0.2064    0.457   0.3581     C
C       0.2064   0.6419    0.543     C
H      0.22915      0.0  0.48855     H
H      0.22915  0.51145      0.0     H
C       0.2364  0.55875  0.44125     C
O       0.2632   0.3853   0.3386     O
O       0.2632   0.6614   0.6147     O
C       0.3183   0.4904   0.4146     C
C       0.3183   0.5854   0.5096     C
O       0.3777   0.3259   0.1791     O
O       0.3777   0.8209   0.6741     O
Co      0.3854   0.2835   0.4173    Co
Co      0.3854   0.5827   0.7165    Co
C        0.506   0.4681   0.4382     C
C        0.506   0.5618   0.5319     C
H      0.53405     -0.0  0.57285     H
H      0.53405  0.42715     -0.0     H
O       0.5568   0.1791    0.495     O
O       0.5568    0.505   0.8209     O
C       0.5645   0.3581   0.1849     C
C       0.5645   0.8151   0.6419     C
C       0.5805   0.5004   0.4996     C
O       0.5844   0.4004   0.4173     O
O       0.5844   0.5827   0.5996     O
O       0.6018   0.3386   0.2761     O
O       0.6018   0.7239   0.6614     O
C      0.67765      0.0  0.55875     C
C      0.67765  0.44125     -0.0     C
H       0.7177  0.48855  0.51145     H
C       0.7329   0.4146    0.095     C
C       0.7329    0.905   0.5854     C
C       0.7494   0.1849    0.457     C
C       0.7494    0.543   0.8151     C
Co      0.8027   0.4173   0.2992    Co
Co      0.8027   0.7008   0.5827    Co
C       0.8279    0.095   0.4904     C
C       0.8279   0.5096    0.905     C
O       0.8779   0.2761   0.3853     O
O       0.8779   0.6147   0.7239     O
C       0.9442   0.4382   0.0937     C
C       0.9442   0.9063   0.5618     C
