data_I
_chemical_name_common  '/home/zhangsd/repos/MofS-CGCNN/ML/data/TSD/clean_cifs/KOSKEK_clean'
_cell_length_a  6.81160
_cell_length_b 15.12040
_cell_length_c 15.12040
_cell_angle_alpha 62.21360
_cell_angle_beta  81.36360
_cell_angle_gamma 98.63640
_space_group_name_H-M_alt      'P 1'


loop_
_space_group_symop_operation_xyz
  'x, y, z' 

loop_
_atom_site_label
_atom_site_fract_x
_atom_site_fract_y
_atom_site_fract_z
_atom_site_type_symbol
C         0.04   0.0939   0.4641     C
C         0.04   0.5359   0.9061     C
O       0.0528    0.489   0.3319     O
O       0.0528   0.6681    0.511     O
C      0.08155      0.0  0.49935     C
C      0.08155  0.50065     -0.0     C
Co      0.1088    0.302   0.2836    Co
Co      0.1088   0.7164    0.698    Co
H       0.1139  0.57735  0.42265     H
O       0.1761   0.1805    0.398     O
O       0.1761    0.602   0.8195     O
C       0.2003   0.4518   0.3613     C
C       0.2003   0.6387   0.5482     C
C         0.24   0.5565   0.4435     C
O       0.2544   0.3832   0.3431     O
O       0.2544   0.6569   0.6168     O
H      0.25605      0.0  0.48285     H
H      0.25605  0.51715     -0.0     H
C       0.3091   0.4868   0.4188     C
C       0.3091   0.5812   0.5132     C
O       0.3847   0.3319   0.1791     O
O       0.3847   0.8209   0.6681     O
Co      0.3924   0.2836   0.4144    Co
Co      0.3924   0.5856   0.7164    Co
C       0.5041   0.4641    0.442     C
C       0.5041    0.558   0.5359     C
H      0.53655      0.0  0.57735     H
H      0.53655  0.42265     -0.0     H
C       0.5616   0.3613   0.1869     C
C       0.5616   0.8131   0.6387     C
O       0.5638   0.1791    0.489     O
O       0.5638    0.511   0.8209     O
O       0.5741    0.398   0.4215     O
O       0.5741   0.5785    0.602     O
C       0.5809  0.49935  0.50065     C
O       0.5975   0.3431   0.2737     O
O       0.5975   0.7263   0.6569     O
C       0.6835      0.0   0.5565     C
C       0.6835   0.4435     -0.0     C
C       0.7279   0.4188   0.0944     C
C       0.7279   0.9056   0.5812     C
H       0.7389  0.48285  0.51715     H
C       0.7485   0.1869   0.4518     C
C       0.7485   0.5482   0.8131     C
Co      0.8068   0.4144    0.302    Co
Co      0.8068    0.698   0.5856    Co
C       0.8223   0.0944   0.4868     C
C       0.8223   0.5132   0.9056     C
O       0.8712   0.2737   0.3832     O
O       0.8712   0.6168   0.7263     O
C       0.9461    0.442   0.0939     C
C       0.9461   0.9061    0.558     C
O       0.9956   0.4215   0.1805     O
O       0.9956   0.8195   0.5785     O
