data_I
_chemical_name_common  '/home/zhangsd/repos/MofS-CGCNN/ML/data/TSD/clean_cifs/KOSKIO_clean'
_cell_length_a  6.76770
_cell_length_b 15.10740
_cell_length_c 15.10740
_cell_angle_alpha 62.18920
_cell_angle_beta  81.41220
_cell_angle_gamma 98.58780
_space_group_name_H-M_alt      'P 1'


loop_
_space_group_symop_operation_xyz
  'x, y, z' 

loop_
_atom_site_label
_atom_site_fract_x
_atom_site_fract_y
_atom_site_fract_z
_atom_site_type_symbol
C       0.0413   0.0989    0.464     C
C       0.0413    0.536   0.9011     C
O       0.0562    0.499   0.3284     O
O       0.0562   0.6716    0.501     O
C      0.08865     -0.0  0.50205     C
C      0.08865  0.49795     -0.0     C
H       0.1007  0.57405  0.42595     H
Co      0.1158   0.2962   0.2808    Co
Co      0.1158   0.7192   0.7038    Co
O       0.1783   0.1827   0.4038     O
O       0.1783   0.5962   0.8173     O
C       0.2046    0.459   0.3556     C
C       0.2046   0.6444    0.541     C
C       0.2469  0.55785  0.44215     C
H       0.2518     -0.0   0.4806     H
H       0.2518   0.5194      0.0     H
O       0.2524   0.3869   0.3414     O
O       0.2524   0.6586   0.6131     O
C       0.3209   0.4948   0.4121     C
C       0.3209   0.5879   0.5052     C
O       0.3846   0.3284   0.1726     O
O       0.3846   0.8274   0.6716     O
Co      0.3966   0.2808    0.423    Co
Co      0.3966    0.577   0.7192    Co
C       0.5053    0.464   0.4371     C
C       0.5053   0.5629    0.536     C
H      0.52665     -0.0  0.57405     H
H      0.52665  0.42595      0.0     H
O       0.5572   0.1726    0.499     O
O       0.5572    0.501   0.8274     O
C       0.5602   0.3556   0.1854     C
C       0.5602   0.8146   0.6444     C
O       0.5821   0.4038   0.4135     O
O       0.5821   0.5865   0.5962     O
C       0.5907  0.50205  0.49795     C
O       0.5938   0.3414   0.2717     O
O       0.5938   0.7283   0.6586     O
C      0.68905     -0.0  0.55785     C
C      0.68905  0.44215     -0.0     C
H       0.7324   0.4806   0.5194     H
C        0.733   0.4121   0.0931     C
C        0.733   0.9069   0.5879     C
C       0.7456   0.1854    0.459     C
C       0.7456    0.541   0.8146     C
Co      0.8196    0.423   0.2962    Co
Co      0.8196   0.7038    0.577    Co
C       0.8261   0.0931   0.4948     C
C       0.8261   0.5052   0.9069     C
O       0.8655   0.2717   0.3869     O
O       0.8655   0.6131   0.7283     O
C       0.9424   0.4371   0.0989     C
C       0.9424   0.9011   0.5629     C
O       0.9956   0.4135   0.1827     O
O       0.9956   0.8173   0.5865     O
