data_I
_chemical_name_common  '/home/zhangsd/repos/MofS-CGCNN/ML/data/TSD/clean_cifs/KOSLIP_clean'
_cell_length_a  6.75450
_cell_length_b 15.05110
_cell_length_c 15.05110
_cell_angle_alpha 62.19690
_cell_angle_beta  81.39690
_cell_angle_gamma 98.60310
_space_group_name_H-M_alt      'P 1'


loop_
_space_group_symop_operation_xyz
  'x, y, z' 

loop_
_atom_site_label
_atom_site_fract_x
_atom_site_fract_y
_atom_site_fract_z
_atom_site_type_symbol
O       0.0342   0.4912   0.3356     O
O       0.0342   0.6644   0.5088     O
C       0.0447   0.0938   0.4637     C
C       0.0447   0.5363   0.9062     C
C      0.09585      0.0  0.49245     C
C      0.09585  0.50755      0.0     C
H        0.117   0.5655   0.4345     H
Ni      0.1177   0.3049   0.2811    Ni
Ni      0.1177   0.7189   0.6951    Ni
O        0.164   0.1819   0.3979     O
O        0.164   0.6021   0.8181     O
C        0.206   0.4586   0.3546     C
C        0.206   0.6454   0.5414     C
C       0.2351  0.55965  0.44035     C
O       0.2474   0.3804   0.3472     O
O       0.2474   0.6528   0.6196     O
H       0.2505     -0.0   0.4905     H
H       0.2505   0.5095      0.0     H
C       0.3011   0.4828   0.4265     C
C       0.3011   0.5735   0.5172     C
O       0.3698   0.3356   0.1732     O
O       0.3698   0.8268   0.6644     O
Ni      0.3988   0.2811    0.414    Ni
Ni      0.3988    0.586   0.7189    Ni
C       0.5084   0.4637   0.4425     C
C       0.5084   0.5575   0.5363     C
O        0.543   0.1732   0.4912     O
O        0.543   0.5088   0.8268     O
H       0.5515      0.0   0.5655     H
H       0.5515   0.4345      0.0     H
C       0.5606   0.3546   0.1868     C
C       0.5606   0.8132   0.6454     C
O       0.5619   0.3979   0.4202     O
O       0.5619   0.5798   0.6021     O
C       0.5883  0.49245  0.50755     C
O       0.5946   0.3472   0.2724     O
O       0.5946   0.7276   0.6528     O
C      0.67545      0.0  0.55965     C
C      0.67545  0.44035      0.0     C
C       0.7276   0.4265   0.0907     C
C       0.7276   0.9093   0.5735     C
H        0.741   0.4905   0.5095     H
C       0.7474   0.1868   0.4586     C
C       0.7474   0.5414   0.8132     C
Ni      0.8128    0.414   0.3049    Ni
Ni      0.8128   0.6951    0.586    Ni
C       0.8183   0.0907   0.4828     C
C       0.8183   0.5172   0.9093     C
O        0.867   0.2724   0.3804     O
O        0.867   0.6196   0.7276     O
C       0.9509   0.4425   0.0938     C
C       0.9509   0.9062   0.5575     C
O       0.9821   0.4202   0.1819     O
O       0.9821   0.8181   0.5798     O
