data_I
_chemical_name_common  '/home/zhangsd/repos/MofS-CGCNN/ML/data/TSD/clean_cifs/KOZQEX_clean'
_cell_length_a 27.86000
_cell_length_b 27.86000
_cell_length_c 27.86000
_cell_angle_alpha 90.00000
_cell_angle_beta  90.00000
_cell_angle_gamma 90.00000
_space_group_name_H-M_alt      'P 1'


loop_
_space_group_symop_operation_xyz
  'x, y, z' 

loop_
_atom_site_label
_atom_site_fract_x
_atom_site_fract_y
_atom_site_fract_z
_atom_site_type_symbol
Cu         0.0      0.0  0.45244    Cu
Cu         0.0      0.0  0.54756    Cu
Cu         0.0  0.45244      0.0    Cu
Cu         0.0  0.54756      0.0    Cu
O      0.04997  0.04997  0.46012     O
O      0.04997  0.04997  0.53988     O
O      0.04997  0.46012  0.04997     O
O      0.04997  0.46012  0.95003     O
O      0.04997  0.53988  0.04997     O
O      0.04997  0.53988  0.95003     O
O      0.04997  0.95003  0.46012     O
O      0.04997  0.95003  0.53988     O
C      0.06376  0.06376      0.5     C
C      0.06376      0.5  0.06376     C
C      0.06376      0.5  0.93624     C
C      0.06376  0.93624      0.5     C
C      0.10148  0.10148      0.5     C
C      0.10148      0.5  0.10148     C
C      0.10148      0.5  0.89852     C
C      0.10148  0.89852      0.5     C
H       0.1073   0.1073    0.431     H
H       0.1073   0.1073    0.569     H
H       0.1073    0.431   0.1073     H
H       0.1073    0.431   0.8927     H
H       0.1073    0.569   0.1073     H
H       0.1073    0.569   0.8927     H
H       0.1073   0.8927    0.431     H
H       0.1073   0.8927    0.569     H
C      0.11866  0.11866   0.4603     C
C      0.11866  0.11866   0.5397     C
C      0.11866   0.4603  0.11866     C
C      0.11866   0.4603  0.88134     C
C      0.11866   0.5397  0.11866     C
C      0.11866   0.5397  0.88134     C
C      0.11866  0.88134   0.4603     C
C      0.11866  0.88134   0.5397     C
H       0.1282   0.2659      0.5     H
H       0.1282      0.5   0.2659     H
H       0.1282      0.5   0.7341     H
H       0.1282   0.7341      0.5     H
H       0.1299   0.3486      0.5     H
H       0.1299      0.5   0.3486     H
H       0.1299      0.5   0.6514     H
H       0.1299   0.6514      0.5     H
Cu     0.15536      0.5      0.5    Cu
C      0.15591  0.15591   0.4612     C
C      0.15591  0.15591   0.5388     C
C      0.15591   0.4612  0.15591     C
C      0.15591   0.4612  0.84409     C
C      0.15591   0.5388  0.15591     C
C      0.15591   0.5388  0.84409     C
C      0.15591  0.84409   0.4612     C
C      0.15591  0.84409   0.5388     C
C      0.15742  0.28211      0.5     C
C      0.15742      0.5  0.28211     C
C      0.15742      0.5  0.71789     C
C      0.15742  0.71789      0.5     C
C      0.15853  0.33142      0.5     C
C      0.15853      0.5  0.33142     C
C      0.15853      0.5  0.66858     C
C      0.15853  0.66858      0.5     C
O      0.16273  0.43028      0.5     O
O      0.16273      0.5  0.43028     O
O      0.16273      0.5  0.56972     O
O      0.16273  0.56972      0.5     O
H       0.1678   0.1678   0.4323     H
H       0.1678   0.1678   0.5677     H
H       0.1678   0.4323   0.1678     H
H       0.1678   0.4323   0.8322     H
H       0.1678   0.5677   0.1678     H
H       0.1678   0.5677   0.8322     H
H       0.1678   0.8322   0.4323     H
H       0.1678   0.8322   0.5677     H
C      0.17224  0.17224      0.5     C
C      0.17224      0.5  0.17224     C
C      0.17224      0.5  0.82776     C
C      0.17224  0.82776      0.5     C
C      0.19996  0.25683      0.5     C
C      0.19996      0.5  0.25683     C
C      0.19996      0.5  0.74317     C
C      0.19996  0.74317      0.5     C
C      0.20259    0.356      0.5     C
C      0.20259      0.5    0.356     C
C      0.20259      0.5    0.644     C
C      0.20259    0.644      0.5     C
C      0.20265  0.40931      0.5     C
C      0.20265      0.5  0.40931     C
C      0.20265      0.5  0.59069     C
C      0.20265  0.59069      0.5     C
N      0.20824  0.20824      0.5     N
N      0.20824      0.5  0.20824     N
N      0.20824      0.5  0.79176     N
N      0.20824  0.79176      0.5     N
O      0.24268  0.43002      0.5     O
O      0.24268      0.5  0.43002     O
O      0.24268      0.5  0.56998     O
O      0.24268  0.56998      0.5     O
C      0.24477  0.28092      0.5     C
C      0.24477      0.5  0.28092     C
C      0.24477      0.5  0.71908     C
C      0.24477  0.71908      0.5     C
C      0.24496  0.33046      0.5     C
C      0.24496      0.5  0.33046     C
C      0.24496      0.5  0.66954     C
C      0.24496  0.66954      0.5     C
Cu     0.24979      0.5      0.5    Cu
C      0.25683  0.19996      0.5     C
C      0.25683      0.5  0.19996     C
C      0.25683      0.5  0.80004     C
C      0.25683  0.80004      0.5     C
H       0.2659   0.1282      0.5     H
H       0.2659      0.5   0.1282     H
H       0.2659      0.5   0.8718     H
H       0.2659   0.8718      0.5     H
H       0.2741   0.3468      0.5     H
H       0.2741      0.5   0.3468     H
H       0.2741      0.5   0.6532     H
H       0.2741   0.6532      0.5     H
C      0.28092  0.24477      0.5     C
C      0.28092      0.5  0.24477     C
C      0.28092      0.5  0.75523     C
C      0.28092  0.75523      0.5     C
C      0.28211  0.15742      0.5     C
C      0.28211      0.5  0.15742     C
C      0.28211      0.5  0.84258     C
C      0.28211  0.84258      0.5     C
C      0.33046  0.24496      0.5     C
C      0.33046      0.5  0.24496     C
C      0.33046      0.5  0.75504     C
C      0.33046  0.75504      0.5     C
C      0.33142  0.15853      0.5     C
C      0.33142      0.5  0.15853     C
C      0.33142      0.5  0.84147     C
C      0.33142  0.84147      0.5     C
H       0.3468   0.2741      0.5     H
H       0.3468      0.5   0.2741     H
H       0.3468      0.5   0.7259     H
H       0.3468   0.7259      0.5     H
H       0.3486   0.1299      0.5     H
H       0.3486      0.5   0.1299     H
H       0.3486      0.5   0.8701     H
H       0.3486   0.8701      0.5     H
C        0.356  0.20259      0.5     C
C        0.356      0.5  0.20259     C
C        0.356      0.5  0.79741     C
C        0.356  0.79741      0.5     C
C      0.40931  0.20265      0.5     C
C      0.40931      0.5  0.20265     C
C      0.40931      0.5  0.79735     C
C      0.40931  0.79735      0.5     C
O      0.43002  0.24268      0.5     O
O      0.43002      0.5  0.24268     O
O      0.43002      0.5  0.75732     O
O      0.43002  0.75732      0.5     O
O      0.43028  0.16273      0.5     O
O      0.43028      0.5  0.16273     O
O      0.43028      0.5  0.83727     O
O      0.43028  0.83727      0.5     O
H        0.431   0.1073   0.1073     H
H        0.431   0.1073   0.8927     H
H        0.431   0.8927   0.1073     H
H        0.431   0.8927   0.8927     H
H       0.4323   0.1678   0.1678     H
H       0.4323   0.1678   0.8322     H
H       0.4323   0.8322   0.1678     H
H       0.4323   0.8322   0.8322     H
Cu     0.45244      0.0      0.0    Cu
O      0.46012  0.04997  0.04997     O
O      0.46012  0.04997  0.95003     O
O      0.46012  0.95003  0.04997     O
O      0.46012  0.95003  0.95003     O
C       0.4603  0.11866  0.11866     C
C       0.4603  0.11866  0.88134     C
C       0.4603  0.88134  0.11866     C
C       0.4603  0.88134  0.88134     C
C       0.4612  0.15591  0.15591     C
C       0.4612  0.15591  0.84409     C
C       0.4612  0.84409  0.15591     C
C       0.4612  0.84409  0.84409     C
C          0.5  0.06376  0.06376     C
C          0.5  0.06376  0.93624     C
C          0.5  0.10148  0.10148     C
C          0.5  0.10148  0.89852     C
H          0.5   0.1282   0.2659     H
H          0.5   0.1282   0.7341     H
H          0.5   0.1299   0.3486     H
H          0.5   0.1299   0.6514     H
Cu         0.5  0.15536      0.5    Cu
C          0.5  0.15742  0.28211     C
C          0.5  0.15742  0.71789     C
C          0.5  0.15853  0.33142     C
C          0.5  0.15853  0.66858     C
O          0.5  0.16273  0.43028     O
O          0.5  0.16273  0.56972     O
C          0.5  0.17224  0.17224     C
C          0.5  0.17224  0.82776     C
C          0.5  0.19996  0.25683     C
C          0.5  0.19996  0.74317     C
C          0.5  0.20259    0.356     C
C          0.5  0.20259    0.644     C
C          0.5  0.20265  0.40931     C
C          0.5  0.20265  0.59069     C
N          0.5  0.20824  0.20824     N
N          0.5  0.20824  0.79176     N
O          0.5  0.24268  0.43002     O
O          0.5  0.24268  0.56998     O
C          0.5  0.24477  0.28092     C
C          0.5  0.24477  0.71908     C
C          0.5  0.24496  0.33046     C
C          0.5  0.24496  0.66954     C
Cu         0.5  0.24979      0.5    Cu
C          0.5  0.25683  0.19996     C
C          0.5  0.25683  0.80004     C
H          0.5   0.2659   0.1282     H
H          0.5   0.2659   0.8718     H
H          0.5   0.2741   0.3468     H
H          0.5   0.2741   0.6532     H
C          0.5  0.28092  0.24477     C
C          0.5  0.28092  0.75523     C
C          0.5  0.28211  0.15742     C
C          0.5  0.28211  0.84258     C
C          0.5  0.33046  0.24496     C
C          0.5  0.33046  0.75504     C
C          0.5  0.33142  0.15853     C
C          0.5  0.33142  0.84147     C
H          0.5   0.3468   0.2741     H
H          0.5   0.3468   0.7259     H
H          0.5   0.3486   0.1299     H
H          0.5   0.3486   0.8701     H
C          0.5    0.356  0.20259     C
C          0.5    0.356  0.79741     C
C          0.5  0.40931  0.20265     C
C          0.5  0.40931  0.79735     C
O          0.5  0.43002  0.24268     O
O          0.5  0.43002  0.75732     O
O          0.5  0.43028  0.16273     O
O          0.5  0.43028  0.83727     O
Cu         0.5      0.5  0.15536    Cu
Cu         0.5      0.5  0.24979    Cu
Cu         0.5      0.5  0.75021    Cu
Cu         0.5      0.5  0.84464    Cu
O          0.5  0.56972  0.16273     O
O          0.5  0.56972  0.83727     O
O          0.5  0.56998  0.24268     O
O          0.5  0.56998  0.75732     O
C          0.5  0.59069  0.20265     C
C          0.5  0.59069  0.79735     C
C          0.5    0.644  0.20259     C
C          0.5    0.644  0.79741     C
H          0.5   0.6514   0.1299     H
H          0.5   0.6514   0.8701     H
H          0.5   0.6532   0.2741     H
H          0.5   0.6532   0.7259     H
C          0.5  0.66858  0.15853     C
C          0.5  0.66858  0.84147     C
C          0.5  0.66954  0.24496     C
C          0.5  0.66954  0.75504     C
C          0.5  0.71789  0.15742     C
C          0.5  0.71789  0.84258     C
C          0.5  0.71908  0.24477     C
C          0.5  0.71908  0.75523     C
H          0.5   0.7259   0.3468     H
H          0.5   0.7259   0.6532     H
H          0.5   0.7341   0.1282     H
H          0.5   0.7341   0.8718     H
C          0.5  0.74317  0.19996     C
C          0.5  0.74317  0.80004     C
Cu         0.5  0.75021      0.5    Cu
C          0.5  0.75504  0.33046     C
C          0.5  0.75504  0.66954     C
C          0.5  0.75523  0.28092     C
C          0.5  0.75523  0.71908     C
O          0.5  0.75732  0.43002     O
O          0.5  0.75732  0.56998     O
N          0.5  0.79176  0.20824     N
N          0.5  0.79176  0.79176     N
C          0.5  0.79735  0.40931     C
C          0.5  0.79735  0.59069     C
C          0.5  0.79741    0.356     C
C          0.5  0.79741    0.644     C
C          0.5  0.80004  0.25683     C
C          0.5  0.80004  0.74317     C
C          0.5  0.82776  0.17224     C
C          0.5  0.82776  0.82776     C
O          0.5  0.83727  0.43028     O
O          0.5  0.83727  0.56972     O
C          0.5  0.84147  0.33142     C
C          0.5  0.84147  0.66858     C
C          0.5  0.84258  0.28211     C
C          0.5  0.84258  0.71789     C
Cu         0.5  0.84464      0.5    Cu
H          0.5   0.8701   0.3486     H
H          0.5   0.8701   0.6514     H
H          0.5   0.8718   0.2659     H
H          0.5   0.8718   0.7341     H
C          0.5  0.89852  0.10148     C
C          0.5  0.89852  0.89852     C
C          0.5  0.93624  0.06376     C
C          0.5  0.93624  0.93624     C
C       0.5388  0.15591  0.15591     C
C       0.5388  0.15591  0.84409     C
C       0.5388  0.84409  0.15591     C
C       0.5388  0.84409  0.84409     C
C       0.5397  0.11866  0.11866     C
C       0.5397  0.11866  0.88134     C
C       0.5397  0.88134  0.11866     C
C       0.5397  0.88134  0.88134     C
O      0.53988  0.04997  0.04997     O
O      0.53988  0.04997  0.95003     O
O      0.53988  0.95003  0.04997     O
O      0.53988  0.95003  0.95003     O
Cu     0.54756      0.0      0.0    Cu
H       0.5677   0.1678   0.1678     H
H       0.5677   0.1678   0.8322     H
H       0.5677   0.8322   0.1678     H
H       0.5677   0.8322   0.8322     H
H        0.569   0.1073   0.1073     H
H        0.569   0.1073   0.8927     H
H        0.569   0.8927   0.1073     H
H        0.569   0.8927   0.8927     H
O      0.56972  0.16273      0.5     O
O      0.56972      0.5  0.16273     O
O      0.56972      0.5  0.83727     O
O      0.56972  0.83727      0.5     O
O      0.56998  0.24268      0.5     O
O      0.56998      0.5  0.24268     O
O      0.56998      0.5  0.75732     O
O      0.56998  0.75732      0.5     O
C      0.59069  0.20265      0.5     C
C      0.59069      0.5  0.20265     C
C      0.59069      0.5  0.79735     C
C      0.59069  0.79735      0.5     C
C        0.644  0.20259      0.5     C
C        0.644      0.5  0.20259     C
C        0.644      0.5  0.79741     C
C        0.644  0.79741      0.5     C
H       0.6514   0.1299      0.5     H
H       0.6514      0.5   0.1299     H
H       0.6514      0.5   0.8701     H
H       0.6514   0.8701      0.5     H
H       0.6532   0.2741      0.5     H
H       0.6532      0.5   0.2741     H
H       0.6532      0.5   0.7259     H
H       0.6532   0.7259      0.5     H
C      0.66858  0.15853      0.5     C
C      0.66858      0.5  0.15853     C
C      0.66858      0.5  0.84147     C
C      0.66858  0.84147      0.5     C
C      0.66954  0.24496      0.5     C
C      0.66954      0.5  0.24496     C
C      0.66954      0.5  0.75504     C
C      0.66954  0.75504      0.5     C
C      0.71789  0.15742      0.5     C
C      0.71789      0.5  0.15742     C
C      0.71789      0.5  0.84258     C
C      0.71789  0.84258      0.5     C
C      0.71908  0.24477      0.5     C
C      0.71908      0.5  0.24477     C
C      0.71908      0.5  0.75523     C
C      0.71908  0.75523      0.5     C
H       0.7259   0.3468      0.5     H
H       0.7259      0.5   0.3468     H
H       0.7259      0.5   0.6532     H
H       0.7259   0.6532      0.5     H
H       0.7341   0.1282      0.5     H
H       0.7341      0.5   0.1282     H
H       0.7341      0.5   0.8718     H
H       0.7341   0.8718      0.5     H
C      0.74317  0.19996      0.5     C
C      0.74317      0.5  0.19996     C
C      0.74317      0.5  0.80004     C
C      0.74317  0.80004      0.5     C
Cu     0.75021      0.5      0.5    Cu
C      0.75504  0.33046      0.5     C
C      0.75504      0.5  0.33046     C
C      0.75504      0.5  0.66954     C
C      0.75504  0.66954      0.5     C
C      0.75523  0.28092      0.5     C
C      0.75523      0.5  0.28092     C
C      0.75523      0.5  0.71908     C
C      0.75523  0.71908      0.5     C
O      0.75732  0.43002      0.5     O
O      0.75732      0.5  0.43002     O
O      0.75732      0.5  0.56998     O
O      0.75732  0.56998      0.5     O
N      0.79176  0.20824      0.5     N
N      0.79176      0.5  0.20824     N
N      0.79176      0.5  0.79176     N
N      0.79176  0.79176      0.5     N
C      0.79735  0.40931      0.5     C
C      0.79735      0.5  0.40931     C
C      0.79735      0.5  0.59069     C
C      0.79735  0.59069      0.5     C
C      0.79741    0.356      0.5     C
C      0.79741      0.5    0.356     C
C      0.79741      0.5    0.644     C
C      0.79741    0.644      0.5     C
C      0.80004  0.25683      0.5     C
C      0.80004      0.5  0.25683     C
C      0.80004      0.5  0.74317     C
C      0.80004  0.74317      0.5     C
C      0.82776  0.17224      0.5     C
C      0.82776      0.5  0.17224     C
C      0.82776      0.5  0.82776     C
C      0.82776  0.82776      0.5     C
H       0.8322   0.1678   0.4323     H
H       0.8322   0.1678   0.5677     H
H       0.8322   0.4323   0.1678     H
H       0.8322   0.4323   0.8322     H
H       0.8322   0.5677   0.1678     H
H       0.8322   0.5677   0.8322     H
H       0.8322   0.8322   0.4323     H
H       0.8322   0.8322   0.5677     H
O      0.83727  0.43028      0.5     O
O      0.83727      0.5  0.43028     O
O      0.83727      0.5  0.56972     O
O      0.83727  0.56972      0.5     O
C      0.84147  0.33142      0.5     C
C      0.84147      0.5  0.33142     C
C      0.84147      0.5  0.66858     C
C      0.84147  0.66858      0.5     C
C      0.84258  0.28211      0.5     C
C      0.84258      0.5  0.28211     C
C      0.84258      0.5  0.71789     C
C      0.84258  0.71789      0.5     C
C      0.84409  0.15591   0.4612     C
C      0.84409  0.15591   0.5388     C
C      0.84409   0.4612  0.15591     C
C      0.84409   0.4612  0.84409     C
C      0.84409   0.5388  0.15591     C
C      0.84409   0.5388  0.84409     C
C      0.84409  0.84409   0.4612     C
C      0.84409  0.84409   0.5388     C
Cu     0.84464      0.5      0.5    Cu
H       0.8701   0.3486      0.5     H
H       0.8701      0.5   0.3486     H
H       0.8701      0.5   0.6514     H
H       0.8701   0.6514      0.5     H
H       0.8718   0.2659      0.5     H
H       0.8718      0.5   0.2659     H
H       0.8718      0.5   0.7341     H
H       0.8718   0.7341      0.5     H
C      0.88134  0.11866   0.4603     C
C      0.88134  0.11866   0.5397     C
C      0.88134   0.4603  0.11866     C
C      0.88134   0.4603  0.88134     C
C      0.88134   0.5397  0.11866     C
C      0.88134   0.5397  0.88134     C
C      0.88134  0.88134   0.4603     C
C      0.88134  0.88134   0.5397     C
H       0.8927   0.1073    0.431     H
H       0.8927   0.1073    0.569     H
H       0.8927    0.431   0.1073     H
H       0.8927    0.431   0.8927     H
H       0.8927    0.569   0.1073     H
H       0.8927    0.569   0.8927     H
H       0.8927   0.8927    0.431     H
H       0.8927   0.8927    0.569     H
C      0.89852  0.10148      0.5     C
C      0.89852      0.5  0.10148     C
C      0.89852      0.5  0.89852     C
C      0.89852  0.89852      0.5     C
C      0.93624  0.06376      0.5     C
C      0.93624      0.5  0.06376     C
C      0.93624      0.5  0.93624     C
C      0.93624  0.93624      0.5     C
O      0.95003  0.04997  0.46012     O
O      0.95003  0.04997  0.53988     O
O      0.95003  0.46012  0.04997     O
O      0.95003  0.46012  0.95003     O
O      0.95003  0.53988  0.04997     O
O      0.95003  0.53988  0.95003     O
O      0.95003  0.95003  0.46012     O
O      0.95003  0.95003  0.53988     O
