data_I
_chemical_name_common  '/home/zhangsd/repos/MofS-CGCNN/ML/data/TSD/clean_cifs/KUDWAJ_clean'
_cell_length_a 22.87700
_cell_length_b 23.11100
_cell_length_c 18.36400
_cell_angle_alpha 90.00000
_cell_angle_beta  105.39900
_cell_angle_gamma 90.00000
_space_group_name_H-M_alt      'P 1'


loop_
_space_group_symop_operation_xyz
  'x, y, z' 

loop_
_atom_site_label
_atom_site_fract_x
_atom_site_fract_y
_atom_site_fract_z
_atom_site_type_symbol
H       0.0016   0.1596   0.8686     H
H       0.0016   0.8404   0.3686     H
H       0.0072   0.3315   0.6639     H
H       0.0072   0.6685   0.1639     H
H       0.0074    0.354    0.193     H
H       0.0074    0.646    0.693     H
C      0.00939   0.3533   0.8821     C
C      0.00939   0.6467   0.3821     C
H       0.0132   0.3933    0.868     H
H       0.0132   0.6067    0.368     H
H       0.0168   0.3697   0.5215     H
H       0.0168   0.6303   0.0215     H
C       0.0201   0.2711   0.2247     C
C       0.0201   0.7289   0.7247     C
C       0.0278   0.3203    0.187     C
C       0.0278   0.6797    0.687     C
C      0.02984  0.18166   0.7775     C
C      0.02984  0.81834   0.2775     C
C      0.03426  0.35017    0.569     C
C      0.03426  0.64983    0.069     C
C      0.03567   0.1691   0.8526     C
C      0.03567   0.8309   0.3526     C
H       0.0409     0.31   0.5581     H
H       0.0409     0.69   0.0581     H
H        0.043   0.1886   0.2326     H
H        0.043   0.8114   0.7326     H
C       0.0489   0.2235   0.2103     C
C       0.0489   0.7765   0.7103     C
O      0.05826  0.46511  0.55806     O
O      0.05826  0.53489  0.05806     O
C        0.066   0.3202     0.14     C
C        0.066   0.6798     0.64     C
H       0.0711   0.3543   0.1156     H
H       0.0711   0.6457   0.6156     H
C      0.07176  0.32993   0.9208     C
C      0.07176  0.67007   0.4208     C
O      0.07562   0.3011  0.98047     O
O      0.07562   0.6989  0.48047     O
H       0.0804   0.2052   0.7092     H
H       0.0804   0.7948   0.2092     H
C      0.08189   0.1964   0.7591     C
C      0.08189   0.8036   0.2591     C
C       0.0869   0.2252   0.1633     C
C       0.0869   0.7748   0.6633     C
C      0.09196   0.1705   0.9039     C
C      0.09196   0.8295   0.4039     C
N      0.09313  0.37745  0.60714     N
N      0.09313  0.62255  0.10714     N
H       0.0949   0.1606   0.9539     H
H       0.0949   0.8394   0.4539     H
N      0.09607  0.27256  0.12796     N
N      0.09607  0.72744  0.62796     N
C      0.09884  0.43571   0.5969     C
C      0.09884  0.56429   0.0969     C
H       0.1069   0.1915   0.1563     H
H       0.1069   0.8085   0.6563     H
O      0.11434  0.33985  0.89259     O
O      0.11434  0.66015  0.39259     O
H       0.1238   0.4593   0.1127     H
H       0.1238   0.5407   0.6127     H
O      0.12787  0.29255  0.66311     O
O      0.12787  0.70745  0.16311     O
C      0.13613   0.1984   0.8128     C
C      0.13613   0.8016   0.3128     C
C      0.13681  0.34348   0.6529     C
C      0.13681  0.65652   0.1529     C
N      0.14209  0.18526    0.885     N
N      0.14209  0.81474    0.385     N
Cu     0.14907  0.27831  0.05791    Cu
Cu     0.14907  0.72169  0.55791    Cu
N       0.1549  0.45933  0.63408     N
N       0.1549  0.54067  0.13408     N
C      0.16319  0.47785   0.1283     C
C      0.16319  0.52215   0.6283     C
H       0.1705   0.2095   0.7983     H
H       0.1705   0.7905   0.2983     H
H       0.1763   0.4753   0.0219     H
H       0.1763   0.5247   0.5219     H
O      0.18066  0.36543  0.09694     O
O      0.18066  0.63457  0.59694     O
H       0.1813   0.2987   0.9392     H
H       0.1813   0.7013   0.4392     H
H       0.1843   0.4627   0.1775     H
H       0.1843   0.5373   0.6775     H
O      0.18619  0.16631  0.06805     O
O      0.18619  0.83369  0.56805     O
N      0.19091  0.37014  0.68577     N
N      0.19091  0.62986  0.18577     N
H       0.1935   0.3343   0.8218     H
H       0.1935   0.6657   0.3218     H
O      0.19906  0.27594  0.98474     O
O      0.19906  0.72406  0.48474     O
C      0.19907  0.46338    0.072     C
C      0.19907  0.53662    0.572     C
C       0.2011   0.4275   0.6788     C
C       0.2011   0.5725   0.1788     C
C      0.21207  0.39898    0.072     C
C      0.21207  0.60102    0.572     C
O      0.21807  0.24431   0.1361     O
O      0.21807  0.75569   0.6361     O
C      0.22017  0.19024   0.1249     C
C      0.22017  0.80976   0.6249     C
Cu     0.22061  0.19599  0.96079    Cu
Cu     0.22061  0.80401  0.46079    Cu
H       0.2219   0.1511   0.2646     H
H       0.2219   0.8489   0.7646     H
C      0.23386  0.34507   0.8192     C
C      0.23386  0.65493   0.3192     C
H        0.234   0.2957    0.726     H
H        0.234   0.7043    0.226     H
H        0.237   0.4846    0.085     H
H        0.237   0.5154    0.585     H
C      0.23853  0.33643    0.739     C
C      0.23853  0.66357    0.239     C
H       0.2398   0.3857   0.8324     H
H       0.2398   0.6143   0.3324     H
O      0.24469  0.11597  0.95446     O
O      0.24469  0.88403  0.45446     O
O      0.24911  0.44995  0.71113     O
O      0.24911  0.55005  0.21113     O
O      0.25089  0.05005  0.28887     O
O      0.25089  0.94995  0.78887     O
O      0.25531  0.38403  0.04554     O
O      0.25531  0.61597  0.54554     O
H       0.2602   0.1143   0.1676     H
H       0.2602   0.8857   0.6676     H
C      0.26147  0.16357    0.261     C
C      0.26147  0.83643    0.761     C
H        0.263   0.0154    0.915     H
H        0.263   0.9846    0.415     H
H        0.266   0.2043    0.274     H
H        0.266   0.7957    0.774     H
C      0.26614  0.15493   0.1808     C
C      0.26614  0.84507   0.6808     C
H       0.2781   0.3489   0.7354     H
H       0.2781   0.6511   0.2354     H
Cu     0.27939  0.30401  0.03921    Cu
Cu     0.27939  0.69599  0.53921    Cu
C      0.27983  0.30976   0.8751     C
C      0.27983  0.69024   0.3751     C
O      0.28193  0.25569   0.8639     O
O      0.28193  0.74431   0.3639     O
C      0.28793  0.10102    0.928     C
C      0.28793  0.89898    0.428     C
C       0.2989   0.0725   0.3212     C
C       0.2989   0.9275   0.8212     C
C      0.30093  0.03662    0.928     C
C      0.30093  0.96338    0.428     C
O      0.30094  0.22406  0.01526     O
O      0.30094  0.77594  0.51526     O
H       0.3065   0.1657   0.1782     H
H       0.3065   0.8343   0.6782     H
N      0.30909  0.12986  0.31423     N
N      0.30909  0.87014  0.81423     N
O      0.31381  0.33369  0.93195     O
O      0.31381  0.66631  0.43195     O
H       0.3157   0.0373   0.8225     H
H       0.3157   0.9627   0.3225     H
H       0.3187   0.2013   0.0608     H
H       0.3187   0.7987   0.5608     H
O      0.31934  0.13457  0.90306     O
O      0.31934  0.86543  0.40306     O
H       0.3237   0.0247   0.9781     H
H       0.3237   0.9753   0.4781     H
H       0.3295   0.2905   0.2017     H
H       0.3295   0.7095   0.7017     H
C      0.33681  0.02215   0.8717     C
C      0.33681  0.97785   0.3717     C
N       0.3451  0.04067  0.36592     N
N       0.3451  0.95933  0.86592     N
Cu     0.35093  0.22169  0.94209    Cu
Cu     0.35093  0.77832  0.44209    Cu
N      0.35791  0.31474    0.115     N
N      0.35791  0.68526    0.615     N
C      0.36319  0.15652   0.3471     C
C      0.36319  0.84348   0.8471     C
C      0.36387   0.3016   0.1872     C
C      0.36387   0.6984   0.6872     C
O      0.37213  0.20745  0.33689     O
O      0.37213  0.79255  0.83689     O
H       0.3762   0.0407   0.8873     H
H       0.3762   0.9593   0.3873     H
O      0.38566  0.16015  0.10741     O
O      0.38566  0.83985  0.60741     O
H       0.3931   0.3085   0.8437     H
H       0.3931   0.6915   0.3437     H
C      0.40116  0.06429   0.4031     C
C      0.40116  0.93571   0.9031     C
N      0.40393  0.22744  0.87204     N
N      0.40393  0.77256  0.37204     N
H       0.4051   0.3394   0.0461     H
H       0.4051   0.6606   0.5461     H
N      0.40687  0.12255  0.39286     N
N      0.40687  0.87745  0.89286     N
C      0.40804   0.3295   0.0961     C
C      0.40804   0.6705   0.5961     C
C       0.4131   0.2748   0.8367     C
C       0.4131   0.7252   0.3367     C
C      0.41811   0.3036   0.2409     C
C      0.41811   0.6964   0.7409     C
H       0.4196   0.2948   0.2908     H
H       0.4196   0.7052   0.7908     H
O      0.42438   0.1989  0.01953     O
O      0.42438   0.8011  0.51953     O
C      0.42824  0.17007   0.0792     C
C      0.42824  0.82993   0.5792     C
H       0.4289   0.1457   0.8844     H
H       0.4289   0.8543   0.3844     H
C        0.434   0.1798     0.86     C
C        0.434   0.8202     0.36     C
O      0.44174  0.03489  0.44194     O
O      0.44174  0.96511  0.94194     O
C       0.4511   0.2765   0.7897     C
C       0.4511   0.7235   0.2897     C
H        0.457   0.3114   0.7674     H
H        0.457   0.6886   0.2674     H
H       0.4591     0.19   0.4419     H
H       0.4591     0.81   0.9419     H
C      0.46433   0.3309   0.1474     C
C      0.46433   0.6691   0.6474     C
C      0.46574  0.14983    0.431     C
C      0.46574  0.85017    0.931     C
C      0.47016  0.31834   0.2225     C
C      0.47016  0.68166   0.7225     C
C       0.4722   0.1797    0.813     C
C       0.4722   0.8203    0.313     C
C       0.4799   0.2289   0.7753     C
C       0.4799   0.7711   0.2753     C
H       0.4832   0.1303   0.4785     H
H       0.4832   0.8697   0.9785     H
H       0.4868   0.1067    0.132     H
H       0.4868   0.8933    0.632     H
C      0.49061   0.1467   0.1179     C
C      0.49061   0.8533   0.6179     C
H       0.4926    0.146    0.807     H
H       0.4926    0.854    0.307     H
H       0.4928   0.1685   0.3361     H
H       0.4928   0.8315   0.8361     H
H       0.4984   0.3404   0.1314     H
H       0.4984   0.6596   0.6314     H
H       0.5016   0.3404   0.3686     H
H       0.5016   0.6596   0.8686     H
H       0.5072   0.1685   0.1639     H
H       0.5072   0.8315   0.6639     H
H       0.5074    0.146    0.693     H
H       0.5074    0.854    0.193     H
C      0.50939   0.1467   0.3821     C
C      0.50939   0.8533   0.8821     C
H       0.5132   0.1067    0.368     H
H       0.5132   0.8933    0.868     H
H       0.5168   0.1303   0.0215     H
H       0.5168   0.8697   0.5215     H
C       0.5201   0.2289   0.7247     C
C       0.5201   0.7711   0.2247     C
C       0.5278   0.1797    0.687     C
C       0.5278   0.8203    0.187     C
C      0.52984  0.31834   0.2775     C
C      0.52984  0.68166   0.7775     C
C      0.53426  0.14983    0.069     C
C      0.53426  0.85017    0.569     C
C      0.53567   0.3309   0.3526     C
C      0.53567   0.6691   0.8526     C
H       0.5409     0.19   0.0581     H
H       0.5409     0.81   0.5581     H
H        0.543   0.3114   0.7326     H
H        0.543   0.6886   0.2326     H
C       0.5489   0.2765   0.7103     C
C       0.5489   0.7235   0.2103     C
O      0.55826  0.03489  0.05806     O
O      0.55826  0.96511  0.55806     O
C        0.566   0.1798     0.64     C
C        0.566   0.8202     0.14     C
H       0.5711   0.1457   0.6156     H
H       0.5711   0.8543   0.1156     H
C      0.57176  0.17007   0.4208     C
C      0.57176  0.82993   0.9208     C
O      0.57562   0.1989  0.48047     O
O      0.57562   0.8011  0.98047     O
H       0.5804   0.2948   0.2092     H
H       0.5804   0.7052   0.7092     H
C      0.58189   0.3036   0.2591     C
C      0.58189   0.6964   0.7591     C
C       0.5869   0.2748   0.6633     C
C       0.5869   0.7252   0.1633     C
C      0.59196   0.3295   0.4039     C
C      0.59196   0.6705   0.9039     C
N      0.59313  0.12255  0.10714     N
N      0.59313  0.87745  0.60714     N
H       0.5949   0.3394   0.4539     H
H       0.5949   0.6606   0.9539     H
N      0.59607  0.22744  0.62796     N
N      0.59607  0.77256  0.12796     N
C      0.59884  0.06429   0.0969     C
C      0.59884  0.93571   0.5969     C
H       0.6069   0.3085   0.6563     H
H       0.6069   0.6915   0.1563     H
O      0.61434  0.16015  0.39259     O
O      0.61434  0.83985  0.89259     O
H       0.6238   0.0407   0.6127     H
H       0.6238   0.9593   0.1127     H
O      0.62787  0.20745  0.16311     O
O      0.62787  0.79255  0.66311     O
C      0.63613   0.3016   0.3128     C
C      0.63613   0.6984   0.8128     C
C      0.63681  0.15652   0.1529     C
C      0.63681  0.84348   0.6529     C
N      0.64209  0.31474    0.385     N
N      0.64209  0.68526    0.885     N
Cu     0.64907  0.22169  0.55791    Cu
Cu     0.64907  0.77832  0.05791    Cu
N       0.6549  0.04067  0.13408     N
N       0.6549  0.95933  0.63408     N
C      0.66319  0.02215   0.6283     C
C      0.66319  0.97785   0.1283     C
H       0.6705   0.2905   0.2983     H
H       0.6705   0.7095   0.7983     H
H       0.6763   0.0247   0.5219     H
H       0.6763   0.9753   0.0219     H
O      0.68066  0.13457  0.59694     O
O      0.68066  0.86543  0.09694     O
H       0.6813   0.2013   0.4392     H
H       0.6813   0.7987   0.9392     H
H       0.6843   0.0373   0.6775     H
H       0.6843   0.9627   0.1775     H
O      0.68619  0.33369  0.56805     O
O      0.68619  0.66631  0.06805     O
N      0.69091  0.12986  0.18577     N
N      0.69091  0.87014  0.68577     N
H       0.6935   0.1657   0.3218     H
H       0.6935   0.8343   0.8218     H
O      0.69906  0.22406  0.48474     O
O      0.69906  0.77594  0.98474     O
C      0.69907  0.03662    0.572     C
C      0.69907  0.96338    0.072     C
C       0.7011   0.0725   0.1788     C
C       0.7011   0.9275   0.6788     C
C      0.71207  0.10102    0.572     C
C      0.71207  0.89898    0.072     C
O      0.71807  0.25569   0.6361     O
O      0.71807  0.74431   0.1361     O
C      0.72017  0.30976   0.6249     C
C      0.72017  0.69024   0.1249     C
Cu     0.72061  0.30401  0.46079    Cu
Cu     0.72061  0.69599  0.96079    Cu
H       0.7219   0.3489   0.7646     H
H       0.7219   0.6511   0.2646     H
C      0.73386  0.15493   0.3192     C
C      0.73386  0.84507   0.8192     C
H        0.734   0.2043    0.226     H
H        0.734   0.7957    0.726     H
H        0.737   0.0154    0.585     H
H        0.737   0.9846    0.085     H
C      0.73853  0.16357    0.239     C
C      0.73853  0.83643    0.739     C
H       0.7398   0.1143   0.3324     H
H       0.7398   0.8857   0.8324     H
O      0.74469  0.38403  0.45446     O
O      0.74469  0.61597  0.95446     O
O      0.74911  0.05005  0.21113     O
O      0.74911  0.94995  0.71113     O
O      0.75089  0.44995  0.78887     O
O      0.75089  0.55005  0.28887     O
O      0.75531  0.11597  0.54554     O
O      0.75531  0.88403  0.04554     O
H       0.7602   0.3857   0.6676     H
H       0.7602   0.6143   0.1676     H
C      0.76147  0.33643    0.761     C
C      0.76147  0.66357    0.261     C
H        0.763   0.4846    0.415     H
H        0.763   0.5154    0.915     H
H        0.766   0.2957    0.774     H
H        0.766   0.7043    0.274     H
C      0.76614  0.34507   0.6808     C
C      0.76614  0.65493   0.1808     C
H       0.7781   0.1511   0.2354     H
H       0.7781   0.8489   0.7354     H
Cu     0.77939  0.19599  0.53921    Cu
Cu     0.77939  0.80401  0.03921    Cu
C      0.77983  0.19024   0.3751     C
C      0.77983  0.80976   0.8751     C
O      0.78193  0.24431   0.3639     O
O      0.78193  0.75569   0.8639     O
C      0.78793  0.39898    0.428     C
C      0.78793  0.60102    0.928     C
C       0.7989   0.4275   0.8212     C
C       0.7989   0.5725   0.3212     C
C      0.80093  0.46338    0.428     C
C      0.80093  0.53662    0.928     C
O      0.80094  0.27594  0.51526     O
O      0.80094  0.72406  0.01526     O
H       0.8065   0.3343   0.6782     H
H       0.8065   0.6657   0.1782     H
N      0.80909  0.37014  0.81423     N
N      0.80909  0.62986  0.31423     N
O      0.81381  0.16631  0.43195     O
O      0.81381  0.83369  0.93195     O
H       0.8157   0.4627   0.3225     H
H       0.8157   0.5373   0.8225     H
H       0.8187   0.2987   0.5608     H
H       0.8187   0.7013   0.0608     H
O      0.81934  0.36543  0.40306     O
O      0.81934  0.63457  0.90306     O
H       0.8237   0.4753   0.4781     H
H       0.8237   0.5247   0.9781     H
H       0.8295   0.2095   0.7017     H
H       0.8295   0.7905   0.2017     H
C      0.83681  0.47785   0.3717     C
C      0.83681  0.52215   0.8717     C
N       0.8451  0.45933  0.86592     N
N       0.8451  0.54067  0.36592     N
Cu     0.85093  0.27831  0.44209    Cu
Cu     0.85093  0.72169  0.94209    Cu
N      0.85791  0.18526    0.615     N
N      0.85791  0.81474    0.115     N
C      0.86319  0.34348   0.8471     C
C      0.86319  0.65652   0.3471     C
C      0.86387   0.1984   0.6872     C
C      0.86387   0.8016   0.1872     C
O      0.87213  0.29255  0.83689     O
O      0.87213  0.70745  0.33689     O
H       0.8762   0.4593   0.3873     H
H       0.8762   0.5407   0.8873     H
O      0.88566  0.33985  0.60741     O
O      0.88566  0.66015  0.10741     O
H       0.8931   0.1915   0.3437     H
H       0.8931   0.8085   0.8437     H
C      0.90116  0.43571   0.9031     C
C      0.90116  0.56429   0.4031     C
N      0.90393  0.27256  0.37204     N
N      0.90393  0.72744  0.87204     N
H       0.9051   0.1606   0.5461     H
H       0.9051   0.8394   0.0461     H
N      0.90687  0.37745  0.89286     N
N      0.90687  0.62255  0.39286     N
C      0.90804   0.1705   0.5961     C
C      0.90804   0.8295   0.0961     C
C       0.9131   0.2252   0.3367     C
C       0.9131   0.7748   0.8367     C
C      0.91811   0.1964   0.7409     C
C      0.91811   0.8036   0.2409     C
H       0.9196   0.2052   0.7908     H
H       0.9196   0.7948   0.2908     H
O      0.92438   0.3011  0.51953     O
O      0.92438   0.6989  0.01953     O
C      0.92824  0.32993   0.5792     C
C      0.92824  0.67007   0.0792     C
H       0.9289   0.3543   0.3844     H
H       0.9289   0.6457   0.8844     H
C        0.934   0.3202     0.36     C
C        0.934   0.6798     0.86     C
O      0.94174  0.46511  0.94194     O
O      0.94174  0.53489  0.44194     O
C       0.9511   0.2235   0.2897     C
C       0.9511   0.7765   0.7897     C
H        0.957   0.1886   0.2674     H
H        0.957   0.8114   0.7674     H
H       0.9591     0.31   0.9419     H
H       0.9591     0.69   0.4419     H
C      0.96433   0.1691   0.6474     C
C      0.96433   0.8309   0.1474     C
C      0.96574  0.35017    0.931     C
C      0.96574  0.64983    0.431     C
C      0.97016  0.18166   0.7225     C
C      0.97016  0.81834   0.2225     C
C       0.9722   0.3203    0.313     C
C       0.9722   0.6797    0.813     C
C       0.9799   0.2711   0.2753     C
C       0.9799   0.7289   0.7753     C
H       0.9832   0.3697   0.9785     H
H       0.9832   0.6303   0.4785     H
H       0.9868   0.3933    0.632     H
H       0.9868   0.6067    0.132     H
C      0.99061   0.3533   0.6179     C
C      0.99061   0.6467   0.1179     C
H       0.9926    0.354    0.307     H
H       0.9926    0.646    0.807     H
H       0.9928   0.3315   0.8361     H
H       0.9928   0.6685   0.3361     H
H       0.9984   0.1596   0.6314     H
H       0.9984   0.8404   0.1314     H
