data_I
_chemical_name_common  '/home/zhangsd/repos/MofS-CGCNN/ML/data/TSD/clean_cifs/KUGCOF_clean'
_cell_length_a 10.31800
_cell_length_b 10.98100
_cell_length_c  7.06600
_cell_angle_alpha 90.00000
_cell_angle_beta  90.00000
_cell_angle_gamma 90.00000
_space_group_name_H-M_alt      'P 1'


loop_
_space_group_symop_operation_xyz
  'x, y, z' 

loop_
_atom_site_label
_atom_site_fract_x
_atom_site_fract_y
_atom_site_fract_z
_atom_site_type_symbol
O       0.0098   0.0146   0.7728     O
O       0.0098   0.4854   0.2272     O
O       0.0544   0.2314   0.7775     O
O       0.0544   0.2686   0.2225     O
S      0.09606  0.11115  0.69028     S
S      0.09606  0.38885  0.30972     S
Cu     0.09834  0.10849  0.38541    Cu
Cu     0.09834  0.39151  0.61459    Cu
O        0.229   0.0916   0.7799     O
O        0.229   0.4084   0.2201     O
Cd        0.25     0.25      0.0    Cd
O        0.271   0.0916   0.2201     O
O        0.271   0.4084   0.7799     O
Cu     0.40166  0.10849  0.61459    Cu
Cu     0.40166  0.39151  0.38541    Cu
S      0.40394  0.11115  0.30972     S
S      0.40394  0.38885  0.69028     S
O       0.4456   0.2314   0.2225     O
O       0.4456   0.2686   0.7775     O
O       0.4902   0.0146   0.2272     O
O       0.4902   0.4854   0.7728     O
O       0.5098   0.5146   0.2272     O
O       0.5098   0.9854   0.7728     O
O       0.5544   0.7314   0.2225     O
O       0.5544   0.7686   0.7775     O
S      0.59606  0.61115  0.30972     S
S      0.59606  0.88885  0.69028     S
Cu     0.59834  0.60849  0.61459    Cu
Cu     0.59834  0.89151  0.38541    Cu
O        0.729   0.5916   0.2201     O
O        0.729   0.9084   0.7799     O
Cd        0.75     0.75      0.0    Cd
O        0.771   0.5916   0.7799     O
O        0.771   0.9084   0.2201     O
Cu     0.90166  0.60849  0.38541    Cu
Cu     0.90166  0.89151  0.61459    Cu
S      0.90394  0.61115  0.69028     S
S      0.90394  0.88885  0.30972     S
O       0.9456   0.7314   0.7775     O
O       0.9456   0.7686   0.2225     O
O       0.9902   0.5146   0.7728     O
O       0.9902   0.9854   0.2272     O
