data_I
_chemical_name_common  '/home/zhangsd/repos/MofS-CGCNN/ML/data/TSD/clean_cifs/KUHNIM_clean'
_cell_length_a 19.57600
_cell_length_b 18.53500
_cell_length_c  7.83770
_cell_angle_alpha 90.00000
_cell_angle_beta  94.15000
_cell_angle_gamma 90.00000
_space_group_name_H-M_alt      'P 1'


loop_
_space_group_symop_operation_xyz
  'x, y, z' 

loop_
_atom_site_label
_atom_site_fract_x
_atom_site_fract_y
_atom_site_fract_z
_atom_site_type_symbol
H       0.0034   0.1888   0.0608     H
H       0.0034   0.8112   0.5608     H
C       0.0152   0.3217    0.529     C
C       0.0152   0.6783    0.029     C
O        0.018   0.3905   0.5202     O
O        0.018   0.6095   0.0202     O
C       0.0455    0.212    0.076     C
C       0.0455    0.788    0.576     C
C       0.0471   0.2788    0.029     C
C       0.0471   0.7212    0.529     C
O       0.0656   0.2821   0.5755     O
O       0.0656   0.7179   0.0755     O
O       0.0776   0.0441   0.1063     O
O       0.0776   0.9559   0.6063     O
Zn      0.0859  0.02328   0.8657    Zn
Zn      0.0859  0.97672   0.3657    Zn
O       0.0895   0.0887    0.363     O
O       0.0895   0.9113    0.863     O
C       0.0906    0.095    0.217     C
C       0.0906    0.905    0.717     C
C        0.102   0.1692    0.149     C
C        0.102   0.8308    0.649     C
C       0.1125   0.3174    0.053     C
C       0.1125   0.6826    0.553     C
O       0.1176   0.4117   0.8465     O
O       0.1176   0.5883   0.3465     O
C       0.1226   0.3966    0.003     C
C       0.1226   0.6034    0.503     C
O       0.1319    0.439   0.1107     O
O       0.1319    0.561   0.6107     O
Zn      0.1416  0.35517   0.6433    Zn
Zn      0.1416  0.64483   0.1433    Zn
C       0.1606   0.2056    0.157     C
C       0.1606   0.7944    0.657     C
C       0.1681   0.2802    0.116     C
C       0.1681   0.7198    0.616     C
H       0.2105   0.3028   0.1336     H
H       0.2105   0.6972   0.6336     H
O       0.2189   0.2951   0.7184     O
O       0.2189   0.7049   0.2184     O
O       0.2271   0.1043   0.2035     O
O       0.2271   0.8957   0.7035     O
C       0.2277   0.1631    0.219     C
C       0.2277   0.8369    0.719     C
C       0.2723   0.3369    0.781     C
C       0.2723   0.6631    0.281     C
O       0.2729   0.3957   0.7965     O
O       0.2729   0.6043   0.2965     O
O       0.2811   0.2049   0.2816     O
O       0.2811   0.7951   0.7816     O
H       0.2895   0.1972   0.8664     H
H       0.2895   0.8028   0.3664     H
C       0.3319   0.2198    0.884     C
C       0.3319   0.7802    0.384     C
C       0.3394   0.2944    0.843     C
C       0.3394   0.7056    0.343     C
Zn      0.3584  0.14483   0.3567    Zn
Zn      0.3584  0.85517   0.8567    Zn
O       0.3681    0.061   0.8893     O
O       0.3681    0.939   0.3893     O
C       0.3774   0.1034    0.997     C
C       0.3774   0.8966    0.497     C
O       0.3824   0.0883   0.1535     O
O       0.3824   0.9117   0.6535     O
C       0.3875   0.1826    0.947     C
C       0.3875   0.8174    0.447     C
C        0.398   0.3308    0.851     C
C        0.398   0.6692    0.351     C
C       0.4094    0.405    0.783     C
C       0.4094    0.595    0.283     C
O       0.4105   0.4113    0.637     O
O       0.4105   0.5887    0.137     O
Zn      0.4141  0.47672   0.1343    Zn
Zn      0.4141  0.52328   0.6343    Zn
O       0.4224   0.4559   0.8937     O
O       0.4224   0.5441   0.3937     O
O       0.4344   0.2179   0.4245     O
O       0.4344   0.7821   0.9245     O
C       0.4529   0.2212    0.971     C
C       0.4529   0.7788    0.471     C
C       0.4545    0.288    0.924     C
C       0.4545    0.712    0.424     C
O        0.482   0.1095   0.4798     O
O        0.482   0.8905   0.9798     O
C       0.4848   0.1783    0.471     C
C       0.4848   0.8217    0.971     C
H       0.4966   0.3112   0.9392     H
H       0.4966   0.6888   0.4392     H
H       0.5034   0.3112   0.5608     H
H       0.5034   0.6888   0.0608     H
C       0.5152   0.1783    0.029     C
C       0.5152   0.8217    0.529     C
O        0.518   0.1095   0.0202     O
O        0.518   0.8905   0.5202     O
C       0.5455    0.288    0.576     C
C       0.5455    0.712    0.076     C
C       0.5471   0.2212    0.529     C
C       0.5471   0.7788    0.029     C
O       0.5656   0.2179   0.0755     O
O       0.5656   0.7821   0.5755     O
O       0.5776   0.4559   0.6063     O
O       0.5776   0.5441   0.1063     O
Zn      0.5859  0.47672   0.3657    Zn
Zn      0.5859  0.52328   0.8657    Zn
O       0.5895   0.4113    0.863     O
O       0.5895   0.5887    0.363     O
C       0.5906    0.405    0.717     C
C       0.5906    0.595    0.217     C
C        0.602   0.3308    0.649     C
C        0.602   0.6692    0.149     C
C       0.6125   0.1826    0.553     C
C       0.6125   0.8174    0.053     C
O       0.6176   0.0883   0.3465     O
O       0.6176   0.9117   0.8465     O
C       0.6226   0.1034    0.503     C
C       0.6226   0.8966    0.003     C
O       0.6319    0.061   0.6107     O
O       0.6319    0.939   0.1107     O
Zn      0.6416  0.14483   0.1433    Zn
Zn      0.6416  0.85517   0.6433    Zn
C       0.6606   0.2944    0.657     C
C       0.6606   0.7056    0.157     C
C       0.6681   0.2198    0.616     C
C       0.6681   0.7802    0.116     C
H       0.7105   0.1972   0.6336     H
H       0.7105   0.8028   0.1336     H
O       0.7189   0.2049   0.2184     O
O       0.7189   0.7951   0.7184     O
O       0.7271   0.3957   0.7035     O
O       0.7271   0.6043   0.2035     O
C       0.7277   0.3369    0.719     C
C       0.7277   0.6631    0.219     C
C       0.7723   0.1631    0.281     C
C       0.7723   0.8369    0.781     C
O       0.7729   0.1043   0.2965     O
O       0.7729   0.8957   0.7965     O
O       0.7811   0.2951   0.7816     O
O       0.7811   0.7049   0.2816     O
H       0.7895   0.3028   0.3664     H
H       0.7895   0.6972   0.8664     H
C       0.8319   0.2802    0.384     C
C       0.8319   0.7198    0.884     C
C       0.8394   0.2056    0.343     C
C       0.8394   0.7944    0.843     C
Zn      0.8584  0.35517   0.8567    Zn
Zn      0.8584  0.64483   0.3567    Zn
O       0.8681    0.439   0.3893     O
O       0.8681    0.561   0.8893     O
C       0.8774   0.3966    0.497     C
C       0.8774   0.6034    0.997     C
O       0.8824   0.4117   0.6535     O
O       0.8824   0.5883   0.1535     O
C       0.8875   0.3174    0.447     C
C       0.8875   0.6826    0.947     C
C        0.898   0.1692    0.351     C
C        0.898   0.8308    0.851     C
C       0.9094    0.095    0.283     C
C       0.9094    0.905    0.783     C
O       0.9105   0.0887    0.137     O
O       0.9105   0.9113    0.637     O
Zn      0.9141  0.02328   0.6343    Zn
Zn      0.9141  0.97672   0.1343    Zn
O       0.9224   0.0441   0.3937     O
O       0.9224   0.9559   0.8937     O
O       0.9344   0.2821   0.9245     O
O       0.9344   0.7179   0.4245     O
C       0.9529   0.2788    0.471     C
C       0.9529   0.7212    0.971     C
C       0.9545    0.212    0.424     C
C       0.9545    0.788    0.924     C
O        0.982   0.3905   0.9798     O
O        0.982   0.6095   0.4798     O
C       0.9848   0.3217    0.971     C
C       0.9848   0.6783    0.471     C
H       0.9966   0.1888   0.4392     H
H       0.9966   0.8112   0.9392     H
