data_I
_chemical_name_common  '/home/zhangsd/repos/MofS-CGCNN/ML/data/TSD/clean_cifs/KULZEY_clean'
_cell_length_a 46.33000
_cell_length_b 10.72700
_cell_length_c 23.71400
_cell_angle_alpha 90.00000
_cell_angle_beta  95.87200
_cell_angle_gamma 90.00000
_space_group_name_H-M_alt      'P 1'


loop_
_space_group_symop_operation_xyz
  'x, y, z' 

loop_
_atom_site_label
_atom_site_fract_x
_atom_site_fract_y
_atom_site_fract_z
_atom_site_type_symbol
Co     0.00854  0.33105  0.06911    Co
Co     0.00854  0.66895  0.56911    Co
H       0.0098   0.2214   0.9514     H
H       0.0098   0.7786   0.4514     H
O      0.01111  0.44845  0.83579     O
O      0.01111  0.55155  0.33579     O
O        0.019  0.18032  0.45697     O
O        0.019  0.81968  0.95697     O
O      0.02237  0.37051  0.37707     O
O      0.02237  0.62949  0.87707     O
H       0.0226   0.0646   0.0944     H
H       0.0226   0.9354   0.5944     H
C      0.02777   0.4633  0.34753     C
C      0.02777   0.5367  0.84753     C
O      0.02868  0.35876   0.5003     O
O      0.02868  0.64124   0.0003     O
C      0.02922   0.2446  0.95765     C
C      0.02922   0.7554  0.45765     C
C      0.03384   0.1009  0.12481     C
C      0.03384   0.8991  0.62481     C
N      0.03426   0.2226  0.12791     N
N      0.03426   0.7774  0.62791     N
C      0.03464   0.2458  0.49238     C
C      0.03464   0.7542  0.99238     C
N      0.03733   0.3085  0.00475     N
N      0.03733   0.6915  0.50475     N
H       0.0398   0.1641   0.8861     H
H       0.0398   0.8359   0.3861     H
H       0.0468   0.0633   0.6601     H
H       0.0468   0.9367   0.1601     H
C      0.04689     0.21  0.91776     C
C      0.04689     0.79  0.41776     C
C      0.04889   0.0227  0.16342     C
C      0.04889   0.9773  0.66342     C
H       0.0489   0.4225   0.7597     H
H       0.0489   0.5775   0.2597     H
C      0.05143   0.2692  0.17036     C
C      0.05143   0.7308  0.67036     C
H       0.0525   0.3555   0.1735     H
H       0.0525   0.6445   0.6735     H
C      0.05714    0.461  0.32581     C
C      0.05714    0.539  0.82581     C
H       0.0576    0.027   0.4797     H
H       0.0576    0.973   0.9797     H
C      0.06031    0.186  0.52559     C
C      0.06031    0.814  0.02559     C
C      0.06316   0.4729   0.7782     C
C      0.06316   0.5271   0.2782     C
C      0.06505    0.346  0.01022     C
C      0.06505    0.654  0.51022     C
C      0.06705   0.0733  0.20704     C
C      0.06705   0.9267  0.70704     C
C      0.06763   0.0657  0.51098     C
C      0.06763   0.9343  0.01098     C
C      0.06783   0.1998  0.21029     C
C      0.06783   0.8002  0.71029     C
H       0.0713   0.3261   0.5788     H
H       0.0713   0.3949   0.0415     H
H       0.0713   0.6051   0.5415     H
H       0.0713   0.6739   0.0788     H
H       0.0737   0.1549   0.8205     H
H       0.0737   0.8451   0.3205     H
H       0.0755   0.3447   0.3853     H
H       0.0755   0.6553   0.8853     H
C      0.07558   0.2441  0.57023     C
C      0.07558   0.7559  0.07023     C
C      0.07587   0.2458  0.92607     C
C      0.07587   0.7542  0.42607     C
H       0.0773    0.051   0.8673     H
H       0.0773    0.949   0.3673     H
C      0.07906     0.39  0.35334     C
C      0.07906     0.61  0.85334     C
H       0.0794    0.239   0.2394     H
H       0.0794    0.761   0.7394     H
O      0.08142  0.00738  0.74222     O
O      0.08142  0.99262  0.24222     O
C      0.08454   0.3177  0.97365     C
C      0.08454   0.6823  0.47365     C
C      0.08723    0.118  0.84971     C
C      0.08723    0.882  0.34971     C
C      0.08975   0.0032  0.54283     C
C      0.08975   0.9968  0.04283     C
C      0.08998   0.4803  0.75759     C
C      0.08998   0.5197  0.25759     C
H       0.0916   0.1023   0.3086     H
H       0.0916   0.8977   0.8086     H
H       0.0935   0.4373   0.7249     H
H       0.0935   0.5627   0.2249     H
H        0.095    0.077    0.033     H
H        0.095    0.923    0.533     H
O      0.09613  0.21119  0.89189     O
O      0.09613  0.78881  0.39189     O
C      0.09749   0.1817  0.60282     C
C      0.09749   0.8183  0.10282     C
C      0.10135   0.0427  0.28628     C
C      0.10135   0.9573  0.78628     C
H       0.1036    0.346   0.9802     H
H       0.1036    0.654   0.4802     H
C      0.10372   0.0617  0.58893     C
C      0.10372   0.9383  0.08893     C
C      0.10625   0.3852   0.3342     C
C      0.10625   0.6148   0.8342     C
H       0.1078   0.2208   0.6336     H
H       0.1078   0.7792   0.1336     H
C      0.11142   0.4475  0.28616     C
C      0.11142   0.5525  0.78616     C
H       0.1124   0.1989   0.7601     H
H       0.1124   0.8011   0.2601     H
C      0.11279   0.0652  0.82289     C
C      0.11279   0.9348  0.32289     C
H       0.1172   0.0847   0.2703     H
H       0.1172   0.9153   0.7703     H
H       0.1176   0.2504   0.4667     H
H       0.1176   0.7496   0.9667     H
H        0.121   0.3394   0.3541     H
H        0.121   0.6606   0.8541     H
H       0.1235   0.2265   0.1558     H
H       0.1235   0.7735   0.6558     H
O      0.12382  0.00029  0.62674     O
O      0.12382  0.99971  0.12674     O
O      0.12621  0.07824  0.40072     O
O      0.12621  0.92176  0.90072     O
C      0.12668   0.1631  0.78835     C
C      0.12668   0.8369  0.28835     C
H        0.135   0.2294   0.8127     H
H        0.135   0.7706   0.3127     H
C       0.1361   0.2131  0.12834     C
C       0.1361   0.7869  0.62834     C
C      0.13647    0.021   0.8678     C
C      0.13647    0.979   0.3678     C
O      0.13676   0.4398  0.26075     O
O      0.13676   0.5602  0.76075     O
C      0.13705   0.2269  0.47039     C
C      0.13705   0.7731  0.97039     C
C      0.13849   0.1004    0.105     C
C      0.13849   0.8996    0.605     C
H       0.1427   0.0901   0.8925     H
H       0.1427   0.9099   0.3925     H
C      0.14606   0.1333  0.43777     C
C      0.14606   0.8667  0.93777     C
O       0.1487   0.1007  0.76183     O
O       0.1487   0.8993  0.26183     O
H       0.1488   0.3387   0.7323     H
H       0.1488   0.6613   0.2323     H
H       0.1497   0.3506   0.5308     H
H       0.1497   0.6494   0.0308     H
H       0.1517   0.3884   0.1265     H
H       0.1517   0.6116   0.6265     H
C      0.15299   0.3098  0.11039     C
C      0.15299   0.6902  0.61039     C
H       0.1531   0.0074   0.3495     H
H       0.1531   0.9926   0.8495     H
C      0.15653   0.2873  0.50885     C
C      0.15653   0.7127  0.00885     C
C      0.15677   0.0794   0.0653     C
C      0.15677   0.9206   0.5653     C
H       0.1585   0.0004   0.5508     H
H       0.1585   0.9996   0.0508     H
H       0.1601   0.2285   0.2486     H
H       0.1601   0.7715   0.7486     H
C      0.16083    0.288  0.71318     C
C      0.16083    0.712  0.21318     C
C      0.16086   0.3884  0.29298     C
C      0.16086   0.6116  0.79298     C
C      0.16326   0.1627  0.72508     C
C      0.16326   0.8373  0.22508     C
H       0.1684   0.4684   0.8459     H
H       0.1684   0.5316   0.3459     H
C      0.17028    0.273  0.27788     C
C      0.17028    0.727  0.77788     C
C      0.17133   0.2916  0.06969     C
C      0.17133   0.7084  0.56969     C
C      0.17274   0.1749  0.04632     C
C      0.17274   0.8251  0.54632     C
C      0.17467   0.1007  0.44502     C
C      0.17467   0.8993  0.94502     C
H        0.175   0.4217   0.6646     H
H        0.175   0.5783   0.1646     H
C      0.17515    0.454  0.33565     C
C      0.17515    0.546  0.83565     C
C      0.17679   0.3368  0.67204     C
C      0.17679   0.6632  0.17204     C
H       0.1818   0.0364   0.4241     H
H       0.1818   0.9636   0.9241     H
C      0.18213   0.0934  0.69552     C
C      0.18213   0.9066  0.19552     C
H       0.1846   0.1609   0.0176     H
H       0.1846   0.8391   0.5176     H
N      0.18474   0.2594  0.51605     N
N      0.18474   0.7406  0.01605     N
H       0.1848   0.0086   0.7025     H
H       0.1848   0.9914   0.2025     H
C      0.18973   0.3966  0.05113     C
C      0.18973   0.6034  0.55113     C
O      0.19182  0.49173  0.08136     O
O      0.19182  0.50827  0.58136     O
C      0.19254    0.166   0.4843     C
C      0.19254    0.834   0.9843     C
N      0.19441   0.2717  0.64228     N
N      0.19441   0.7283  0.14228     N
C      0.19517   0.2236  0.30698     C
C      0.19517   0.7764  0.80698     C
C      0.19675   0.1537  0.65546     C
C      0.19675   0.8463  0.15546     C
C      0.20048   0.4022  0.36419     C
C      0.20048   0.5978  0.86419     C
H       0.2016   0.1451   0.2973     H
H       0.2016   0.8549   0.7973     H
O      0.20181   0.3809  0.00707     O
O      0.20181   0.6191  0.50707     O
H       0.2094   0.1061   0.6362     H
H       0.2094   0.8939   0.1362     H
C      0.21044   0.2895  0.34996     C
C      0.21044   0.7105  0.84996     C
H       0.2106   0.4467   0.3936     H
H       0.2106   0.5533   0.8936     H
H        0.212   0.1426   0.4891     H
H        0.212   0.8574   0.9891     H
Co      0.2149  0.34836  0.57469    Co
Co      0.2149  0.65164  0.07469    Co
C      0.23768   0.2374  0.37988     C
C      0.23768   0.7626  0.87988     C
O      0.24628  0.13046  0.36585     O
O      0.24628  0.86954  0.86585     O
O      0.24815  0.20193  0.58169     O
O      0.24815  0.79807  0.08169     O
O      0.25185  0.29807  0.41831     O
O      0.25185  0.70193  0.91831     O
O      0.25372  0.36954  0.63415     O
O      0.25372  0.63046  0.13415     O
C      0.26232   0.2626  0.62012     C
C      0.26232   0.7374  0.12012     C
Co      0.2851  0.15164  0.42531    Co
Co      0.2851  0.84836  0.92531    Co
H        0.288   0.3574   0.5109     H
H        0.288   0.6426   0.0109     H
H       0.2894   0.0533   0.6064     H
H       0.2894   0.9467   0.1064     H
C      0.28956   0.2105  0.65004     C
C      0.28956   0.7895  0.15004     C
H       0.2906   0.3939   0.3638     H
H       0.2906   0.6061   0.8638     H
O      0.29819   0.1191  0.99293     O
O      0.29819   0.8809  0.49293     O
H       0.2984   0.3549   0.7027     H
H       0.2984   0.6451   0.2027     H
C      0.29952   0.0978  0.63581     C
C      0.29952   0.9022  0.13581     C
C      0.30325   0.3463  0.34454     C
C      0.30325   0.6537  0.84454     C
C      0.30483   0.2764  0.69302     C
C      0.30483   0.7236  0.19302     C
N      0.30559   0.2283  0.35772     N
N      0.30559   0.7717  0.85772     N
C      0.30746    0.334   0.5157     C
C      0.30746    0.666   0.0157     C
O      0.30818  0.00827  0.91864     O
O      0.30818  0.99173  0.41864     O
C      0.31027   0.1034  0.94887     C
C      0.31027   0.8966  0.44887     C
H       0.3152   0.4914   0.2975     H
H       0.3152   0.5086   0.7975     H
N      0.31526   0.2406  0.48395     N
N      0.31526   0.7594  0.98395     N
H       0.3154   0.3391   0.9824     H
H       0.3154   0.6609   0.4824     H
C      0.31787   0.4066  0.30448     C
C      0.31787   0.5934  0.80448     C
H       0.3182   0.4636   0.5759     H
H       0.3182   0.5364   0.0759     H
C      0.32321   0.1632  0.32796     C
C      0.32321   0.8368  0.82796     C
C      0.32485    0.046  0.66435     C
C      0.32485    0.954  0.16435     C
H        0.325   0.0783   0.3354     H
H        0.325   0.9217   0.8354     H
C      0.32533   0.3993  0.55498     C
C      0.32533   0.6007  0.05498     C
C      0.32726   0.3251  0.95368     C
C      0.32726   0.6749  0.45368     C
C      0.32867   0.2084  0.93031     C
C      0.32867   0.7916  0.43031     C
C      0.32972    0.227  0.72212     C
C      0.32972    0.773  0.22212     C
H       0.3316   0.0316   0.1541     H
H       0.3316   0.9684   0.6541     H
C      0.33674   0.3373  0.27492     C
C      0.33674   0.6627  0.77492     C
C      0.33914   0.1116  0.70702     C
C      0.33914   0.8884  0.20702     C
C      0.33917    0.212  0.28682     C
C      0.33917    0.788  0.78682     C
H       0.3399   0.2715   0.7514     H
H       0.3399   0.7285   0.2514     H
H       0.3415   0.4996   0.4492     H
H       0.3415   0.5004   0.9492     H
C      0.34323   0.4206   0.9347     C
C      0.34323   0.5794   0.4347     C
C      0.34347   0.2127  0.49115     C
C      0.34347   0.7873  0.99115     C
H       0.3469   0.4926   0.6505     H
H       0.3469   0.5074   0.1505     H
C      0.34701   0.1902  0.88961     C
C      0.34701   0.8098  0.38961     C
H       0.3483   0.1116   0.8735     H
H       0.3483   0.8884   0.3735     H
H       0.3503   0.1494   0.4692     H
H       0.3503   0.8506   0.9692     H
H       0.3512   0.1613   0.2677     H
H       0.3512   0.8387   0.7677     H
O       0.3513   0.3993  0.23817     O
O       0.3513   0.6007  0.73817     O
C      0.35394   0.3667  0.56223     C
C      0.35394   0.6333  0.06223     C
H       0.3573   0.4099   0.1075     H
H       0.3573   0.5901   0.6075     H
C      0.36151   0.3996    0.895     C
C      0.36151   0.6004    0.395     C
C      0.36295   0.2731  0.52961     C
C      0.36295   0.7269  0.02961     C
O      0.36324   0.0602  0.73925     O
O      0.36324   0.9398  0.23925     O
C      0.36353    0.479   0.1322     C
C      0.36353    0.521   0.6322     C
C       0.3639   0.2869  0.87166     C
C       0.3639   0.7131  0.37166     C
H        0.365   0.2706   0.1873     H
H        0.365   0.7294   0.6873     H
C      0.37332   0.3369  0.21165     C
C      0.37332   0.6631  0.71165     C
O      0.37379  0.42176  0.59928     O
O      0.37379  0.57824  0.09928     O
O      0.37618  0.49971  0.37326     O
O      0.37618  0.50029  0.87326     O
H       0.3765   0.2735   0.8442     H
H       0.3765   0.7265   0.3442     H
H        0.379   0.1606   0.6459     H
H        0.379   0.8394   0.1459     H
H       0.3824   0.2496   0.5333     H
H       0.3824   0.7504   0.0333     H
H       0.3828   0.4153   0.7297     H
H       0.3828   0.5847   0.2297     H
C      0.38721   0.4348  0.17711     C
C      0.38721   0.5652  0.67711     C
H       0.3876   0.3011   0.2399     H
H       0.3876   0.6989   0.7399     H
C      0.38858   0.0525  0.71384     C
C      0.38858   0.9475  0.21384     C
H       0.3922   0.2792   0.3664     H
H       0.3922   0.7208   0.8664     H
C      0.39375   0.1148   0.6658     C
C      0.39375   0.8852   0.1658     C
C      0.39628   0.4383  0.41107     C
C      0.39628   0.5617  0.91107     C
H       0.3964    0.154   0.0198     H
H       0.3964    0.846   0.5198     H
C      0.39865   0.4573  0.71372     C
C      0.39865   0.5427  0.21372     C
C      0.40251   0.3183  0.39718     C
C      0.40251   0.6817  0.89718     C
O      0.40387  0.28881  0.10811     O
O      0.40387  0.71119  0.60811     O
H        0.405    0.423    0.967     H
H        0.405    0.577    0.467     H
H       0.4065   0.0627   0.2751     H
H       0.4065   0.9373   0.7751     H
H       0.4084   0.3977   0.6914     H
H       0.4084   0.6023   0.1914     H
C      0.41002   0.0197  0.24241     C
C      0.41002   0.9803  0.74241     C
C      0.41025   0.4968  0.45717     C
C      0.41025   0.5032  0.95717     C
C      0.41277    0.382  0.15029     C
C      0.41277    0.618  0.65029     C
C      0.41546   0.1823  0.02635     C
C      0.41546   0.8177  0.52635     C
O      0.41858  0.49262  0.25778     O
O      0.41858  0.50738  0.75778     O
H       0.4206    0.261   0.7606     H
H       0.4206    0.739   0.2606     H
C      0.42094     0.11  0.64666     C
C      0.42094     0.89  0.14666     C
H       0.4227    0.449   0.1327     H
H       0.4227    0.551   0.6327     H
C      0.42413   0.2542  0.07393     C
C      0.42413   0.7458  0.57393     C
C      0.42442   0.2559  0.42977     C
C      0.42442   0.7441  0.92977     C
H       0.4245   0.1553   0.6147     H
H       0.4245   0.8447   0.1147     H
H       0.4263   0.3451   0.1795     H
H       0.4263   0.6549   0.6795     H
H       0.4287   0.1051   0.9585     H
H       0.4287   0.1739   0.4212     H
H       0.4287   0.8261   0.9212     H
H       0.4287   0.8949   0.4585     H
C      0.43217   0.3002  0.78971     C
C      0.43217   0.6998  0.28971     C
C      0.43237   0.4343  0.48902     C
C      0.43237   0.5657  0.98902     C
C      0.43295   0.4267  0.79296     C
C      0.43295   0.5733  0.29296     C
C      0.43495    0.154  0.98978     C
C      0.43495    0.846  0.48978     C
C      0.43684   0.0271   0.2218     C
C      0.43684   0.9729   0.7218     C
C      0.43969    0.314  0.47441     C
C      0.43969    0.686  0.97441     C
H       0.4424    0.473   0.5203     H
H       0.4424    0.527   0.0203     H
C      0.44286    0.039  0.67419     C
C      0.44286    0.961  0.17419     C
H       0.4475   0.1445   0.8265     H
H       0.4475   0.8555   0.3265     H
C      0.44857   0.2308  0.82964     C
C      0.44857   0.7692  0.32964     C
H       0.4511   0.0775   0.2403     H
H       0.4511   0.9225   0.7403     H
C      0.45111   0.4773  0.83658     C
C      0.45111   0.5227  0.33658     C
C      0.45311     0.29  0.08224     C
C      0.45311     0.71  0.58224     C
H       0.4532   0.4367   0.3399     H
H       0.4532   0.5633   0.8399     H
H       0.4602   0.3359   0.1139     H
H       0.4602   0.6641   0.6139     H
N      0.46267   0.1915  0.99525     N
N      0.46267   0.8085  0.49525     N
C      0.46536   0.2542  0.50762     C
C      0.46536   0.7458  0.00762     C
N      0.46574   0.2774  0.87209     N
N      0.46574   0.7226  0.37209     N
C      0.46616   0.3991  0.87519     C
C      0.46616   0.6009  0.37519     C
C      0.47078   0.2554  0.04235     C
C      0.47078   0.7446  0.54235     C
O      0.47132  0.14124   0.4997     O
O      0.47132  0.85876   0.9997     O
C      0.47223   0.0367  0.65247     C
C      0.47223   0.9633  0.15247     C
H       0.4774   0.4354   0.9056     H
H       0.4774   0.5646   0.4056     H
O      0.47763  0.12949  0.62293     O
O      0.47763  0.87051  0.12293     O
O        0.481  0.31968  0.54303     O
O        0.481  0.68032  0.04303     O
O      0.48889  0.05155  0.16421     O
O      0.48889  0.94845  0.66421     O
H       0.4902   0.2786   0.0486     H
H       0.4902   0.7214   0.5486     H
Co     0.49146  0.16895  0.93089    Co
Co     0.49146  0.83105  0.43089    Co
Co     0.50854  0.16895  0.56911    Co
Co     0.50854  0.83105  0.06911    Co
H       0.5098   0.2786   0.4514     H
H       0.5098   0.7214   0.9514     H
O      0.51111  0.05155  0.33579     O
O      0.51111  0.94845  0.83579     O
O        0.519  0.31968  0.95697     O
O        0.519  0.68032  0.45697     O
O      0.52237  0.12949  0.87707     O
O      0.52237  0.87051  0.37707     O
H       0.5226   0.4354   0.5944     H
H       0.5226   0.5646   0.0944     H
C      0.52777   0.0367  0.84753     C
C      0.52777   0.9633  0.34753     C
O      0.52868  0.14124   0.0003     O
O      0.52868  0.85876   0.5003     O
C      0.52922   0.2554  0.45765     C
C      0.52922   0.7446  0.95765     C
C      0.53384   0.3991  0.62481     C
C      0.53384   0.6009  0.12481     C
N      0.53426   0.2774  0.62791     N
N      0.53426   0.7226  0.12791     N
C      0.53464   0.2542  0.99238     C
C      0.53464   0.7458  0.49238     C
N      0.53733   0.1915  0.50475     N
N      0.53733   0.8085  0.00475     N
H       0.5398   0.3359   0.3861     H
H       0.5398   0.6641   0.8861     H
H       0.5468   0.4367   0.1601     H
H       0.5468   0.5633   0.6601     H
C      0.54689     0.29  0.41776     C
C      0.54689     0.71  0.91776     C
C      0.54889   0.4773  0.66342     C
C      0.54889   0.5227  0.16342     C
H       0.5489   0.0775   0.2597     H
H       0.5489   0.9225   0.7597     H
C      0.55143   0.2308  0.67036     C
C      0.55143   0.7692  0.17036     C
H       0.5525   0.1445   0.6735     H
H       0.5525   0.8555   0.1735     H
C      0.55714    0.039  0.82581     C
C      0.55714    0.961  0.32581     C
H       0.5576    0.473   0.9797     H
H       0.5576    0.527   0.4797     H
C      0.56031    0.314  0.02559     C
C      0.56031    0.686  0.52559     C
C      0.56316   0.0271   0.2782     C
C      0.56316   0.9729   0.7782     C
C      0.56505    0.154  0.51022     C
C      0.56505    0.846  0.01022     C
C      0.56705   0.4267  0.70704     C
C      0.56705   0.5733  0.20704     C
C      0.56763   0.4343  0.01098     C
C      0.56763   0.5657  0.51098     C
C      0.56783   0.3002  0.71029     C
C      0.56783   0.6998  0.21029     C
H       0.5713   0.1051   0.5415     H
H       0.5713   0.1739   0.0788     H
H       0.5713   0.8261   0.5788     H
H       0.5713   0.8949   0.0415     H
H       0.5737   0.3451   0.3205     H
H       0.5737   0.6549   0.8205     H
H       0.5755   0.1553   0.8853     H
H       0.5755   0.8447   0.3853     H
C      0.57558   0.2559  0.07023     C
C      0.57558   0.7441  0.57023     C
C      0.57587   0.2542  0.42607     C
C      0.57587   0.7458  0.92607     C
H       0.5773    0.449   0.3673     H
H       0.5773    0.551   0.8673     H
C      0.57906     0.11  0.85334     C
C      0.57906     0.89  0.35334     C
H       0.5794    0.261   0.7394     H
H       0.5794    0.739   0.2394     H
O      0.58142  0.49262  0.24222     O
O      0.58142  0.50738  0.74222     O
C      0.58454   0.1823  0.47365     C
C      0.58454   0.8177  0.97365     C
C      0.58723    0.382  0.34971     C
C      0.58723    0.618  0.84971     C
C      0.58975   0.4968  0.04283     C
C      0.58975   0.5032  0.54283     C
C      0.58998   0.0197  0.25759     C
C      0.58998   0.9803  0.75759     C
H       0.5916   0.3977   0.8086     H
H       0.5916   0.6023   0.3086     H
H       0.5935   0.0627   0.2249     H
H       0.5935   0.9373   0.7249     H
H        0.595    0.423    0.533     H
H        0.595    0.577    0.033     H
O      0.59613  0.28881  0.39189     O
O      0.59613  0.71119  0.89189     O
C      0.59749   0.3183  0.10282     C
C      0.59749   0.6817  0.60282     C
C      0.60135   0.4573  0.78628     C
C      0.60135   0.5427  0.28628     C
H       0.6036    0.154   0.4802     H
H       0.6036    0.846   0.9802     H
C      0.60372   0.4383  0.08893     C
C      0.60372   0.5617  0.58893     C
C      0.60625   0.1148   0.8342     C
C      0.60625   0.8852   0.3342     C
H       0.6078   0.2792   0.1336     H
H       0.6078   0.7208   0.6336     H
C      0.61142   0.0525  0.78616     C
C      0.61142   0.9475  0.28616     C
H       0.6124   0.3011   0.2601     H
H       0.6124   0.6989   0.7601     H
C      0.61279   0.4348  0.32289     C
C      0.61279   0.5652  0.82289     C
H       0.6172   0.4153   0.7703     H
H       0.6172   0.5847   0.2703     H
H       0.6176   0.2496   0.9667     H
H       0.6176   0.7504   0.4667     H
H        0.621   0.1606   0.8541     H
H        0.621   0.8394   0.3541     H
H       0.6235   0.2735   0.6558     H
H       0.6235   0.7265   0.1558     H
O      0.62382  0.49971  0.12674     O
O      0.62382  0.50029  0.62674     O
O      0.62621  0.42176  0.90072     O
O      0.62621  0.57824  0.40072     O
C      0.62668   0.3369  0.28835     C
C      0.62668   0.6631  0.78835     C
H        0.635   0.2706   0.3127     H
H        0.635   0.7294   0.8127     H
C       0.6361   0.2869  0.62834     C
C       0.6361   0.7131  0.12834     C
C      0.63647    0.479   0.3678     C
C      0.63647    0.521   0.8678     C
O      0.63676   0.0602  0.76075     O
O      0.63676   0.9398  0.26075     O
C      0.63705   0.2731  0.97039     C
C      0.63705   0.7269  0.47039     C
C      0.63849   0.3996    0.605     C
C      0.63849   0.6004    0.105     C
H       0.6427   0.4099   0.3925     H
H       0.6427   0.5901   0.8925     H
C      0.64606   0.3667  0.93777     C
C      0.64606   0.6333  0.43777     C
O       0.6487   0.3993  0.26183     O
O       0.6487   0.6007  0.76183     O
H       0.6488   0.1613   0.2323     H
H       0.6488   0.8387   0.7323     H
H       0.6497   0.1494   0.0308     H
H       0.6497   0.8506   0.5308     H
H       0.6517   0.1116   0.6265     H
H       0.6517   0.8884   0.1265     H
C      0.65299   0.1902  0.61039     C
C      0.65299   0.8098  0.11039     C
H       0.6531   0.4926   0.8495     H
H       0.6531   0.5074   0.3495     H
C      0.65653   0.2127  0.00885     C
C      0.65653   0.7873  0.50885     C
C      0.65677   0.4206   0.5653     C
C      0.65677   0.5794   0.0653     C
H       0.6585   0.4996   0.0508     H
H       0.6585   0.5004   0.5508     H
H       0.6601   0.2715   0.7486     H
H       0.6601   0.7285   0.2486     H
C      0.66083    0.212  0.21318     C
C      0.66083    0.788  0.71318     C
C      0.66086   0.1116  0.79298     C
C      0.66086   0.8884  0.29298     C
C      0.66326   0.3373  0.22508     C
C      0.66326   0.6627  0.72508     C
H       0.6684   0.0316   0.3459     H
H       0.6684   0.9684   0.8459     H
C      0.67028    0.227  0.77788     C
C      0.67028    0.773  0.27788     C
C      0.67133   0.2084  0.56969     C
C      0.67133   0.7916  0.06969     C
C      0.67274   0.3251  0.54632     C
C      0.67274   0.6749  0.04632     C
C      0.67467   0.3993  0.94502     C
C      0.67467   0.6007  0.44502     C
H        0.675   0.0783   0.1646     H
H        0.675   0.9217   0.6646     H
C      0.67515    0.046  0.83565     C
C      0.67515    0.954  0.33565     C
C      0.67679   0.1632  0.17204     C
C      0.67679   0.8368  0.67204     C
H       0.6818   0.4636   0.9241     H
H       0.6818   0.5364   0.4241     H
C      0.68213   0.4066  0.19552     C
C      0.68213   0.5934  0.69552     C
H       0.6846   0.3391   0.5176     H
H       0.6846   0.6609   0.0176     H
N      0.68474   0.2406  0.01605     N
N      0.68474   0.7594  0.51605     N
H       0.6848   0.4914   0.2025     H
H       0.6848   0.5086   0.7025     H
C      0.68973   0.1034  0.55113     C
C      0.68973   0.8966  0.05113     C
O      0.69182  0.00827  0.58136     O
O      0.69182  0.99173  0.08136     O
C      0.69254    0.334   0.9843     C
C      0.69254    0.666   0.4843     C
N      0.69441   0.2283  0.14228     N
N      0.69441   0.7717  0.64228     N
C      0.69517   0.2764  0.80698     C
C      0.69517   0.7236  0.30698     C
C      0.69675   0.3463  0.15546     C
C      0.69675   0.6537  0.65546     C
C      0.70048   0.0978  0.86419     C
C      0.70048   0.9022  0.36419     C
H       0.7016   0.3549   0.7973     H
H       0.7016   0.6451   0.2973     H
O      0.70181   0.1191  0.50707     O
O      0.70181   0.8809  0.00707     O
H       0.7094   0.3939   0.1362     H
H       0.7094   0.6061   0.6362     H
C      0.71044   0.2105  0.84996     C
C      0.71044   0.7895  0.34996     C
H       0.7106   0.0533   0.8936     H
H       0.7106   0.9467   0.3936     H
H        0.712   0.3574   0.9891     H
H        0.712   0.6426   0.4891     H
Co      0.7149  0.15164  0.07469    Co
Co      0.7149  0.84836  0.57469    Co
C      0.73768   0.2626  0.87988     C
C      0.73768   0.7374  0.37988     C
O      0.74628  0.36954  0.86585     O
O      0.74628  0.63046  0.36585     O
O      0.74815  0.29807  0.08169     O
O      0.74815  0.70193  0.58169     O
O      0.75185  0.20193  0.91831     O
O      0.75185  0.79807  0.41831     O
O      0.75372  0.13046  0.13415     O
O      0.75372  0.86954  0.63415     O
C      0.76232   0.2374  0.12012     C
C      0.76232   0.7626  0.62012     C
Co      0.7851  0.34836  0.92531    Co
Co      0.7851  0.65164  0.42531    Co
H        0.788   0.1426   0.0109     H
H        0.788   0.8574   0.5109     H
H       0.7894   0.4467   0.1064     H
H       0.7894   0.5533   0.6064     H
C      0.78956   0.2895  0.15004     C
C      0.78956   0.7105  0.65004     C
H       0.7906   0.1061   0.8638     H
H       0.7906   0.8939   0.3638     H
O      0.79819   0.3809  0.49293     O
O      0.79819   0.6191  0.99293     O
H       0.7984   0.1451   0.2027     H
H       0.7984   0.8549   0.7027     H
C      0.79952   0.4022  0.13581     C
C      0.79952   0.5978  0.63581     C
C      0.80325   0.1537  0.84454     C
C      0.80325   0.8463  0.34454     C
C      0.80483   0.2236  0.19302     C
C      0.80483   0.7764  0.69302     C
N      0.80559   0.2717  0.85772     N
N      0.80559   0.7283  0.35772     N
C      0.80746    0.166   0.0157     C
C      0.80746    0.834   0.5157     C
O      0.80818  0.49173  0.41864     O
O      0.80818  0.50827  0.91864     O
C      0.81027   0.3966  0.44887     C
C      0.81027   0.6034  0.94887     C
H       0.8152   0.0086   0.7975     H
H       0.8152   0.9914   0.2975     H
N      0.81526   0.2594  0.98395     N
N      0.81526   0.7406  0.48395     N
H       0.8154   0.1609   0.4824     H
H       0.8154   0.8391   0.9824     H
C      0.81787   0.0934  0.80448     C
C      0.81787   0.9066  0.30448     C
H       0.8182   0.0364   0.0759     H
H       0.8182   0.9636   0.5759     H
C      0.82321   0.3368  0.82796     C
C      0.82321   0.6632  0.32796     C
C      0.82485    0.454  0.16435     C
C      0.82485    0.546  0.66435     C
H        0.825   0.4217   0.8354     H
H        0.825   0.5783   0.3354     H
C      0.82533   0.1007  0.05498     C
C      0.82533   0.8993  0.55498     C
C      0.82726   0.1749  0.45368     C
C      0.82726   0.8251  0.95368     C
C      0.82867   0.2916  0.43031     C
C      0.82867   0.7084  0.93031     C
C      0.82972    0.273  0.22212     C
C      0.82972    0.727  0.72212     C
H       0.8316   0.4684   0.6541     H
H       0.8316   0.5316   0.1541     H
C      0.83674   0.1627  0.77492     C
C      0.83674   0.8373  0.27492     C
C      0.83914   0.3884  0.20702     C
C      0.83914   0.6116  0.70702     C
C      0.83917    0.288  0.78682     C
C      0.83917    0.712  0.28682     C
H       0.8399   0.2285   0.2514     H
H       0.8399   0.7715   0.7514     H
H       0.8415   0.0004   0.9492     H
H       0.8415   0.9996   0.4492     H
C      0.84323   0.0794   0.4347     C
C      0.84323   0.9206   0.9347     C
C      0.84347   0.2873  0.99115     C
C      0.84347   0.7127  0.49115     C
H       0.8469   0.0074   0.1505     H
H       0.8469   0.9926   0.6505     H
C      0.84701   0.3098  0.38961     C
C      0.84701   0.6902  0.88961     C
H       0.8483   0.3884   0.3735     H
H       0.8483   0.6116   0.8735     H
H       0.8503   0.3506   0.9692     H
H       0.8503   0.6494   0.4692     H
H       0.8512   0.3387   0.7677     H
H       0.8512   0.6613   0.2677     H
O       0.8513   0.1007  0.73817     O
O       0.8513   0.8993  0.23817     O
C      0.85394   0.1333  0.06223     C
C      0.85394   0.8667  0.56223     C
H       0.8573   0.0901   0.6075     H
H       0.8573   0.9099   0.1075     H
C      0.86151   0.1004    0.395     C
C      0.86151   0.8996    0.895     C
C      0.86295   0.2269  0.02961     C
C      0.86295   0.7731  0.52961     C
O      0.86324   0.4398  0.23925     O
O      0.86324   0.5602  0.73925     O
C      0.86353    0.021   0.6322     C
C      0.86353    0.979   0.1322     C
C       0.8639   0.2131  0.37166     C
C       0.8639   0.7869  0.87166     C
H        0.865   0.2294   0.6873     H
H        0.865   0.7706   0.1873     H
C      0.87332   0.1631  0.71165     C
C      0.87332   0.8369  0.21165     C
O      0.87379  0.07824  0.09928     O
O      0.87379  0.92176  0.59928     O
O      0.87618  0.00029  0.87326     O
O      0.87618  0.99971  0.37326     O
H       0.8765   0.2265   0.3442     H
H       0.8765   0.7735   0.8442     H
H        0.879   0.3394   0.1459     H
H        0.879   0.6606   0.6459     H
H       0.8824   0.2504   0.0333     H
H       0.8824   0.7496   0.5333     H
H       0.8828   0.0847   0.2297     H
H       0.8828   0.9153   0.7297     H
C      0.88721   0.0652  0.67711     C
C      0.88721   0.9348  0.17711     C
H       0.8876   0.1989   0.7399     H
H       0.8876   0.8011   0.2399     H
C      0.88858   0.4475  0.21384     C
C      0.88858   0.5525  0.71384     C
H       0.8922   0.2208   0.8664     H
H       0.8922   0.7792   0.3664     H
C      0.89375   0.3852   0.1658     C
C      0.89375   0.6148   0.6658     C
C      0.89628   0.0617  0.91107     C
C      0.89628   0.9383  0.41107     C
H       0.8964    0.346   0.5198     H
H       0.8964    0.654   0.0198     H
C      0.89865   0.0427  0.21372     C
C      0.89865   0.9573  0.71372     C
C      0.90251   0.1817  0.89718     C
C      0.90251   0.8183  0.39718     C
O      0.90387  0.21119  0.60811     O
O      0.90387  0.78881  0.10811     O
H        0.905    0.077    0.467     H
H        0.905    0.923    0.967     H
H       0.9065   0.4373   0.7751     H
H       0.9065   0.5627   0.2751     H
H       0.9084   0.1023   0.1914     H
H       0.9084   0.8977   0.6914     H
C      0.91002   0.4803  0.74241     C
C      0.91002   0.5197  0.24241     C
C      0.91025   0.0032  0.95717     C
C      0.91025   0.9968  0.45717     C
C      0.91277    0.118  0.65029     C
C      0.91277    0.882  0.15029     C
C      0.91546   0.3177  0.52635     C
C      0.91546   0.6823  0.02635     C
O      0.91858  0.00738  0.75778     O
O      0.91858  0.99262  0.25778     O
H       0.9206    0.239   0.2606     H
H       0.9206    0.761   0.7606     H
C      0.92094     0.39  0.14666     C
C      0.92094     0.61  0.64666     C
H       0.9227    0.051   0.6327     H
H       0.9227    0.949   0.1327     H
C      0.92413   0.2458  0.57393     C
C      0.92413   0.7542  0.07393     C
C      0.92442   0.2441  0.92977     C
C      0.92442   0.7559  0.42977     C
H       0.9245   0.3447   0.1147     H
H       0.9245   0.6553   0.6147     H
H       0.9263   0.1549   0.6795     H
H       0.9263   0.8451   0.1795     H
H       0.9287   0.3261   0.9212     H
H       0.9287   0.3949   0.4585     H
H       0.9287   0.6051   0.9585     H
H       0.9287   0.6739   0.4212     H
C      0.93217   0.1998  0.28971     C
C      0.93217   0.8002  0.78971     C
C      0.93237   0.0657  0.98902     C
C      0.93237   0.9343  0.48902     C
C      0.93295   0.0733  0.29296     C
C      0.93295   0.9267  0.79296     C
C      0.93495    0.346  0.48978     C
C      0.93495    0.654  0.98978     C
C      0.93684   0.4729   0.7218     C
C      0.93684   0.5271   0.2218     C
C      0.93969    0.186  0.97441     C
C      0.93969    0.814  0.47441     C
H       0.9424    0.027   0.0203     H
H       0.9424    0.973   0.5203     H
C      0.94286    0.461  0.17419     C
C      0.94286    0.539  0.67419     C
H       0.9475   0.3555   0.3265     H
H       0.9475   0.6445   0.8265     H
C      0.94857   0.2692  0.32964     C
C      0.94857   0.7308  0.82964     C
H       0.9511   0.4225   0.7403     H
H       0.9511   0.5775   0.2403     H
C      0.95111   0.0227  0.33658     C
C      0.95111   0.9773  0.83658     C
C      0.95311     0.21  0.58224     C
C      0.95311     0.79  0.08224     C
H       0.9532   0.0633   0.8399     H
H       0.9532   0.9367   0.3399     H
H       0.9602   0.1641   0.6139     H
H       0.9602   0.8359   0.1139     H
N      0.96267   0.3085  0.49525     N
N      0.96267   0.6915  0.99525     N
C      0.96536   0.2458  0.00762     C
C      0.96536   0.7542  0.50762     C
N      0.96574   0.2226  0.37209     N
N      0.96574   0.7774  0.87209     N
C      0.96616   0.1009  0.37519     C
C      0.96616   0.8991  0.87519     C
C      0.97078   0.2446  0.54235     C
C      0.97078   0.7554  0.04235     C
O      0.97132  0.35876   0.9997     O
O      0.97132  0.64124   0.4997     O
C      0.97223   0.4633  0.15247     C
C      0.97223   0.5367  0.65247     C
H       0.9774   0.0646   0.4056     H
H       0.9774   0.9354   0.9056     H
O      0.97763  0.37051  0.12293     O
O      0.97763  0.62949  0.62293     O
O        0.981  0.18032  0.04303     O
O        0.981  0.81968  0.54303     O
O      0.98889  0.44845  0.66421     O
O      0.98889  0.55155  0.16421     O
H       0.9902   0.2214   0.5486     H
H       0.9902   0.7786   0.0486     H
Co     0.99146  0.33105  0.43089    Co
Co     0.99146  0.66895  0.93089    Co
