data_I
_chemical_name_common  '/home/zhangsd/repos/MofS-CGCNN/ML/data/TSD/clean_cifs/KUMBUR_clean'
_cell_length_a 12.60800
_cell_length_b 14.21450
_cell_length_c 14.89800
_cell_angle_alpha 69.32100
_cell_angle_beta  67.50300
_cell_angle_gamma 78.32900
_space_group_name_H-M_alt      'P 1'


loop_
_space_group_symop_operation_xyz
  'x, y, z' 

loop_
_atom_site_label
_atom_site_fract_x
_atom_site_fract_y
_atom_site_fract_z
_atom_site_type_symbol
O       0.0085    0.049   0.2682     O
H       0.0278   0.9353   0.5609     H
H       0.0299   0.1885   0.6793     H
H       0.0332   0.3318   0.7145     H
O       0.0368   0.8554   0.0252     O
Tb     0.05119  0.05389  0.09337    Tb
C       0.0526   0.8689   0.7412     C
H       0.0585   0.3068   0.9654     H
O       0.0709   0.8204   0.8238     O
C       0.0776   0.8772   0.5643     C
C       0.0889   0.2311   0.6388     C
C       0.0908   0.3154   0.6595     C
C        0.098   0.8268   0.0819     C
O       0.1008   0.8759   0.1357     O
H       0.1048   0.8721   0.4228     H
C       0.1065   0.8283   0.6524     C
C       0.1229   0.8391   0.4818     C
H       0.1246   0.0768   0.5636     H
O         0.13    0.012   0.8317     O
C        0.133   0.2982   0.9668     C
H       0.1686   0.7203   0.9523     H
N       0.1689   0.2085   0.0206     N
C       0.1726   0.7303   0.0827     C
H       0.1739   0.4411   0.8761     H
C       0.1774   0.2081   0.5549     C
C        0.181   0.3786   0.5968     C
H        0.181   0.4364   0.6125     H
C       0.1812   0.7422   0.6568     C
C        0.182   0.1214   0.5254     C
C       0.1949   0.7517   0.4889     C
H       0.1956   0.7083   0.2165     H
O        0.196   0.0472   0.9351     O
C       0.2004    0.047    0.849     C
C       0.2009   0.6902   0.0035     C
H        0.202   0.7107   0.7147     H
C       0.2024   0.3801   0.9123     C
C       0.2174   0.6828   0.1619     C
H       0.2236   0.7252   0.4346     H
C       0.2257   0.7021   0.5759     C
H       0.2367   0.8835   0.2122     H
N       0.2471   0.0244   0.1255     N
H       0.2633   0.0472   0.4274     H
N       0.2648   0.3613   0.5181     N
C        0.265   0.1029   0.4456     C
C       0.2654   0.2755   0.4971     C
C       0.2775   0.6049   0.0005     C
C       0.2783   0.1976   0.0215     C
C       0.2854   0.9357    0.178     C
O       0.2875   0.5597   0.3296     O
C       0.2939   0.5983   0.1594     C
H       0.2971   0.5782    0.947     H
C       0.3002   0.0938   0.7581     C
C       0.3041   0.6071     0.58     C
O       0.3082   0.5623   0.5192     O
C       0.3094   0.3691   0.9134     C
H       0.3095   0.2104   0.8025     H
C       0.3185   0.1024   0.0771     C
H       0.3239   0.9913   0.6855     H
C       0.3251   0.5595   0.0782     C
C        0.341   0.1818   0.7496     C
C       0.3457   0.5524   0.2422     C
C       0.3525   0.2767   0.9697     C
C       0.3527   0.0485   0.6815     C
H       0.3562   0.4226   0.8768     H
C       0.3585   0.2532   0.4131     C
C       0.3587   0.1674   0.3859     C
O       0.3639   0.5818   0.6373     O
H       0.3775   0.5033   0.0756     H
C       0.3957   0.9187   0.1832     C
H       0.4047   0.7946   0.8063     H
H       0.4073   0.6641   0.7475     H
H       0.4183   0.8559   0.2215     H
H       0.4231   0.8372   0.9707     H
C       0.4292   0.2269   0.6616     C
C       0.4312   0.0868   0.0814     C
Tb     0.43554  0.48139  0.40405    Tb
O       0.4447   0.5087    0.223     O
N       0.4459   0.3152   0.3641     N
C       0.4479   0.0882   0.5992     C
C       0.4486   0.1509    0.302     C
H       0.4503   0.0965   0.2805     H
H       0.4548   0.0227   0.8645     H
H       0.4568   0.7908   0.4712     H
C       0.4649    0.785   0.7491     C
C       0.4656   0.2601   0.9752     C
C       0.4658   0.3284   0.6447     C
C       0.4683   0.7052   0.7142     C
O       0.4694   0.3956   0.5594     O
C       0.4703   0.9904   0.1345     C
C       0.4834   0.1798   0.5869     C
H       0.4858   0.6877   0.0582     H
H       0.4881   0.0534    0.552     H
O        0.493   0.3455    0.709     O
C       0.4974   0.8288   0.9726     C
C       0.5026   0.1712   0.0274     C
O        0.507   0.6545    0.291     O
H       0.5119   0.9466    0.448     H
H       0.5142   0.3123   0.9418     H
C       0.5166   0.8202   0.4131     C
C       0.5297   0.0096   0.8655     C
O       0.5306   0.6044   0.4406     O
C       0.5317   0.2948   0.2858     C
C       0.5342   0.6716   0.3553     C
C       0.5344   0.7399   0.0248     C
C       0.5351    0.215   0.2509     C
H       0.5432   0.2092   0.5288     H
H       0.5452   0.9773   0.1355     H
H       0.5497   0.9035   0.7195     H
C       0.5514   0.8491    0.698     C
C       0.5521   0.9118   0.4008     C
N       0.5541   0.6848   0.6359     N
O       0.5553   0.4913    0.777     O
Tb     0.56446  0.51861  0.59595    Tb
C       0.5688   0.9132   0.9186     C
C       0.5708   0.7731   0.3384     C
H       0.5769   0.1628   0.0293     H
H       0.5817   0.1441   0.7785     H
H       0.5927   0.3359   0.2525     H
H       0.5953   0.2054   0.1937     H
C       0.6043   0.0813   0.8168     C
H       0.6225   0.4967   0.9244     H
O       0.6361   0.4182   0.3627     O
C       0.6413   0.8326   0.6141     C
C       0.6415   0.7468   0.5869     C
H       0.6438   0.5774   0.1232     H
C       0.6473   0.9515   0.3185     C
C       0.6475   0.7233   0.0303     C
C       0.6543   0.4476   0.7578     C
C        0.659   0.8182   0.2504     C
C       0.6749   0.4405   0.9218     C
H       0.6761   0.0087   0.3145     H
C       0.6815   0.8976   0.9229     C
H       0.6905   0.7896   0.1975     H
C       0.6906   0.6309   0.0866     C
O       0.6918   0.4377   0.4808     O
C       0.6959   0.3929     0.42     C
C       0.6998   0.9062   0.2419     C
H       0.7029   0.4218    0.053     H
C       0.7061   0.4017   0.8406     C
O       0.7125   0.4403   0.6704     O
C       0.7146   0.0643    0.822     C
C       0.7217   0.8024   0.9785     C
C       0.7225   0.3951   0.9995     C
C       0.7346   0.7245   0.5029     C
C        0.735   0.8971   0.5544     C
N       0.7352   0.6387   0.4819     N
H       0.7367   0.9528   0.5726     H
N       0.7529   0.9756   0.8745     N
H       0.7633   0.1165   0.7878     H
C       0.7743   0.2979   0.4241     C
H       0.7764   0.2748   0.5654     H
C       0.7826   0.3172   0.8381     C
C       0.7976   0.6199   0.0877     C
H        0.798   0.2893   0.2853     H
C       0.7991   0.3098   0.9965     C
C       0.7996    0.953    0.151     C
O        0.804   0.9528   0.0649     O
H       0.8044   0.2917   0.7835     H
C       0.8051   0.2483   0.5111     C
C        0.818   0.8786   0.4746     C
C       0.8188   0.2578   0.3432     C
H        0.819   0.5636   0.3875     H
C        0.819   0.6214   0.4032     C
C       0.8226   0.7919   0.4451     C
H       0.8261   0.5589   0.1239     H
C       0.8274   0.2697   0.9173     C
N       0.8311   0.7915   0.9794     N
H       0.8314   0.2797   0.0477     H
C        0.867   0.7018   0.0332     C
O         0.87    0.988   0.1683     O
H       0.8754   0.9232   0.4364     H
C       0.8771   0.1609   0.5182     C
C       0.8935   0.1717   0.3476     C
H       0.8952   0.1279   0.5772     H
O       0.8992   0.1241   0.8643     O
C        0.902   0.1732   0.9181     C
C       0.9092   0.6846   0.3405     C
C       0.9111   0.7689   0.3612     C
C       0.9224   0.1228   0.4357     C
O       0.9291   0.1796   0.1762     O
H       0.9415   0.6932   0.0346     H
C       0.9474   0.1311   0.2588     C
Tb     0.94881  0.94611  0.90663    Tb
O       0.9632   0.1446   0.9748     O
H       0.9668   0.6682   0.2855     H
H       0.9701   0.8115   0.3207     H
H       0.9722   0.0647   0.4391     H
O       0.9915    0.951   0.7318     O
