data_I
_chemical_name_common  '/home/zhangsd/repos/MofS-CGCNN/ML/data/TSD/clean_cifs/KUMJIN_clean'
_cell_length_a 12.60800
_cell_length_b 14.21450
_cell_length_c 14.89800
_cell_angle_alpha 69.32100
_cell_angle_beta  67.50300
_cell_angle_gamma 78.32900
_space_group_name_H-M_alt      'P 1'


loop_
_space_group_symop_operation_xyz
  'x, y, z' 

loop_
_atom_site_label
_atom_site_fract_x
_atom_site_fract_y
_atom_site_fract_z
_atom_site_type_symbol
O        0.009   0.0471   0.2686     O
H       0.0274   0.9354   0.5623     H
H       0.0302   0.1859   0.6777     H
H       0.0337   0.3283   0.7168     H
O       0.0352   0.8545   0.0248     O
Eu     0.05154  0.05386  0.09297    Eu
C        0.052   0.8697   0.7423     C
H       0.0589   0.3052   0.9656     H
O       0.0704   0.8209   0.8239     O
C       0.0771   0.8771   0.5658     C
C       0.0892   0.2287    0.638     C
C       0.0905   0.3138   0.6603     C
C       0.0964   0.8271   0.0805     C
O       0.1003   0.8774   0.1335     O
C       0.1052   0.8286    0.653     C
H       0.1059   0.8731    0.424     H
C       0.1229   0.8391   0.4834     C
H       0.1256   0.0745   0.5666     H
O       0.1287   0.0114   0.8327     O
C       0.1334   0.2971   0.9668     C
N       0.1686   0.2081   0.0197     N
H       0.1717   0.7207   0.9501     H
C       0.1721   0.7313   0.0815     C
H       0.1728   0.4414   0.8756     H
H       0.1762   0.4387   0.6113     H
C       0.1773   0.2069   0.5551     C
C       0.1789   0.3795   0.5971     C
C       0.1811   0.7426   0.6579     C
C       0.1823   0.1196   0.5274     C
H       0.1933   0.7082   0.2155     H
C       0.1933   0.7515   0.4899     C
O       0.1948   0.0472   0.9353     O
C       0.2007   0.0469   0.8498     C
C       0.2015   0.3806    0.912     C
C       0.2023   0.6906   0.0023     C
H       0.2028   0.7117   0.7153     H
C       0.2163   0.6833   0.1604     C
H       0.2203   0.7242   0.4361     H
C       0.2246   0.7027   0.5767     C
H       0.2334   0.8857    0.212     H
N       0.2466   0.0241   0.1242     N
C       0.2644   0.2755   0.4967     C
N       0.2659   0.3608   0.5179     N
C       0.2676   0.1006   0.4457     C
H       0.2683   0.0433   0.4288     H
C       0.2769   0.1965   0.0215     C
C       0.2786   0.6047   0.0007     C
C       0.2836   0.9367   0.1772     C
O       0.2877    0.561   0.3287     O
C       0.2942   0.5986   0.1583     C
H       0.2977   0.5773   0.9478     H
C       0.2986   0.0937   0.7587     C
C       0.3029   0.6077   0.5804     C
O       0.3072   0.5623   0.5205     O
H       0.3088   0.2101   0.8029     H
C       0.3108   0.3688   0.9142     C
C       0.3193   0.0998   0.0769     C
H       0.3252   0.9895   0.6864     H
C       0.3261   0.5601   0.0767     C
C       0.3406   0.1814     0.75     C
C        0.344   0.5531   0.2418     C
C       0.3524   0.2763   0.9697     C
C       0.3526   0.0477   0.6818     C
C        0.356   0.1676   0.3853     C
C       0.3569   0.2526    0.413     C
H       0.3578   0.4222   0.8789     H
O       0.3627   0.5813    0.638     O
H       0.3792   0.5044   0.0736     H
C       0.3939   0.9163    0.184     C
H       0.4012   0.7982   0.8038     H
H       0.4088   0.6631   0.7487     H
H       0.4169   0.8525   0.2203     H
H       0.4233   0.8381   0.9696     H
C         0.43   0.2268   0.6625     C
C       0.4314    0.086   0.0803     C
Eu     0.43561  0.48158  0.40368    Eu
O       0.4436   0.5094    0.222     O
N       0.4462   0.3146   0.3639     N
C       0.4467   0.1511   0.3008     C
H       0.4469   0.0981   0.2779     H
C       0.4472   0.0886   0.5983     C
H       0.4564   0.7918   0.4705     H
H       0.4594     0.02   0.8582     H
C       0.4619   0.2615   0.9758     C
C       0.4634   0.7865   0.7489     C
C       0.4646   0.3274   0.6451     C
C       0.4676   0.9914   0.1367     C
C       0.4687   0.7054   0.7144     C
O       0.4703   0.3944   0.5599     O
C       0.4834   0.1792   0.5874     C
H        0.486   0.0551   0.5498     H
H        0.491   0.6851   0.0565     H
O       0.4919   0.3445   0.7088     O
C       0.4975   0.8302   0.9717     C
C       0.5025   0.1698   0.0283     C
O       0.5081   0.6555   0.2912     O
H        0.509   0.3149   0.9435     H
H        0.514   0.9449   0.4502     H
C       0.5166   0.8208   0.4126     C
O       0.5297   0.6056   0.4401     O
C       0.5313   0.2946   0.2856     C
C       0.5324   0.0086   0.8633     C
C       0.5354   0.6726   0.3549     C
C       0.5366   0.2135   0.2511     C
C       0.5381   0.7385   0.0242     C
H       0.5406     0.98   0.1418     H
H       0.5436   0.2082   0.5295     H
C       0.5528   0.9114   0.4017     C
H       0.5531   0.9019   0.7221     H
C       0.5533   0.8489   0.6992     C
N       0.5538   0.6854   0.6361     N
O       0.5564   0.4906    0.778     O
Eu     0.56439  0.51842  0.59632    Eu
C       0.5686    0.914   0.9197     C
C         0.57   0.7732   0.3375     C
H       0.5767   0.1619   0.0304     H
H       0.5831   0.1475   0.7797     H
H       0.5912   0.3369   0.2513     H
H       0.5988   0.2018   0.1962     H
C       0.6061   0.0837    0.816     C
H       0.6208   0.4956   0.9264     H
O       0.6373   0.4187    0.362     O
H       0.6422   0.5778   0.1211     H
C       0.6431   0.7474    0.587     C
C        0.644   0.8324   0.6147     C
C       0.6474   0.9523   0.3182     C
C       0.6476   0.7237   0.0303     C
C        0.656   0.4469   0.7582     C
C       0.6594   0.8186     0.25     C
C       0.6739   0.4399   0.9233     C
H       0.6748   0.0105   0.3136     H
C       0.6807   0.9002   0.9231     C
C       0.6892   0.6312   0.0858     C
H       0.6912   0.7899   0.1971     H
O       0.6928   0.4377   0.4795     O
C       0.6971   0.3923   0.4196     C
C       0.7014   0.9063   0.2413     C
H       0.7023   0.4227   0.0522     H
C       0.7058   0.4014   0.8417     C
O       0.7123    0.439   0.6713     O
C       0.7164   0.0633   0.8228     C
C       0.7214   0.3953   0.9993     C
C       0.7231   0.8035   0.9785     C
H       0.7317   0.9567   0.5712     H
C       0.7324   0.8994   0.5543     C
N       0.7341   0.6392   0.4821     N
C       0.7356   0.7245   0.5033     C
N       0.7534   0.9759   0.8758     N
H       0.7666   0.1143    0.788     H
C       0.7754   0.2973   0.4233     C
H       0.7797   0.2758   0.5639     H
C       0.7837   0.3167   0.8396     C
H       0.7972   0.2883   0.2847     H
C       0.7977   0.3094   0.9977     C
C       0.7985   0.6194    0.088     C
C       0.7993   0.9531   0.1502     C
O       0.8052   0.9528   0.0647     O
C       0.8067   0.2485   0.5101     C
H       0.8067   0.2918   0.7845     H
C       0.8177   0.8804   0.4726     C
C       0.8189   0.2574   0.3421     C
C       0.8211   0.6205   0.4029     C
C       0.8227   0.7931   0.4449     C
H       0.8238   0.5613   0.3887     H
H       0.8272   0.5586   0.1244     H
C       0.8279   0.2687   0.9185     C
H       0.8283   0.2793   0.0499     H
N       0.8314   0.7919   0.9803     N
C       0.8666   0.7029   0.0332     C
O       0.8713   0.9886   0.1673     O
H       0.8744   0.9255   0.4334     H
C       0.8771   0.1609   0.5166     C
H       0.8941   0.1269    0.576     H
C       0.8948   0.1714    0.347     C
O       0.8997   0.1226   0.8665     O
C       0.9036   0.1729   0.9195     C
C       0.9095   0.6862   0.3397     C
C       0.9108   0.7713    0.362     C
C       0.9229   0.1229   0.4342     C
O       0.9296   0.1791   0.1761     O
H       0.9411   0.6948   0.0344     H
C        0.948   0.1303   0.2577     C
Eu     0.94846  0.94614  0.90703    Eu
O       0.9648   0.1455   0.9752     O
H       0.9663   0.6717   0.2832     H
H       0.9698   0.8141   0.3223     H
H       0.9726   0.0646   0.4377     H
O        0.991   0.9529   0.7314     O
