data_I
_chemical_name_common  '/home/zhangsd/repos/MofS-CGCNN/ML/data/TSD/clean_cifs/KUNRAO_clean'
_cell_length_a 30.97800
_cell_length_b 12.62000
_cell_length_c 13.33900
_cell_angle_alpha 90.00000
_cell_angle_beta  90.00000
_cell_angle_gamma 90.00000
_space_group_name_H-M_alt      'P 1'


loop_
_space_group_symop_operation_xyz
  'x, y, z' 

loop_
_atom_site_label
_atom_site_fract_x
_atom_site_fract_y
_atom_site_fract_z
_atom_site_type_symbol
C       0.0004   0.5655   0.6605     C
H       0.0005   0.1623   0.1436     H
C       0.0063   0.9557   0.8705     C
C       0.0068   0.0707   0.0222     C
C        0.007   0.6461   0.9665     C
H       0.0085   0.0687   0.3126     H
C       0.0125   0.4833   0.5924     C
C       0.0145   0.8636   0.5866     C
C       0.0145   0.9792   0.4455     C
C       0.0188   0.5661   0.0294     C
H       0.0213   0.5973   0.7031     H
H       0.0281   0.6776   0.9245     H
C       0.0344   0.3181   0.4624     C
C       0.0418   0.4024   0.1631     C
H       0.0421   0.2615    0.419     H
C       0.0486   0.9316   0.8881     C
H       0.0498   0.3484   0.2091     H
C       0.0513   0.0397   0.0378     C
C       0.0561   0.4438   0.5912     C
C       0.0571   0.8326   0.5731     C
C       0.0588   0.9454   0.4287     C
C        0.061    0.523   0.0414     C
H        0.063   0.8827   0.8454     H
C       0.0659   0.3672   0.5246     C
H       0.0662   0.0624   0.0963     H
H       0.0709   0.7843   0.6173     H
C       0.0716   0.9785   0.9694     C
C       0.0731   0.4448   0.1021     C
H       0.0742   0.9729   0.3728     H
H       0.0773   0.4709   0.6359     H
C       0.0786   0.8767   0.4899     C
H       0.0831   0.5538   0.0015     H
C       0.1115   0.3206   0.5166     C
C       0.1186   0.9586    0.986     C
C       0.1188   0.4046   0.1101     C
O       0.1211   0.2513   0.4574     O
O       0.1268    0.325   0.1523     O
C       0.1271    0.847    0.474     C
O       0.1361     0.98   0.0644     O
O        0.139   0.3635   0.5791     O
O       0.1408    0.918   0.9088     O
O       0.1419    0.872   0.3965     O
O       0.1465   0.4666   0.0663     O
O       0.1475   0.8034    0.553     O
H       0.1661   0.3377   0.3151     H
H       0.1677   0.0739   0.4593     H
H       0.1685   0.1628   0.0757     H
H       0.1708   0.9062   0.2126     H
C       0.1944   0.1726   0.0385     C
C       0.1945   0.0692   0.4939     C
Zn     0.19533  0.30376  0.54339    Zn
C       0.1959   0.3549    0.321     C
Zn     0.19843  0.93654  0.98712    Zn
C       0.2007   0.8907   0.2069     C
Zn     0.20299  0.40042  0.10042    Zn
Zn     0.20434  0.84578  0.42689    Zn
N       0.2118   0.1502   0.5441     N
N        0.214   0.0961   0.9855     N
H       0.2144   0.3149   0.7776     H
N       0.2162    0.266   0.0323     N
N       0.2162   0.3507   0.4078     N
N       0.2167   0.9865   0.4968     N
N       0.2185   0.3836   0.2446     N
H       0.2198   0.9378   0.7515     H
N        0.221   0.8928   0.1223     N
N       0.2244   0.8658   0.2833     N
H       0.2301   0.6075   0.4089     H
H       0.2339   0.6404   0.1291     H
C       0.2387   0.3404   0.7413     C
N       0.2388   0.3542    0.643     N
C       0.2438   0.9095   0.7866     C
N       0.2448   0.8904   0.8836     N
C       0.2465   0.1044   0.5861     C
N       0.2474   0.7384   0.4751     N
C       0.2493   0.1429   0.9497     C
N       0.2498   0.5059   0.0614     N
N       0.2502   0.0059   0.5614     N
C       0.2507   0.6429   0.4497     C
N       0.2526   0.2384   0.9751     N
C       0.2535   0.6044   0.0861     C
N       0.2552   0.3904   0.3836     N
C       0.2562   0.4095   0.2866     C
N       0.2612   0.8542    0.143     N
C       0.2613   0.8404   0.2413     C
H       0.2661   0.1404   0.6291     H
H       0.2699   0.1075   0.9089     H
N       0.2756   0.3658   0.7833     N
N        0.279   0.3928   0.6223     N
H       0.2802   0.4378   0.2515     H
N       0.2815   0.8836   0.7446     N
N       0.2833   0.4865   0.9968     N
N       0.2838    0.766   0.5323     N
N       0.2838   0.8507   0.9078     N
H       0.2856   0.8149   0.2776     H
N        0.286   0.5961   0.4855     N
N       0.2882   0.6502   0.0441     N
Zn     0.29566  0.34578  0.92689    Zn
Zn     0.29701  0.90042  0.60042    Zn
C       0.2993   0.3907   0.7069     C
Zn     0.30157  0.43654  0.48712    Zn
C       0.3041   0.8549    0.821     C
Zn     0.30467  0.80376  0.04339    Zn
C       0.3055   0.5692   0.9939     C
C       0.3056   0.6726   0.5385     C
H       0.3292   0.4062   0.7126     H
H       0.3315   0.6628   0.5757     H
H       0.3323   0.5739   0.9593     H
H       0.3339   0.8377   0.8151     H
O       0.3525   0.3034    0.053     O
O       0.3535   0.9666   0.5663     O
O       0.3581    0.372   0.8965     O
O       0.3592    0.418   0.4088     O
O        0.361   0.8635   0.0791     O
O       0.3639     0.48   0.5644     O
C       0.3729    0.347    0.974     C
O       0.3732    0.825   0.6523     O
O       0.3789   0.7513   0.9574     O
C       0.3812   0.9046   0.6101     C
C       0.3814   0.4586    0.486     C
C       0.3885   0.8206   0.0166     C
H       0.4169   0.0538   0.5015     H
C       0.4214   0.3767   0.9899     C
H       0.4227   0.9709   0.1359     H
H       0.4258   0.4729   0.8728     H
C       0.4269   0.9448   0.6021     C
C       0.4284   0.4785   0.4694     C
H       0.4291   0.2843   0.1173     H
H       0.4338   0.5624   0.5963     H
C       0.4341   0.8672   0.0246     C
H        0.437   0.3827   0.3454     H
C        0.439    0.023   0.5414     C
C       0.4412   0.4454   0.9287     C
C       0.4429   0.3326   0.0731     C
C       0.4439   0.9438   0.0912     C
C       0.4487   0.5397   0.5378     C
H       0.4502   0.8484   0.7091     H
C       0.4514   0.4316   0.3881     C
H       0.4579   0.7615    0.919     H
C       0.4582   0.9024   0.6631     C
C       0.4656   0.8181   0.9624     C
H       0.4719   0.1776   0.4245     H
H       0.4787   0.0973   0.2031     H
C       0.4812   0.0661   0.5294     C
C       0.4855   0.3636   0.0866     C
C       0.4855   0.4792   0.9455     C
C       0.4875   0.9833   0.0924     C
H       0.4915   0.5687   0.8126     H
C        0.493   0.1461   0.4665     C
C       0.4932   0.5707   0.5222     C
C       0.4937   0.4557   0.3705     C
H       0.4995   0.6623   0.6436     H
C       0.4996   0.0655   0.1605     C
C       0.5004   0.9345   0.6605     C
H       0.5005   0.3377   0.1436     H
C       0.5063   0.5443   0.8705     C
C       0.5068   0.4293   0.0222     C
C        0.507   0.8539   0.9665     C
H       0.5085   0.4313   0.3126     H
C       0.5125   0.0167   0.5924     C
C       0.5145   0.5208   0.4455     C
C       0.5145   0.6364   0.5866     C
C       0.5188   0.9339   0.0294     C
H       0.5213   0.9027   0.7031     H
H       0.5281   0.8224   0.9245     H
C       0.5344   0.1819   0.4624     C
C       0.5418   0.0976   0.1631     C
H       0.5421   0.2385    0.419     H
C       0.5486   0.5684   0.8881     C
H       0.5498   0.1516   0.2091     H
C       0.5513   0.4603   0.0378     C
C       0.5561   0.0562   0.5912     C
C       0.5571   0.6674   0.5731     C
C       0.5588   0.5546   0.4287     C
C        0.561    0.977   0.0414     C
H        0.563   0.6173   0.8454     H
C       0.5659   0.1328   0.5246     C
H       0.5662   0.4376   0.0963     H
H       0.5709   0.7157   0.6173     H
C       0.5716   0.5215   0.9694     C
C       0.5731   0.0552   0.1021     C
H       0.5742   0.5271   0.3728     H
H       0.5773   0.0291   0.6359     H
C       0.5786   0.6233   0.4899     C
H       0.5831   0.9462   0.0015     H
C       0.6115   0.1794   0.5166     C
C       0.6186   0.5414    0.986     C
C       0.6188   0.0954   0.1101     C
O       0.6211   0.2487   0.4574     O
O       0.6268    0.175   0.1523     O
C       0.6271    0.653    0.474     C
O       0.6361     0.52   0.0644     O
O        0.639   0.1365   0.5791     O
O       0.6408    0.582   0.9088     O
O       0.6419    0.628   0.3965     O
O       0.6465   0.0334   0.0663     O
O       0.6475   0.6966    0.553     O
H       0.6661   0.1623   0.3151     H
H       0.6677   0.4261   0.4593     H
H       0.6685   0.3372   0.0757     H
H       0.6708   0.5938   0.2126     H
C       0.6944   0.3274   0.0385     C
C       0.6945   0.4308   0.4939     C
Zn     0.69533  0.19624  0.54339    Zn
C       0.6959   0.1451    0.321     C
Zn     0.69843  0.56346  0.98712    Zn
C       0.7007   0.6093   0.2069     C
Zn     0.70299  0.09958  0.10042    Zn
Zn     0.70434  0.65422  0.42689    Zn
N       0.7118   0.3498   0.5441     N
N        0.714   0.4039   0.9855     N
H       0.7144   0.1851   0.7776     H
N       0.7162   0.1493   0.4078     N
N       0.7162    0.234   0.0323     N
N       0.7167   0.5135   0.4968     N
N       0.7185   0.1164   0.2446     N
H       0.7198   0.5622   0.7515     H
N        0.721   0.6072   0.1223     N
N       0.7244   0.6342   0.2833     N
H       0.7301   0.8925   0.4089     H
H       0.7339   0.8596   0.1291     H
C       0.7387   0.1596   0.7413     C
N       0.7388   0.1458    0.643     N
C       0.7438   0.5905   0.7866     C
N       0.7448   0.6096   0.8836     N
C       0.7465   0.3956   0.5861     C
N       0.7474   0.7616   0.4751     N
C       0.7493   0.3571   0.9497     C
N       0.7498   0.9941   0.0614     N
N       0.7502   0.4941   0.5614     N
C       0.7507   0.8571   0.4497     C
N       0.7526   0.2616   0.9751     N
C       0.7535   0.8956   0.0861     C
N       0.7552   0.1096   0.3836     N
C       0.7562   0.0905   0.2866     C
N       0.7612   0.6458    0.143     N
C       0.7613   0.6596   0.2413     C
H       0.7661   0.3596   0.6291     H
H       0.7699   0.3925   0.9089     H
N       0.7756   0.1342   0.7833     N
N        0.779   0.1072   0.6223     N
H       0.7802   0.0622   0.2515     H
N       0.7815   0.6164   0.7446     N
N       0.7833   0.0135   0.9968     N
N       0.7838   0.6493   0.9078     N
N       0.7838    0.734   0.5323     N
H       0.7856   0.6851   0.2776     H
N        0.786   0.9039   0.4855     N
N       0.7882   0.8498   0.0441     N
Zn     0.79566  0.15422  0.92689    Zn
Zn     0.79701  0.59958  0.60042    Zn
C       0.7993   0.1093   0.7069     C
Zn     0.80157  0.06346  0.48712    Zn
C       0.8041   0.6451    0.821     C
Zn     0.80467  0.69624  0.04339    Zn
C       0.8055   0.9308   0.9939     C
C       0.8056   0.8274   0.5385     C
H       0.8292   0.0938   0.7126     H
H       0.8315   0.8372   0.5757     H
H       0.8323   0.9261   0.9593     H
H       0.8339   0.6623   0.8151     H
O       0.8525   0.1966    0.053     O
O       0.8535   0.5334   0.5663     O
O       0.8581    0.128   0.8965     O
O       0.8592    0.082   0.4088     O
O        0.861   0.6365   0.0791     O
O       0.8639     0.02   0.5644     O
C       0.8729    0.153    0.974     C
O       0.8732    0.675   0.6523     O
O       0.8789   0.7487   0.9574     O
C       0.8812   0.5954   0.6101     C
C       0.8814   0.0414    0.486     C
C       0.8885   0.6794   0.0166     C
H       0.9169   0.4462   0.5015     H
C       0.9214   0.1233   0.9899     C
H       0.9227   0.5291   0.1359     H
H       0.9258   0.0271   0.8728     H
C       0.9269   0.5552   0.6021     C
C       0.9284   0.0215   0.4694     C
H       0.9291   0.2157   0.1173     H
H       0.9338   0.9376   0.5963     H
C       0.9341   0.6328   0.0246     C
H        0.937   0.1173   0.3454     H
C        0.939    0.477   0.5414     C
C       0.9412   0.0546   0.9287     C
C       0.9429   0.1674   0.0731     C
C       0.9439   0.5562   0.0912     C
C       0.9487   0.9603   0.5378     C
H       0.9502   0.6516   0.7091     H
C       0.9514   0.0684   0.3881     C
H       0.9579   0.7385    0.919     H
C       0.9582   0.5976   0.6631     C
C       0.9656   0.6819   0.9624     C
H       0.9719   0.3224   0.4245     H
H       0.9787   0.4027   0.2031     H
C       0.9812   0.4339   0.5294     C
C       0.9855   0.0208   0.9455     C
C       0.9855   0.1364   0.0866     C
C       0.9875   0.5167   0.0924     C
H       0.9915   0.9313   0.8126     H
C        0.993   0.3539   0.4665     C
C       0.9932   0.9293   0.5222     C
C       0.9937   0.0443   0.3705     C
H       0.9995   0.8377   0.6436     H
C       0.9996   0.4345   0.1605     C
