data_I
_chemical_name_common  '/home/zhangsd/repos/MofS-CGCNN/ML/data/TSD/clean_cifs/KUNSUJ_clean'
_cell_length_a 41.60400
_cell_length_b 41.60400
_cell_length_c 40.24600
_cell_angle_alpha 90.00000
_cell_angle_beta  90.00000
_cell_angle_gamma 120.00000
_space_group_name_H-M_alt      'P 1'


loop_
_space_group_symop_operation_xyz
  'x, y, z' 

loop_
_atom_site_label
_atom_site_fract_x
_atom_site_fract_y
_atom_site_fract_z
_atom_site_type_symbol
C       0.0003    0.744   0.2409     C
C       0.0007   0.6826   0.3052     C
O      0.00147  0.22273  0.85123     O
C      0.00183  0.32637  0.58237     C
C       0.0022   0.4017   0.7157     C
C      0.00277  0.26513  0.33543     C
C       0.0033   0.7147   0.2897     C
C      0.00347  0.32033  0.04663     C
O      0.00354  0.76106  0.42233     O
O      0.00373  0.77816  0.49458     O
C      0.00453  0.68907  0.92017     C
C      0.00463  0.03317  0.45757     C
C       0.0047   0.2865   0.7439     C
H      0.00473  0.74717  0.04167     H
H        0.005    0.452   0.7614     H
C      0.00513  0.88557  0.43977     C
C      0.00553  0.73357  0.69697     C
C       0.0059   0.4337   0.6987     C
H      0.00607  0.29673  0.99463     H
C      0.00627  0.03503  0.54283     C
C       0.0063   0.3867   0.9587     C
H      0.00683  0.65207  0.76547     H
C      0.00683  0.76677  0.61407     C
C      0.00697  0.34213  0.24903     C
C      0.00753  0.69047  0.73507     C
C      0.00773  0.27217  0.57207     C
C       0.0078   0.5401   0.2522     C
H       0.0079   0.6833   0.3272     H
H      0.00797  0.30123  0.09153     H
H      0.00843  0.05717  0.45827     H
H      0.00873  0.65877  0.99387     H
C       0.0088   0.6685   0.0843     C
H       0.0089   0.6055   0.2634     H
H      0.00927  0.63453  0.40613     H
C      0.00957  0.23873  0.45283     C
C       0.0098    0.547   0.2854     C
O      0.00981  0.18425  0.56151     O
C      0.01017  0.24673  0.91373     C
H       0.0102    0.736    0.302     H
C      0.01047  0.30083  0.28583     C
C      0.01067  0.71063  0.41073     C
C      0.01103  0.92067  0.43947     C
H       0.0111   0.4049   0.9745     H
O       0.0113     0.26   0.7844     O
C      0.01147  0.06993  0.54263     C
C        0.013   0.3498   0.7133     C
H      0.01323  0.77267  0.09187     H
O       0.0144   0.7708   0.2597     O
H       0.0146   0.6881   0.0988     H
H      0.01483  0.37027  0.45167     H
C      0.01493  0.36547  0.42917     C
C      0.01503  0.76697  0.64797     C
C      0.01523  0.66597  0.97187     C
H       0.0154   0.4443   0.6063     H
C       0.0156   0.3833   0.6997     C
C      0.01577  0.26043  0.94443     C
C      0.01593  0.34857  0.36147     C
C      0.01627  0.65913  0.40173     C
C      0.01647  0.67013  0.62003     C
H      0.01663  0.34207  0.33947     H
C       0.0172   0.3184   0.7625     C
C      0.01787  0.66213  0.58683     C
H       0.0197   0.5188   0.2165     H
H      0.02023  0.87957  0.42737     H
H      0.02077  0.28643  0.34603     H
C       0.0208   0.4433   0.6684     C
C      0.02117  0.24253  0.48503     C
H      0.02143  0.34017  0.56787     H
H       0.0221   0.3185    0.785     H
C       0.0224   0.3512   0.7465     C
H       0.0225   0.4638   0.6574     H
C       0.0227   0.5234   0.2392     C
C      0.02297  0.14104  0.54183     C
C       0.0238   0.3496   0.9316     C
C       0.0253   0.6292   0.0577     C
C      0.02563  0.78447  0.55757     C
C      0.02853  0.99537  0.45757     C
C      0.02877  0.99373  0.54283     C
C      0.02887  0.30413  0.00453     C
In     0.02892  0.22314  0.80328    In
C       0.0292   0.3914   0.6712     C
C      0.02957  0.17773  0.54303     C
C      0.02967  0.24683  0.86083     C
C      0.02997  0.25613  0.39623     C
H      0.03063  0.93877  0.42707     H
C       0.0314   0.5375   0.3037     C
H       0.0321   0.3734   0.7582     H
C      0.03213  0.68387  0.90417     C
H      0.03213  0.70807  0.73947     H
C      0.03223  0.76607  0.71057     C
C       0.0325   0.3763   0.9525     C
C      0.03317  0.02853  0.54243     C
C       0.0333    0.656   0.0774     C
C      0.03383  0.78697  0.59227     C
C        0.034   0.4213   0.6537     C
O      0.03407  0.29163  0.55549     O
C      0.03437  0.31773  0.03303     C
C      0.03503  0.02877  0.45717     C
C      0.03537  0.25893  0.89223     C
H       0.0355   0.5437   0.3262     H
C       0.0356   0.4419      0.6     C
H       0.0366    0.376   0.6613     H
H      0.03693  0.68877  0.88167     H
H      0.03727  0.94623  0.51123     H
C      0.03747  0.72943  0.39103     C
H       0.0375   0.4605   0.5542     H
C      0.03793  0.79697  0.66347     C
H      0.03803  0.76627  0.73297     H
C      0.03817  0.25843  0.42993     C
C      0.03897  0.09703  0.52413     C
Eu     0.03966  0.24214  0.54496    Eu
H      0.04007  0.67463  0.57513     H
H      0.04067  0.57113  0.40503     H
H       0.0414   0.3426   0.9272     H
O      0.04171  0.40911  0.22215     O
H        0.042   0.6207   0.0548     H
H      0.04267  0.67273  0.67203     H
C       0.0427    0.512   0.2561     C
C      0.04297  0.67713  0.38083     C
C      0.04397  0.36663  0.25593     C
H      0.04423  0.79857  0.54237     H
C      0.04473  0.66337  0.95637     C
C      0.04577  0.13293  0.52373     C
H      0.04597  0.75463  0.38813     H
H      0.04633  0.81957  0.65277     H
C      0.04683  0.38487  0.41057     C
H       0.0469    0.401   0.0127     H
C       0.0469   0.5195   0.2892     C
C      0.04707  0.32703  0.29203     C
C       0.0473   0.4502   0.5687     C
C      0.04737  0.28333  0.95543     C
C      0.04803  0.37807  0.37697     C
H      0.04857  0.26953  0.38083     H
H      0.04873  0.99157  0.45827     H
O      0.04973  0.20787  0.75537     O
C      0.04983  0.79667  0.69427     C
C      0.04997  0.70103  0.63363     C
C         0.05   0.4307   0.6221     C
O      0.05109  0.26169  0.49437     O
C      0.05153  0.67137  0.92277     C
H      0.05287  0.53153  0.43663     H
C      0.05337  0.71373  0.37463     C
H      0.05377  0.09103  0.51123     H
O      0.05378  0.48548   0.2122     O
C      0.05397  0.29933  0.98703     C
O      0.05494  0.20223  0.52671     O
O      0.05637  0.26273  0.84113     O
H      0.05717  0.04873  0.54173     H
H      0.05783  0.80257  0.59967     H
C      0.05807  0.69553  0.66213     C
C      0.05807  0.96103  0.52413     C
C      0.05847  0.98853  0.54263     C
H      0.05913  0.65647  0.96867     H
H       0.0604   0.4563   0.1039     H
C       0.0604   0.4945   0.2409     C
H      0.06047  0.32223  0.30783     H
H       0.0606    0.512    0.302     H
C      0.06117  0.40223  0.23873     C
H      0.06117  0.73673  0.59673     H
H      0.06123  0.09187  0.42707     H
C      0.06137  0.66113  0.36363     C
H      0.06157  0.62863  0.39963     H
C      0.06167  0.56933  0.40063     C
H      0.06257  0.27293  0.43723     H
C      0.06277  0.35863  0.27563     C
H       0.0638   0.4457   0.0475     H
H      0.06537  0.15113  0.51143     H
C      0.06617  0.33113  0.04903     C
C       0.0669   0.3947   0.9697     C
C      0.06717  0.63443  0.37723     C
H      0.06767  0.68743  0.32063     H
C       0.0682   0.4043   0.0021     C
C      0.06827  0.54463  0.41883     C
C      0.06837  0.73283  0.61763     C
C       0.0689   0.6744   0.0946     C
H      0.06933  0.39247  0.36467     H
C      0.06957  0.28603  0.90203     C
C      0.06993  0.05847  0.45737     C
H      0.07007  0.34223  0.06993     H
O       0.0706   0.4603   0.5078     O
C      0.07097  0.66943  0.33123     C
H      0.07157  0.72713  0.35883     H
O      0.07164  0.45606  0.16104     O
H      0.07173  0.86597  0.67937     H
O      0.07287  0.25223  0.59092     O
C       0.0729    0.422   0.6111     C
C      0.07297  0.29773  0.93333     C
O      0.07333  0.41797  0.45107     O
C       0.0744   0.4431   0.5589     C
C       0.0749   0.4464   0.0966     C
C      0.07523  0.82827  0.70917     C
H      0.07577  0.66193  0.70833     H
O      0.07578  0.70074  0.11118     O
C      0.07603  0.23167  0.76287     C
C      0.07703  0.66637  0.90757     C
C       0.0772   0.4405   0.0629     C
C      0.07733  0.41037  0.42577     C
H      0.07807  0.60883  0.26633     H
O      0.07813  0.25257  0.78467     O
C      0.07933  0.09037  0.43947     C
C      0.08017  0.61683  0.36093     C
H       0.0805   0.4091    0.625     H
O      0.08077  0.49223  0.45133     O
O       0.0811   0.4873  0.25759     O
C      0.08243  0.86327  0.69877     C
H      0.08273  0.19047  0.71377     H
O      0.08463  0.67797  0.88227     O
C      0.08527  0.65163  0.31463     C
H      0.08577  0.93463  0.51143     H
C      0.08637  0.59143  0.37583     C
C      0.08647  0.63283  0.25893     C
C       0.0865   0.4495   0.5275     C
C       0.0866   0.4301   0.5804     C
C      0.08717  0.95423  0.52373     C
H      0.08767  0.62243  0.20903     H
H      0.08797  0.37533  0.27853     H
C      0.08797  0.72063  0.67963     C
C      0.08867  0.68243  0.72223     C
C      0.08917  0.31253  0.00173     C
H      0.08967  0.29583  0.88753     H
O      0.08973  0.65227  0.92637     O
C      0.09037  0.01103  0.56053     C
C       0.0908   0.4453   0.1517     C
O      0.09086  0.66313    0.089     O
H      0.09103  0.03727  0.48877     H
Eu      0.0912  0.46418  0.21163    Eu
H      0.09187  0.03063  0.57293     H
C      0.09217  0.64103  0.22423     C
C      0.09237  0.62873  0.33013     C
H      0.09277  0.65343  0.75853     H
C      0.09327  0.65983  0.28073     C
O       0.0944  0.42419  0.24433     O
C      0.09447  0.32743  0.03203     C
C       0.0946   0.4375   0.1195     C
H      0.09553  0.80287  0.73837     H
H      0.09557  0.31793  0.93963     H
C      0.09677  0.67683  0.75293     C
C      0.09703  0.05807  0.47587     C
C      0.09733  0.82567  0.73397     C
C      0.09737  0.71403  0.71123     C
C      0.09817  0.53963  0.40993     C
O      0.09837  0.27955  0.54553     O
C       0.0994   0.4005   0.9561     C
H       0.0996   0.3949   0.9337     H
C       0.1001   0.4266   0.0526     C
C       0.1003   0.4186   0.0187     C
C      0.10037  0.76113  0.63463     C
C      0.10077  0.27293  0.57423     C
C      0.10167  0.51103  0.42953     C
O      0.10413  0.42307  0.40697     O
C      0.10417  0.67623  0.21383     C
C      0.10543  0.21157  0.71807     C
H        0.106   0.4261   0.5748     H
C      0.10613  0.89457  0.71807     C
H      0.10657  0.62033  0.31943     H
C      0.10717  0.69663  0.27043     C
H      0.10773  0.91727  0.71377     H
O      0.10776  0.66293  0.16124     O
H      0.10797  0.31083  0.99073     H
C      0.10813  0.23517  0.74327     C
C      0.10857  0.73963  0.73333     C
C      0.10977  0.70203  0.77443     C
C      0.10997  0.75583  0.66493     C
In      0.1102  0.47245  0.46994    In
O       0.1106   0.4454   0.5179     O
H      0.11097  0.76223  0.72703     H
O      0.11149  0.44109  0.17209     O
C      0.11197  0.68783  0.18163     C
O      0.11207  0.66813  0.81543     O
H      0.11237  0.71523  0.28583     H
C      0.11307  0.70483  0.23673     C
H      0.11367  0.32833  0.09473     H
C      0.11417  0.58423  0.36543     C
C      0.11443  0.11957  0.43977     C
C      0.11617  0.69633  0.80583     C
C      0.11687  0.73623  0.76463     C
C       0.1178   0.4255   0.1091     C
H      0.11807  0.27273  0.63533     H
C      0.11808  0.97703  0.54183     C
H      0.11867  0.78033  0.57193     H
C      0.11957  0.00513  0.56023     C
C      0.11967  0.79613  0.61873     C
C       0.1203   0.4198   0.0744     C
H      0.12043  0.14067  0.42737     H
C      0.12177  0.56053  0.38473     C
C      0.12203  0.85697  0.75217     C
O      0.12273  0.71775  0.17229     O
H      0.12297  0.72923  0.22943     H
H      0.12297  0.82513  0.65953     H
O      0.12547  0.50853  0.42203     O
C      0.12657  0.80103  0.58553     C
O      0.12697  0.72303  0.82553     O
C      0.12703  0.89187  0.74327     C
H      0.12717  0.75633  0.77913     H
H      0.12757  0.59493  0.34603     H
C      0.12917  0.82723  0.63703     C
C      0.12947  0.34313  0.04793     C
C         0.13   0.4135   0.9724     C
C       0.1303   0.4257   0.0032     C
H      0.13047  0.77463  0.67593     H
Eu     0.13085  0.70632  0.12171    Eu
O       0.1311  0.51937  0.19338     O
H       0.1319    0.421   0.1243     H
C      0.13293  0.08717  0.47627     C
H      0.13403  0.20577  0.67937     H
C      0.13437  0.34113  0.08113     C
H      0.13513  0.85467  0.76997     H
H       0.1359   0.4114    0.067     H
C      0.13597  0.29063  0.58943     C
H       0.1362    0.374   0.9283     H
C      0.13673  0.21917  0.69877     C
In     0.13912  0.69559  0.86339    In
C      0.13927  0.28643  0.62253     C
H      0.14067  0.02023  0.57263     H
C      0.14104  0.11808  0.45817     C
H      0.14287  0.55893  0.38043     H
C      0.14303  0.26507  0.75217     C
C      0.14327  0.83263  0.57253     C
H      0.14533  0.28047  0.76997     H
C      0.14717  0.86073  0.62253     C
O       0.1473  0.94506  0.52671     O
H      0.14787  0.83423  0.54983     H
C      0.14817  0.97043  0.54303     C
O      0.14908  0.49222  0.22818     O
H      0.15113  0.08577  0.48857     H
O      0.15215  0.76503  0.12113     O
H       0.1529   0.4399   0.0139     H
O      0.15397  0.73953  0.07574     O
C      0.15467  0.86403  0.58943     C
H      0.15467  0.88193  0.63533     H
C       0.1556   0.5185   0.2097     C
C      0.15563  0.92397  0.76287     C
O      0.15813  0.95027  0.75537     O
H      0.15847  0.36883  0.00713     H
O      0.15889  0.67647  0.10515     O
O       0.1589   0.7448    0.882     O
C        0.159    0.395   0.9327     C
C      0.16057  0.36473  0.02963     C
C      0.16117  0.76743  0.09243     C
C       0.1616   0.4197   0.9575     C
H      0.16577  0.31363  0.54983     H
C      0.16597  0.35603  0.09413     C
C      0.16737  0.31063  0.57253     C
H      0.16757  0.35303  0.11683     H
C      0.17173  0.24697  0.70917     C
C      0.17217  0.89923  0.57423     C
C      0.17277  0.30193  0.63703     C
C      0.17433  0.27167  0.73397     C
O      0.17443  0.92187  0.78467     O
O      0.17445  0.99019  0.56151     O
H      0.17487  0.29783  0.65953     H
O       0.1752   0.7164   0.9113     O
C       0.1777   0.7427   0.9038     C
C      0.17773  0.14817  0.45697     C
H      0.17867  0.78473  0.03133     H
C      0.17867  0.80263  0.07723     C
O      0.17937  0.92713  0.59092     O
H      0.18043  0.22677  0.65277     H
O      0.18119  0.90163  0.54553     O
H       0.1822   0.5809   0.1781     H
O      0.18425  0.17445  0.43849     O
C      0.18517  0.69623  0.12363     C
H      0.18547  0.83243  0.11683     H
O      0.18604   0.7216  0.13995     O
C      0.18617  0.80593  0.04413     C
H        0.188   0.3862   0.8967     H
C      0.19007  0.83403  0.09413     C
C       0.1903   0.4016   0.9145     C
H      0.19047  0.10773  0.28623     H
C      0.19229  0.54859   0.2085     C
H      0.19267  0.64643  0.09403     H
C      0.19407  0.38023  0.04413     C
In     0.19421  0.97108  0.80328    In
C       0.1966   0.4475   0.9679     C
H      0.19713  0.29267  0.73837     H
C      0.19737  0.37603  0.07723     C
H      0.19743  0.25527  0.59967     H
H       0.1982    0.812   0.8967     H
C      0.19897  0.32553  0.58553     C
H       0.1993   0.4609   0.9873     H
C       0.2004   0.5795   0.1904     C
H      0.20143  0.24567  0.54237     H
O      0.20223   0.1473  0.47329     O
Eu     0.20248  0.96034  0.54496    Eu
H      0.20287  0.89203  0.99073     H
C      0.20303  0.24097  0.66347     C
C      0.20333  0.25317  0.69427     C
C      0.20387  0.32353  0.61873     C
C      0.20417  0.83943  0.02963     C
H      0.20577  0.07173  0.32063     H
H      0.20617  0.91033  0.88753     H
C       0.2063   0.7748   0.9234     C
O      0.20637  0.94363  0.84113     O
C      0.20677  0.86563  0.08113     C
O      0.20787  0.15813  0.24463     O
H      0.21037  0.84153  0.00713     H
H      0.21037  0.93743  0.43723     H
O      0.21061  0.94891  0.49437     O
C       0.2113   0.8097   0.9145     C
C      0.21157  0.10613  0.28193     C
H       0.2129    0.526   0.2393     H
C      0.21303  0.24687  0.59227     C
C      0.21367  0.87053  0.04793     C
C      0.21377  0.66153  0.10643     C
H      0.21467  0.88633  0.09473     H
C      0.21526  0.68963  0.12483     C
H      0.21527  0.39393  0.03133     H
C      0.21553  0.24117  0.55757     C
C      0.21647  0.93043  0.90203     C
C      0.21717  0.97033  0.86083     C
C       0.2189   0.5471   0.2269     C
C      0.21917  0.08243  0.30123     C
H      0.21967  0.33833  0.57193     H
C      0.22027  0.96183  0.42993     C
H      0.22097  0.95143  0.38083     H
O      0.22127  0.99853  0.85123     O
C      0.22137  0.97883  0.48503     C
O      0.22184  0.22558  0.49458     O
H      0.22237  0.90443  0.93963     H
O      0.22273  0.22127  0.14877     O
In     0.22314  0.19421  0.19672    In
C      0.22337  0.91083  0.00173     C
C      0.22357  0.96463  0.89223     C
C      0.22477  0.92703  0.93333     C
C       0.2252   0.4315   0.9234     C
H      0.22537  0.35583  0.67593     H
O      0.22558  0.00373  0.50542     O
H       0.2256   0.7494   0.9529     H
C      0.22617  0.97003  0.39623     C
H      0.22677  0.04633  0.34723     H
C       0.2272   0.7721   0.9486     C
H      0.22733  0.24057  0.09187     H
C       0.2279   0.4551   0.9486     C
C      0.22917  0.99043  0.45283     C
O       0.2292   0.2436   0.2597     O
C      0.23167  0.15563  0.23713     C
C      0.23257  0.39373  0.09243     C
C      0.23297  0.90553  0.03203     C
C      0.23303  0.24807  0.64797     C
C      0.23323  0.24007  0.61407     C
H      0.23373  0.27177  0.73297     H
C      0.23393  0.26617  0.71057     C
O      0.23497  0.38711  0.12113     O
C      0.23517  0.12703  0.25673     C
C      0.23597  0.95263  0.95543     C
C        0.236    0.841   0.9327     C
C       0.2363   0.6086   0.1908     C
C      0.23657  0.98983  0.91373     C
H      0.23777  0.34873  0.72703     H
H       0.2378   0.8638   0.9283     H
C      0.23873  0.22917  0.54717     C
C      0.23887  0.33923  0.63463     C
O      0.23894  0.24247  0.42233     O
C      0.24007  0.00683  0.38593     C
H      0.24057  0.01323  0.90813     H
C      0.24097  0.03793  0.33653     C
C      0.24117  0.02563  0.44243     C
H      0.24147  0.63603  0.09373     H
Eu     0.24214  0.20248  0.45504    Eu
H       0.2423   0.6294   0.1779     H
O      0.24247  0.00354  0.57767     O
C      0.24253  0.22137  0.51497     C
C      0.24297  0.65563  0.10613     C
O       0.2436   0.0144   0.7403     O
H      0.24367  0.37083  0.77913     H
C      0.24417  0.35413  0.66493     C
C      0.24467  0.98423  0.94443     C
H      0.24537  0.29133  0.38813     H
C      0.24537  0.94603  0.98703     C
H      0.24567  0.04423  0.45763     H
C      0.24617  0.71243  0.14293     C
C      0.24673  0.23657  0.08627     C
C      0.24683  0.21717  0.13917     C
C      0.24687  0.03383  0.40773     C
C      0.24697  0.07523  0.29083     C
H      0.24757  0.73203  0.15523     H
C      0.24807  0.01503  0.35203     C
O       0.2487   0.9887   0.7844     O
H       0.2506   0.4762   0.9529     H
C       0.2509   0.8034   0.9679     C
O      0.25223  0.17937  0.40908     O
O      0.25257  0.17443  0.21533     O
H      0.25283  0.25757  0.04167     H
C      0.25317  0.04983  0.30573     C
C        0.254   0.5763   0.2272     C
O       0.2552   0.4141    0.882     O
H      0.25527  0.05783  0.40033     H
C        0.256   0.2563   0.2409     C
C      0.25613  0.22617  0.60377     C
C       0.2563   0.0003   0.7591     C
C       0.2573    0.435   0.9038     C
O      0.25755  0.96593  0.55549     O
H      0.25757  0.00473  0.95833     H
C       0.2581   0.8384   0.9575     C
C      0.25843  0.22027  0.57007     C
C      0.25893  0.22357  0.10777     C
O         0.26   0.2487   0.2156     O
C      0.26037  0.36893  0.73333     C
C      0.26043  0.24467  0.05557     C
O      0.26047  0.41443  0.07574     O
H       0.2616   0.8007   0.9873     H
O      0.26169  0.21061  0.50563     O
H      0.26177  0.93953  0.30783     H
C      0.26237  0.99723  0.33543     C
O      0.26273  0.20637  0.15887     O
H      0.26327  0.32443  0.59673     H
C       0.2634   0.6082   0.2093     C
C      0.26377  0.38063  0.76463     C
H        0.264   0.2742    0.302     H
C      0.26443  0.99227  0.57207     C
C      0.26497  0.93383  0.04903     C
C      0.26507  0.12203  0.24783     C
C      0.26513  0.26237  0.66457     C
H      0.26567  0.97923  0.34603     H
C      0.26617  0.03223  0.28943     C
C      0.26643  0.27197  0.69697     C
C      0.26717  0.33553  0.61763     C
H      0.26797  0.51553  0.15523     H
H      0.26953  0.22097  0.61917     H
C      0.27057  0.30803  0.39103     C
H      0.27077  0.39373  0.22943     H
C      0.27167  0.09733  0.26603     C
H      0.27177  0.03803  0.26703     H
C      0.27197  0.00553  0.30303     C
H       0.2721   0.5748   0.2396     H
C      0.27217  0.26443  0.42793     C
H      0.27217  0.92993  0.06993     H
H      0.27273  0.15467  0.36467     H
H      0.27287  0.34443  0.35883     H
C      0.27293  0.17217  0.42577     C
H      0.27293  0.21037  0.56277     H
H       0.2742   0.0102    0.698     H
C      0.27487  0.67813  0.12403     C
C      0.27527  0.70563  0.14253     C
C      0.27527  0.97113  0.00453     C
H       0.2755   0.8641    0.067     H
H      0.27617  0.61793  0.12493     H
O      0.27697  0.40393  0.82553     O
O       0.2784  0.46443  0.13995     O
C      0.27937  0.36733  0.67963     C
O      0.27955  0.18119  0.45447     O
H      0.27957  0.57563  0.15543     H
C      0.27997  0.95293  0.29203     C
H      0.28047  0.13513  0.23003     H
C       0.2818   0.9953   0.7439     C
O      0.28225  0.40497  0.17229     O
C      0.28333  0.23597  0.04457     C
C      0.28337  0.96563  0.03303     C
C       0.2835     0.87   0.9724     C
O       0.2836   0.4588   0.9113     O
H       0.2846   0.6751   0.2084     H
H      0.28477  0.39713  0.28583     H
C       0.2853   0.2886   0.2897     C
C      0.28597  0.38333  0.71123     C
C      0.28603  0.21647  0.09797     C
C      0.28627  0.33963  0.37463     C
C      0.28643  0.14717  0.37747     C
H      0.28643  0.26567  0.65397     H
C       0.2865   0.2818   0.2561     C
H        0.287   0.8471   0.0139     H
H      0.28737  0.91203  0.27853     H
C      0.28757  0.53373  0.14293     C
C       0.2886   0.0033   0.7103     C
H       0.2891   0.8681   0.1243     H
C      0.28937  0.30003  0.41073     C
C      0.29037  0.98953  0.28583     C
C      0.29063  0.15467  0.41057     C
H      0.29067  0.99393  0.99463     H
H      0.29133  0.04597  0.61187     H
O      0.29163  0.25755  0.44451     O
H      0.29193  0.32407  0.73947     H
H      0.29267  0.09553  0.26163     H
H      0.29327  0.99203  0.09153     H
Eu     0.29368  0.42453  0.12171    Eu
C      0.29437  0.56963  0.14253     C
C      0.29517  0.40823  0.23673     C
H       0.2953   0.9004   0.9337     H
C       0.2954   0.8697   0.0032     C
H      0.29583  0.20617  0.11247     H
C      0.29587  0.93723  0.27563     C
H      0.29607  0.72043  0.15543     H
H       0.2964   0.9779    0.785     H
H      0.29673  0.29067  0.00537     H
C      0.29773  0.22477  0.06667     C
H      0.29783  0.12297  0.34047     H
C      0.29797  0.40773  0.77443     C
C       0.2983   0.6379   0.2095     C
C      0.29897  0.34893  0.63363     C
O      0.29926  0.37504  0.11118     O
C      0.29933  0.24537  0.01297     C
C       0.2995   0.8797   0.0744     C
C      0.30003  0.01067  0.58927     C
C      0.30017  0.63813  0.12423     C
C      0.30083  0.29037  0.71417     C
C       0.3011   0.9006   0.9561     C
H       0.3012   0.9586   0.9272     H
C       0.3012   0.9828   0.7625     C
H      0.30123  0.29327  0.90847     H
C      0.30193  0.12917  0.36297     C
H       0.3027   0.7279   0.2396     H
C      0.30337  0.41053  0.27043     C
C      0.30367  0.41983  0.80583     C
C      0.30377  0.48893  0.12363     C
C      0.30413  0.27527  0.99547     C
In     0.30441  0.44353  0.86339    In
C      0.30447  0.36253  0.66213     C
C      0.30457  0.67293  0.12383     C
C       0.3048   0.6713   0.2091     C
C       0.3077   0.8822   0.1091     C
C      0.30803  0.03747  0.60897     C
C      0.30953  0.31707  0.73507     C
C      0.31037  0.52562  0.12483     C
C      0.31063  0.14327  0.42747     C
H      0.31083  0.20287  0.00927     H
C      0.31093  0.31547  0.92017     C
H      0.31123  0.34817  0.88167     H
H       0.3119   0.3265   0.0988     H
C      0.31217  0.42413  0.18163     C
C      0.31253  0.22337  0.99827     C
H      0.31257  0.38023  0.32063     H
H       0.3131   0.7871   0.2393     H
H      0.31363  0.14787  0.45017     H
C      0.31547  0.00453  0.07983     C
C      0.31613  0.34827  0.90417     C
H       0.3167   0.3246   0.3272     H
C      0.31687  0.99653  0.04663     C
C      0.31707  0.00753  0.26493     C
C       0.3174   0.3181   0.3052     C
C      0.31757  0.40623  0.72223     C
C      0.31773  0.28337  0.96697     C
H      0.31793  0.22237  0.06037     H
C       0.3181   0.0007   0.6948     C
C       0.3183   0.8997   0.0187     C
C       0.3184   0.3012   0.2375     C
H       0.3185   0.2964    0.215     H
H      0.31873  0.97857  0.56787     H
O      0.31893  0.89587  0.40697     O
H       0.3201    0.894   0.5748     H
C      0.32033  0.31687  0.95337     C
C      0.32187  0.59673  0.12403     C
O      0.32203  0.40667  0.88227     O
H      0.32223  0.26177  0.69217     H
C       0.3223    0.746   0.2272     C
C      0.32267  0.95603  0.25593     C
C      0.32287  0.36583  0.38083     C
H      0.32313  0.93067  0.36467     H
C      0.32317  0.41993  0.75293     C
C      0.32353  0.11967  0.38127     C
O      0.32353  0.48241  0.10515     O
C      0.32377  0.42793  0.21383     C
H      0.32407  0.03213  0.26053     H
H      0.32443  0.06117  0.40327     H
C      0.32453  0.99817  0.58237     C
H       0.3246   0.0079   0.6728     H
H       0.3249   0.6095   0.2084     H
H      0.32537  0.36543  0.57513     H
H      0.32543  0.98337  0.33947     H
C      0.32553  0.12657  0.41447     C
C       0.3256   0.3945   0.0946     C
C       0.3258   0.9762   0.9316     C
C      0.32637  0.32453  0.41763     C
H       0.3265   0.0146   0.9012     H
C       0.3265   0.8999   0.0526     C
C      0.32703  0.27997  0.70797     C
C      0.32707  0.63163  0.12383     C
H      0.32727  0.36993  0.67203     H
C      0.32743  0.23297  0.96797     C
C       0.3278   0.9331   0.9697     C
C       0.3282   0.7811   0.2269     C
H      0.32833  0.21467  0.90527     H
H       0.3286   0.9195    0.625     H
C      0.32863  0.38017  0.92277     C
C       0.3287   0.6335   0.2091     C
C       0.3288   0.9776   0.7465     C
O       0.3296  0.88851  0.17209     O
O       0.3298   0.9056  0.24433     O
C      0.32987  0.34633  0.62003     C
C      0.33003  0.95197  0.37697     C
C      0.33057  0.40153  0.33123     C
C      0.33113  0.26497  0.95097     C
C       0.3315   0.3403   0.0843     C
O      0.33187  0.44393  0.81543     O
C      0.33263  0.98407  0.36147     C
C      0.33303  0.92267  0.42577     C
C      0.33363  0.41067  0.90757     C
C      0.33403  0.34927  0.97187     C
O       0.3348   0.8894   0.5179     O
C      0.33517  0.99303  0.24903     C
C      0.33553  0.06837  0.38237     C
C       0.3361   0.9318   0.0021     C
C      0.33663  0.38137  0.95637     C
C       0.3368    0.987   0.7133     C
O      0.33687  0.42773    0.089     O
O      0.33707  0.44482  0.16124     O
C      0.33787  0.35573  0.58683     C
C      0.33797  0.69983  0.12423     C
C      0.33803  0.95317  0.41057     C
H      0.33807  0.41383  0.70833     H
H      0.33833  0.11867  0.42807     H
C      0.33847  0.55223  0.10643     C
C      0.33887  0.40023  0.36363     C
C      0.33923  0.10037  0.36537     C
H       0.3394   0.9634   0.6613     H
C       0.3396   0.7017   0.2095     C
C      0.33963  0.05337  0.62537     C
H      0.34017  0.31873  0.43213     H
C      0.34017  0.43343  0.28073     C
C       0.3403   0.0088   0.9157     C
C      0.34087  0.35713  0.40173     C
C      0.34107  0.93883  0.23873     C
C      0.34113  0.20677  0.91887     C
H      0.34123  0.34997  0.99387     H
H       0.3413   0.9679   0.7582     H
H      0.34177  0.72383  0.12493     H
H      0.34207  0.32543  0.66053     H
C      0.34213  0.33517  0.75097     C
H      0.34223  0.27217  0.93007     H
H       0.3426   0.3012   0.0728     H
C       0.3429   0.9054   0.1195     C
C      0.34313  0.21367  0.95207     C
O      0.34314  0.85092  0.22818     O
C       0.3435   0.9134   0.5804     C
H      0.34353  0.40267  0.96867     H
C       0.3438   0.9675   0.9525     C
C        0.344   0.3773   0.0774     C
C      0.34437  0.58733  0.10613     C
H      0.34443  0.07157  0.64117     H
O      0.34463  0.92667  0.45107     O
C       0.3448   0.7366   0.2093     C
C      0.34633  0.01647  0.37997     C
H      0.34657  0.43933  0.75853     H
O      0.34773  0.43747  0.92637     O
H      0.34793  0.35477  0.76547     H
H      0.34817  0.03693  0.11833     H
C      0.34827  0.03213  0.09583     C
C      0.34837  0.43363  0.31463     C
C      0.34857  0.33263  0.63853     C
H      0.34873  0.11097  0.27297     H
C      0.34893  0.04997  0.36637     C
C       0.3491   0.9271   0.6111     C
C      0.34927  0.01523  0.02813     C
C       0.3496   0.3258   0.0684     C
C       0.3498   0.3368   0.2867     C
H      0.34997  0.00873  0.00613     H
C      0.35053  0.98507  0.42917     C
C       0.3512   0.3288   0.2535     C
H      0.35303  0.18547  0.88317     H
H      0.35357  0.54623  0.09403     H
H       0.3541   0.9531   0.0127     H
C      0.35413  0.10997  0.33507     C
C       0.3545   0.9092   0.1517     C
H      0.35477  0.00683  0.23453     H
H      0.35543  0.98517  0.45167     H
C      0.35573  0.01787  0.41317     C
H      0.35583  0.13047  0.32407     H
C      0.35603  0.19007  0.90587     C
C       0.3563  0.80771   0.2085     C
C      0.35713  0.01627  0.59827     C
C      0.35863  0.29587  0.72437     C
C      0.35897  0.45113  0.22423     C
C      0.36187  0.66203  0.12423     C
C       0.3621   0.6604   0.2095     C
C       0.3622   0.9708   0.6712     C
In     0.36226   0.8898  0.46994    In
C      0.36253  0.05807  0.33787     C
C       0.3629   0.8444   0.2097     C
C        0.363   0.9135   0.5275     C
C       0.3633   0.9228   0.0629     C
H      0.36397  0.60543  0.09373     H
C      0.36473  0.20417  0.97037     C
H      0.36543  0.04007  0.42487     H
C      0.36547  0.35053  0.57083     C
H      0.36547  0.37473  0.40613     H
C      0.36557  0.43273  0.37723     C
C      0.36583  0.04297  0.61917     C
C       0.3665   0.6952   0.2091     C
C      0.36663  0.32267  0.74407     C
C      0.36717  0.45363  0.25893     C
C      0.36733  0.08797  0.32037     C
O      0.36741  0.95829  0.22215     O
C       0.3677   0.9844   0.6997     C
C      0.36837  0.69543  0.12383     C
C       0.3687   0.9256   0.5589     C
H      0.36883  0.21037  0.99287     H
C      0.36893  0.10857  0.26667     C
H      0.36993  0.04267  0.32797     H
H      0.37027  0.35543  0.54833     H
H       0.3706   0.6129   0.1779     H
C       0.3708   0.3961   0.0577     C
H      0.37083  0.12717  0.22087     H
C      0.37127  0.46363  0.33013     C
H      0.37137  0.43293  0.39963     H
C       0.3715   0.9251   0.0966     C
C       0.3723   0.7637   0.1908     C
Eu     0.37299  0.90881  0.21163    Eu
H       0.3734   0.3413   0.2418     H
H        0.374   0.2378   0.0717     H
H      0.37473  0.00927  0.59387     H
O      0.37504  0.07578  0.88882     O
H      0.37533  0.28737  0.72147     H
H        0.376   0.3394   0.3387     H
C      0.37603  0.17867  0.92277     C
C       0.3763   0.3438   0.0475     C
C       0.3773   0.0333   0.9226     C
H      0.37757  0.46523  0.20903     H
C      0.37807  0.33003  0.62303     C
C       0.3791   0.7996   0.1904     C
H       0.3793   0.4213   0.0548     H
H      0.37967  0.48623  0.31943     H
C      0.38017  0.05153  0.07723     C
H      0.38023  0.06767  0.67937     H
C      0.38023  0.18617  0.95587     C
C       0.3804   0.9937   0.9587     C
C      0.38063  0.11687  0.23537     C
C       0.3807     0.95   0.6221     C
C      0.38137  0.04473  0.04363     C
H       0.3819   0.9362   0.0475     H
H      0.38207  0.65823  0.12493     H
O      0.38307  0.87453  0.42203     O
C      0.38317  0.46333  0.36093     C
C       0.3833   0.3677   0.3003     C
C      0.38333  0.09737  0.28877     C
O      0.38442  0.92836  0.16104     O
C      0.38487  0.33803  0.58943     C
H       0.3862   0.1982   0.1033     H
C       0.3867   0.3804   0.0413     C
H       0.3871   0.7577   0.1779     H
O      0.38711  0.15215  0.87887     O
C       0.3873    0.966   0.6537     C
O      0.38827   0.8689  0.19338     O
O       0.3897   0.9294   0.5078     O
H       0.3905   0.7154   0.2084     H
H      0.39117  0.46923  0.26633     H
C       0.3914   0.3622   0.3288     C
C       0.3914   0.6277   0.1908     C
C       0.3918   0.6552   0.2093     C
H      0.39247  0.32313  0.63533     H
H      0.39373  0.12297  0.77057     H
C      0.39373  0.16117  0.90757     C
H       0.3938   0.9889   0.9745     H
H      0.39393  0.17867  0.96867     H
C       0.3945   0.0689   0.9054     C
H       0.3945   0.4034   0.2634     H
H      0.39457  0.75853  0.09373     H
C       0.3947   0.3278   0.0303     C
H       0.3949   0.2953   0.0663     H
C        0.395    0.236   0.0673     C
H       0.3959   0.9396   0.1039     H
C       0.3961   0.0253   0.9423     C
H      0.39713  0.11237  0.71417     H
H       0.3987   0.8178   0.1781     H
C       0.3995   0.9978   0.7157     C
C      0.40023  0.06137  0.63637     C
C       0.4005   0.3011   0.0439     C
H        0.401   0.3541   0.9873     H
C      0.40153  0.07097  0.66877     C
C       0.4016   0.2113   0.0855     C
C       0.4017   0.3995   0.2843     C
C      0.40223  0.34107  0.76127     C
H      0.40267  0.05913  0.03133     H
C       0.4029   0.9527   0.5687     C
C      0.40327  0.72513  0.12403     C
H       0.4034   0.0089   0.7366     H
O      0.40393  0.12697  0.17447     O
C       0.4043   0.3361   0.9979     C
H       0.4049   0.3938   0.0255     H
O      0.40497  0.12273  0.82771     O
H      0.40507  0.53263  0.34603     H
O       0.4062   0.9189  0.25759     O
C      0.40623  0.08867  0.27777     C
C       0.4063   0.9644      0.6     C
O      0.40667  0.08463  0.11773     O
C      0.40773  0.10977  0.22557     C
C      0.40823  0.11307  0.76327     C
C      0.40857  0.49493  0.37583     C
H       0.4091   0.3286    0.375     H
O      0.40911  0.36741  0.77785     O
C      0.40937  0.89833  0.42953     C
C      0.41037  0.33303  0.57423     C
C      0.41053  0.10717  0.72957     C
C      0.41067  0.07703  0.09243     C
H       0.4114   0.2755    0.933     H
O      0.41147  0.91923  0.45133     O
C      0.41267  0.75703  0.10613     C
C       0.4135   0.2835   0.0276     C
H      0.41383  0.07577  0.29167     H
O       0.4141   0.1589    0.118     O
O      0.41443  0.15397  0.92426     O
C      0.41577  0.52993  0.36543     C
H      0.41607  0.85713  0.38043     H
O      0.41797  0.34463  0.54893     O
C       0.4186   0.3183   0.9813     C
H       0.4191   0.6013   0.1781     H
C       0.4197   0.2581   0.0425     C
C       0.4198   0.2995   0.9256     C
C      0.41983  0.11617  0.19417     C
C      0.41993  0.09677  0.24707     C
C       0.4205   0.6209   0.1904     C
H        0.421   0.2891   0.8757     H
H       0.4213    0.042   0.9452     H
C       0.4213   0.3873   0.3463     C
C        0.422   0.3491   0.3889     C
C       0.4225   0.9792   0.6684     C
H        0.423   0.9625   0.5542     H
O      0.42307  0.31893  0.59303     O
C       0.4237   0.6777   0.2272     C
C      0.42413  0.11197  0.81837     C
O      0.42419   0.3298  0.75567     O
H      0.42437  0.70393  0.15543     H
Eu     0.42453  0.13085  0.87829    Eu
H       0.4252   0.6973   0.2396     H
C       0.4255   0.3077   0.8909     C
C       0.4257   0.2954   0.9968     C
H       0.4261   0.3201   0.4252     H
C       0.4266   0.3265   0.9474     C
O      0.42773  0.09086    0.911     O
C       0.4278   0.9941   0.6987     C
C      0.42793  0.10417  0.78617     C
H      0.42887  0.46953  0.40503     H
H       0.4289   0.9846   0.6063     H
C       0.4301   0.3435   0.4196     C
C      0.43037  0.72473  0.14253     C
C      0.43067  0.49233  0.40063     C
C       0.4307   0.3807   0.3779     C
C       0.4315   0.2063   0.0766     C
O       0.4317  0.94622   0.2122     O
C      0.43273  0.06717  0.62277     C
H      0.43293  0.06157  0.60037     H
C      0.43343  0.09327  0.71927     C
C      0.43363  0.08527  0.68537     C
C       0.4337   0.4278   0.3013     C
C       0.4341   0.9396   0.2409     C
C        0.435   0.1777   0.0962     C
O      0.43747  0.08973  0.07363     O
C       0.4375   0.3429   0.8805     C
C      0.43877  0.87823  0.38473     C
H      0.43933  0.09277  0.24147     H
C      0.43947  0.56123  0.38473     C
H       0.4399    0.287   0.9861     H
C       0.4405   0.3633   0.9371     C
H      0.44107  0.58393  0.38043     H
O      0.44109   0.3296  0.82791     O
H       0.4413   0.9775   0.6574     H
C      0.44147  0.90183  0.40993     C
C       0.4419   0.4063      0.4     C
C       0.4431   0.3687   0.4411     C
C       0.4433   0.4225   0.3316     C
In     0.44353  0.13912  0.13661    In
O      0.44393  0.11207  0.18457     O
H       0.4443   0.4289   0.3937     H
O      0.44482  0.10776  0.83876     O
C       0.4453   0.3545   0.8483     C
O       0.4454   0.3348   0.4821     O
H       0.4457   0.3819   0.9525     H
C       0.4464   0.3715   0.9034     C
H        0.447    0.995   0.7614     H
C       0.4475   0.2509   0.0321     C
C      0.44777  0.78623  0.10643     C
C       0.4495    0.363   0.4725     C
C       0.4502   0.4029   0.4313     C
C      0.45113  0.09217  0.77577     C
H       0.4514   0.9394    0.302     H
C      0.45141   0.6437   0.2085     C
H        0.452    0.447   0.2386     H
C       0.4529   0.6718   0.2269     C
C        0.453   0.4628   0.2854     C
C      0.45363  0.08647  0.74107     C
H      0.45377  0.80733  0.09403     H
C       0.4551   0.2272   0.0514     C
C      0.45537  0.52363  0.41883     C
O      0.45606  0.38442  0.83896     O
H       0.4563   0.3959   0.8961     H
H       0.4563   0.4918   0.3262     H
O       0.4588   0.1752   0.0887     O
C       0.4599   0.4677   0.2522     C
O       0.4603   0.3897   0.4922     O
C      0.46037  0.55853  0.40993     C
H       0.4605    0.423   0.4458     H
H       0.4609   0.2616   0.0127     H
C       0.4625   0.4939   0.3037     C
C       0.4628   0.0098   0.7146     C
C      0.46333  0.08017  0.63907     C
C      0.46363  0.09237  0.66987     C
H       0.4638   0.4413   0.3426     H
Eu     0.46418  0.37299  0.78837    Eu
O      0.46443  0.18604  0.86005     O
H      0.46523  0.08767  0.79097     H
C      0.46627  0.75383  0.14293     C
H      0.46737  0.87243  0.34603     H
C       0.4677   0.0078   0.7478     C
H      0.46847  0.52133  0.43663     H
H      0.46923  0.07807  0.73367     H
C       0.4693   0.9573   0.2561     C
H      0.46953  0.04067  0.59497     H
C      0.47007  0.88583  0.36543     C
In     0.47245  0.36226  0.53006    In
C       0.4726   0.9531   0.2892     C
H        0.474   0.6869   0.2393     H
C      0.47438  0.78474  0.12483     C
H       0.4762   0.2256   0.0471     H
C      0.47637  0.93173  0.41883     C
C       0.4766   0.4993   0.2392     C
H      0.47867  0.94713  0.43663     H
C       0.4805   0.5274   0.2892     C
O      0.48063  0.61173  0.19338     O
H       0.4812   0.5009   0.2165     H
C       0.4815   0.6371   0.2097     C
O      0.48241  0.15889  0.89485     O
H      0.48447  0.75243  0.15523     H
O      0.48548   0.4317   0.7878     O
H      0.48623  0.10657  0.68057     H
O       0.4873   0.4062  0.74241     O
C        0.488   0.5307   0.2561     C
H        0.488   0.5486    0.302     H
C      0.48893  0.18517  0.87637     C
C      0.48897  0.59063  0.42953     C
O      0.49147  0.61693  0.42203     O
H       0.4918   0.0355   0.6738     H
O      0.49222  0.34314  0.77182     O
O      0.49223  0.41147  0.54867     O
C      0.49233  0.06167  0.59937     C
C       0.4939   0.0314   0.6963     C
C       0.4945   0.4341   0.7591     C
C      0.49493  0.08637  0.62417     C
H       0.4991   0.9803   0.2165     H
C       0.4993   0.0227   0.7608     C
C       0.5007   0.9773   0.2392     C
H       0.5009   0.0197   0.7835     H
C      0.50507  0.91363  0.37583     C
C       0.5055   0.5659   0.2409     C
C       0.5061   0.9686   0.3037     C
C      0.50767  0.93833  0.40063     C
O      0.50777  0.58853  0.45133     O
O      0.50778  0.65686  0.22818     O
H       0.5082   0.9645   0.3262     H
O      0.50853  0.38307  0.57797     O
C      0.51103  0.40937  0.57047     C
C      0.51107  0.81483  0.12363     C
H        0.512   0.4514    0.698     H
C        0.512   0.4693   0.7439     C
O       0.5127   0.5938  0.25759     O
H      0.51377  0.89343  0.31943     H
O      0.51452   0.5683   0.2122     O
H      0.51553  0.24757  0.84477     H
O      0.51759  0.84111  0.10515     O
C       0.5185   0.3629   0.7903     C
H       0.5188   0.4991   0.7835     H
O      0.51937  0.38827  0.80662     O
C       0.5195   0.4726   0.7108     C
H      0.52133  0.05287  0.56337     H
C       0.5234   0.5007   0.7608     C
C      0.52363  0.06827  0.58117     C
H       0.5238   0.7744   0.9529     H
C      0.52562  0.21526  0.87517     C
H        0.526   0.3131   0.7607     H
C       0.5274   0.0469   0.7108     C
In     0.52755  0.63774  0.46994    In
C      0.52993  0.11417  0.63457     C
H      0.53047  0.95933  0.40503     H
C       0.5307   0.0427   0.7439     C
H      0.53077  0.92193  0.26633     H
H      0.53153  0.47867  0.56337     H
C       0.5323   0.9922   0.2522     C
H      0.53263  0.12757  0.65397     H
C      0.53373  0.24617  0.85707     C
H      0.53477  0.91233  0.20903     H
O      0.53557  0.81396  0.13995     O
Eu     0.53582  0.62701  0.21163    Eu
H       0.5362   0.5587   0.6574     H
C      0.53637  0.90763  0.33013     C
C      0.53667  0.91983  0.36093     C
C       0.5372   0.9902   0.2854     C
C       0.5375   0.5061   0.6963     C
H       0.5391   0.7384   0.9873     H
H       0.5395    0.577   0.5542     H
C      0.53963  0.44147  0.59007     C
O       0.5397   0.6103   0.5078     O
C       0.5401   0.5323   0.7478     C
O       0.5412   0.8248   0.9113     O
H       0.5437   0.5082   0.6738     H
H       0.5437   0.6041   0.1039     H
O      0.54394  0.61558  0.16104     O
C      0.54463  0.47637  0.58117     C
C       0.5449   0.7728   0.9486     C
H      0.54623  0.19267  0.90597     H
C      0.54637  0.91353  0.25893     C
C        0.547   0.5372   0.7146     C
C       0.5471   0.3282   0.7731     C
H        0.548    0.553   0.7614     H
C      0.54859   0.3563   0.7915     C
H       0.5486   0.0606    0.698     H
C      0.54887  0.90783  0.22423     C
C       0.5498   0.5971   0.5687     C
C       0.5505    0.637   0.5275     C
C      0.55223  0.21377  0.89357     C
C       0.5525   0.7491   0.9679     C
H        0.553    0.005   0.2386     H
C       0.5536   0.6285   0.0966     C
H       0.5543   0.6181   0.0475     H
O       0.5546   0.6652   0.5179     O
C       0.5547   0.6455   0.1517     C
O      0.55518  0.89224  0.16124     O
H       0.5557   0.5711   0.6063     H
O      0.55607  0.88793  0.81543     O
In     0.55647  0.86088  0.86339    In
C       0.5567   0.5775   0.6684     C
C       0.5569   0.6313   0.5589     C
C       0.5581   0.5937      0.6     C
C      0.55853  0.09817  0.59007     C
H       0.5587   0.0225   0.3426     H
O      0.55891   0.6704  0.17209     O
H      0.55893  0.41607  0.61957     H
C       0.5595   0.6367   0.0629     C
H       0.5601    0.713   0.0139     H
C      0.56053  0.43877  0.61527     C
H      0.56067  0.90723  0.75853     H
C      0.56123  0.12177  0.61527     C
C       0.5625   0.6571   0.1195     C
O      0.56253  0.91027  0.92637     O
C        0.565   0.8223   0.9038     C
C       0.5659   0.0604   0.7591     C
C       0.5663   0.5722   0.6987     C
C      0.56637  0.91473  0.31463     C
C      0.56657  0.90673  0.28073     C
H      0.56707  0.93843  0.39963     H
C      0.56727  0.93283  0.37723     C
O       0.5683  0.05378   0.7878     O
C       0.5685   0.7937   0.9234     C
C       0.5693   0.6193   0.6221     C
C      0.56933  0.50767  0.59937     C
C      0.56963  0.27527  0.85747     C
C       0.5699   0.6565   0.5804     C
H       0.5711   0.0154   0.3937     H
H      0.57113  0.53047  0.59497     H
C      0.57207  0.89583  0.21383     C
C       0.5722   0.0059   0.3013     C
O      0.57227  0.90914    0.089     O
C       0.5734   0.6735   0.0526     C
H       0.5739   0.6799   0.5748     H
C       0.5743   0.7046   0.0032     C
C       0.5745   0.6923   0.1091     C
H       0.5748   0.3027   0.7604     H
Eu     0.57547  0.86915  0.12171    Eu
H      0.57563  0.29607  0.84457     H
O      0.57581   0.6702  0.24433     O
C      0.57587  0.88803  0.18163     C
C       0.5763   0.3223   0.7728     C
O      0.57693  0.68107  0.40697     O
H        0.577   0.0375   0.4458     H
C       0.5775   0.0208   0.3316     C
C        0.578   0.6509   0.6111     C
C       0.5787   0.6127   0.6537     C
H       0.5787    0.958   0.0548     H
H        0.579   0.7109   0.1243     H
C       0.5795   0.3791   0.8096     C
C      0.58007  0.90323  0.75293     C
C      0.58017  0.88383  0.80583     C
C       0.5802   0.7005   0.0744     C
C       0.5803   0.7419   0.9575     C
H       0.5809   0.3987   0.8219     H
C       0.5814   0.6817   0.0187     C
O      0.58203  0.65537  0.45107     O
H      0.58393  0.14287  0.61957     H
C      0.58423  0.47007  0.63457     C
O      0.58557  0.84603  0.07574     O
O       0.5859   0.8411    0.882     O
H      0.58617  0.92423  0.70833     H
C       0.5865   0.7165   0.9724     C
C      0.58733  0.24297  0.89387     C
O      0.58853  0.08077  0.54867     O
H       0.5886   0.7245    0.067     H
C      0.58933  0.92297  0.90757     C
C      0.58947  0.89283  0.27043     C
C      0.58963  0.66697  0.42577     C
C      0.59063  0.10167  0.57047     C
O      0.59089  0.63259  0.22215     O
H       0.5909   0.6714    0.625     H
C      0.59143  0.50507  0.62417     C
C      0.59177  0.88693  0.23673     C
C      0.59227  0.89023  0.77443     C
O      0.59333  0.91537  0.88227     O
C       0.5937   0.0356      0.4     C
C      0.59377  0.91133  0.72223     C
O       0.5938   0.0811  0.74241     O
H      0.59493  0.46737  0.65397     H
O      0.59503  0.87727  0.17229     O
H       0.5951   0.6062   0.9745     H
C       0.5957   0.6639   0.0021     C
O      0.59607  0.87303  0.82553     O
H       0.5966   0.9911   0.2634     H
C      0.59673  0.27487  0.87597     C
C       0.5971   0.0473   0.4313     C
H      0.59733  0.94087  0.96867     H
C      0.59777  0.65893  0.23873     C
C       0.5983   0.6005   0.7157     C
C       0.5984   0.7887   0.9145     C
C      0.59847  0.92903  0.33123     C
H        0.599   0.6459   0.0127     H
C       0.5995   0.6989   0.9561     C
C      0.59977  0.93863  0.36363     C
C       0.6005   0.0022   0.2843     C
H       0.6013   0.1822   0.8219     H
H      0.60287  0.88763  0.28583     H
C       0.6039   0.9747   0.0577     C
H       0.6041   0.0604   0.8961     H
C        0.605    0.764   0.9327     C
H       0.6051   0.7047   0.9337     H
C       0.6053   0.6722   0.9697     C
H      0.60543  0.24147  0.90627     H
H       0.6055   0.5966   0.7366     H
C       0.6055   0.9311   0.0946     C
H      0.60607  0.82133  0.03133     H
H       0.6062   0.0111   0.0255     H
C      0.60627  0.83883  0.09243     C
H      0.60627  0.87703  0.22943     H
H      0.60753  0.67687  0.36467     H
C       0.6082   0.3448   0.7907     C
C       0.6086   0.3723   0.8092     C
C       0.6086   0.6378   0.6712     C
H      0.60883  0.53077  0.73367     H
H       0.6095   0.2846   0.7916     H
O       0.6103   0.0706   0.4922     O
O      0.61173   0.1311  0.80662     O
C       0.6127    0.034   0.3463     C
O      0.61289  0.84785  0.12113     O
H       0.6129   0.2423   0.8221     H
C       0.6133   0.6196   0.9587     C
H       0.6138   0.8018   0.8967     H
C      0.61513  0.66197  0.41057     C
O      0.61558  0.07164  0.83896     O
C      0.61667  0.90263  0.71123     C
C       0.6167   0.6323   0.6997     C
C      0.61683  0.53667  0.63907     C
O      0.61693  0.12547  0.57797     O
H      0.61793  0.34177  0.87507     H
H       0.6181   0.0638   0.9525     H
C      0.61863  0.95527  0.95637     C
C       0.6193     0.05   0.3779     C
C      0.61937  0.88313  0.76463     C
C       0.6196   0.0063   0.0413     C
C      0.61977  0.81383  0.04413     C
H      0.61977  0.93233  0.32063     H
C      0.61983  0.94847  0.92277     C
H      0.62033  0.51377  0.68057     H
H       0.6207   0.5787   0.9452     H
C       0.6209   0.2004   0.8096     C
C      0.62193  0.66997  0.37697     C
H      0.62243  0.53477  0.79097     H
C       0.6227   0.9667   0.0774     C
C       0.6237   0.6562   0.9525     C
C      0.62397  0.82133  0.07723     C
H        0.624   0.6606   0.6613     H
H      0.62467  0.71263  0.27853     H
O      0.62496  0.92422  0.11118     O
H      0.62527  0.99073  0.40613     H
H        0.626   0.7622   0.9283     H
H       0.6266   0.6587   0.7582     H
Eu     0.62701   0.0912  0.78837    Eu
C       0.6277   0.2363   0.8092     C
C       0.6285   0.0749   0.9034     C
H      0.62863  0.56707  0.60037     H
C      0.62873  0.53637  0.66987     C
H      0.62917  0.87283  0.77913     H
C       0.6292   0.6039   0.9423     C
H       0.6294   0.3871   0.8221     H
H      0.62973  0.64457  0.45167     H
H      0.63007  0.95733  0.67203     H
C      0.63107  0.89143  0.73333     C
H      0.63117  0.78963  0.00713     H
C       0.6313   0.0744   0.4411     C
C      0.63163  0.30457  0.87617     C
C       0.6323   0.0156   0.3003     C
O      0.63259  0.04171  0.77785     O
C      0.63267  0.91203  0.67963     C
C      0.63283  0.54637  0.74107     C
C      0.63337  0.67733  0.25593     C
C       0.6335   0.3048   0.7909     C
C      0.63417  0.95703  0.38083     C
C      0.63443  0.56727  0.62277     C
H      0.63453  0.62527  0.59387     H
C      0.63453  0.64947  0.42917     C
H      0.63457  0.95993  0.57513     H
C      0.63527  0.79583  0.02963     C
H      0.63603  0.39457  0.90627     H
C       0.6367   0.0772   0.9371     C
C        0.637   0.0865   0.4725     C
C       0.6371   0.1556   0.7903     C
C      0.63747  0.94193  0.66213     C
In     0.63774   0.1102  0.53006    In
C       0.6378   0.0292   0.3288     C
C       0.6379   0.3396   0.7905     C
C      0.63813  0.33797  0.87577     C
C      0.64103  0.54887  0.77577     C
C      0.64137  0.70413  0.27563     C
C      0.64287  0.98373  0.40173     C
C       0.6437  0.19229   0.7915     C
C      0.64397  0.80993  0.09413     C
H      0.64417  0.86953  0.67593     H
C      0.64427  0.98213  0.58683     C
H      0.64457  0.01483  0.54833     H
H      0.64523  0.99317  0.76547     H
C       0.6455   0.0908   0.8483     C
C      0.64587  0.89003  0.66493     C
H       0.6459   0.0469   0.9873     H
H      0.64643  0.45377  0.90597     H
H      0.64697  0.81453  0.11683     H
C       0.6488   0.6712   0.7465     C
C      0.64947  0.01493  0.57083     C
H      0.65003  0.99127  0.99387     H
C       0.6502   0.6632   0.7133     C
C       0.6504   0.6742   0.9316     C
C      0.65073  0.98477  0.97187     C
C       0.6509   0.0729   0.3889     C
C      0.65107  0.95003  0.63363     C
H      0.65127  0.88903  0.72703     H
C      0.65143  0.66737  0.36147     C
C      0.65163  0.56637  0.68537     C
C      0.65173  0.96787  0.90417     C
H      0.65183  0.96307  0.88167     H
H      0.65207  0.64523  0.23453     H
O      0.65227  0.56253  0.07363     O
H      0.65343  0.56067  0.24147     H
C      0.65367  0.98353  0.62003     C
C       0.6552   0.2634   0.7907     C
O      0.65537  0.07333  0.54893     O
H      0.65557  0.92843  0.35883     H
C      0.65563  0.41267  0.89387     C
C        0.656   0.6227   0.9226     C
C       0.6562   0.0325   0.0475     C
H      0.65647  0.59733  0.03133     H
C       0.6565   0.0866   0.4196     C
O      0.65686  0.14908  0.77182     O
C      0.65687  0.78633  0.04793     C
C       0.6571   0.0946   0.8805     C
H       0.6574   0.6988   0.9272     H
H      0.65777  0.72783  0.06993     H
C      0.65787  0.66483  0.24903     C
H      0.65793  0.67457  0.33947     H
H      0.65823  0.27617  0.87507     H
H       0.6587   0.0321   0.2418     H
H      0.65877  0.65003  0.00613     H
C      0.65887  0.79323  0.08113     C
C      0.65893  0.06117  0.76127     C
C      0.65913  0.64287  0.59827     C
C       0.6597   0.9912   0.0843     C
C      0.65983  0.56657  0.71927     C
H      0.65983  0.68127  0.56787     H
C      0.66037  0.94663  0.37463     C
C       0.6604   0.2983   0.7905     C
H       0.6606   0.0366   0.3387     H
C      0.66077  0.89963  0.63463     C
C      0.66113  0.59977  0.63637     C
C      0.66153  0.44777  0.89357     C
H      0.66167  0.88133  0.57193     H
H      0.66193  0.58617  0.29167     H
C      0.66197  0.04683  0.58943     C
C      0.66203  0.30017  0.87577     C
C      0.66213  0.64427  0.41317     C
O      0.66293  0.55518  0.83876     O
O      0.66313  0.57227    0.911     O
C       0.6632    0.013   0.2867     C
C      0.66337  0.61863  0.04363     C
C       0.6639   0.0682   0.9979     C
C      0.66447  0.93163  0.61763     C
C      0.66483  0.00697  0.75097     C
O       0.6652   0.1106   0.4821     O
C      0.66597  0.65073  0.02813     C
C      0.66637  0.58933  0.09243     C
C      0.66697  0.07733  0.57423     C
C      0.66737  0.01593  0.63853     C
O      0.66813  0.55607  0.18457     O
C       0.6685   0.6597   0.9157     C
C      0.66887  0.73503  0.04903     C
C      0.66943  0.59847  0.66877     C
C      0.66997  0.04803  0.62303     C
C      0.67013  0.65367  0.37997     C
O       0.6702   0.0944  0.75567     O
O       0.6704  0.11149  0.82791     O
C       0.6712   0.0224   0.2535     C
C       0.6713   0.3665   0.7909     C
C      0.67137  0.61983  0.07723     C
H       0.6714   0.0805    0.375     H
H      0.67167  0.78533  0.09473     H
C       0.6718   0.2189   0.7731     C
C       0.6722   0.0669   0.0303     C
C      0.67257  0.76703  0.03203     C
H      0.67273  0.63007  0.32797     H
C      0.67293  0.36837  0.87617     C
C      0.67297  0.72003  0.29203     C
C       0.6735   0.1001   0.9474     C
H       0.6735   0.9854   0.0988     H
C      0.67363  0.67547  0.58237     C
C       0.6742   0.0238   0.0684     C
C       0.6744   0.6055   0.9054     C
C      0.67447  0.87343  0.58553     C
H      0.67457  0.01663  0.66053     H
H      0.67463  0.63457  0.42487     H
H       0.6751   0.3905   0.7916     H
H       0.6754   0.9921   0.3272     H
C      0.67547  0.00183  0.41763     C
H      0.67557  0.93883  0.59673     H
H      0.67593  0.96787  0.73947     H
C      0.67623  0.57207  0.78617     C
O      0.67647  0.51759  0.89485     O
C      0.67647  0.88033  0.61873     C
C      0.67683  0.58007  0.24707     C
H      0.67687  0.06933  0.63533     H
C      0.67713  0.63417  0.61917     C
C      0.67733  0.04397  0.74407     C
C       0.6777    0.254   0.7728     C
H      0.67777  0.73823  0.30783     H
O      0.67797  0.59333  0.11773     O
C      0.67813  0.40327  0.87597     C
C      0.67967  0.68313  0.04663     C
H       0.6799    0.106   0.4252     H
O      0.68107  0.10413  0.59303     O
H      0.68127  0.02143  0.43213     H
H       0.6815   0.7036    0.785     H
C       0.6816   0.6988   0.7625     C
C       0.6817   0.1003   0.9813     C
C       0.6819   0.9993   0.3052     C
H      0.68207  0.77763  0.93963     H
C      0.68227  0.71663  0.03303     C
C      0.68243  0.59377  0.27777     C
C       0.6826   0.6819   0.6948     C
C      0.68293  0.99247  0.73507     C
C      0.68313  0.00347  0.95337     C
H       0.6833   0.6754   0.6728     H
C      0.68387  0.65173  0.09583     C
C      0.68453  0.99547  0.92017     C
H      0.68637  0.85213  0.54983     H
H       0.6869   0.2129   0.7607     H
H      0.68743  0.61977  0.67937     H
C      0.68747  0.77663  0.00173     C
C      0.68783  0.57587  0.81837     C
H       0.6881   0.6735   0.9012     H
H      0.68877  0.65183  0.11833     H
C      0.68907  0.68453  0.07983     C
H      0.68917  0.79713  0.99073     H
C      0.68937  0.85673  0.57253     C
C      0.68963  0.47438  0.87517     C
C      0.69047  0.68293  0.26493     C
C      0.69197  0.96253  0.39103     C
C       0.6923   0.1178   0.8909     C
C       0.6952   0.3287   0.7909     C
C      0.69543  0.32707  0.87617     C
C      0.69553  0.63747  0.33787     C
In     0.69559  0.55647  0.13661    In
C      0.69587  0.72473  0.00453     C
C      0.69623  0.51107  0.87637     C
C      0.69633  0.58017  0.19417     C
C      0.69663  0.58947  0.72957     C
H       0.6973   0.2721   0.7604     H
C      0.69807  0.87083  0.63703     C
H      0.69877  0.70673  0.09153     H
C       0.6988   0.0172   0.2375     C
H       0.6988   0.0414   0.0728     H
C       0.6989   0.0994   0.0439     C
C      0.69917  0.70963  0.28583     C
C      0.69983  0.36187  0.87577     C
C      0.69997  0.98933  0.41073     C
C       0.7005   0.1203   0.9256     C
C      0.70067  0.75463  0.98703     C
O      0.70074  0.62496  0.88882     O
C      0.70103  0.65107  0.36637     C
C       0.7017   0.3621   0.7905     C
C      0.70203  0.59227  0.22557     C
H      0.70217  0.87703  0.65953     H
C      0.70227  0.77523  0.93333     C
H      0.70327  0.70933  0.99463     H
H       0.7036   0.0221    0.215     H
H      0.70393  0.27957  0.84457     H
C      0.70413  0.06277  0.72437     C
H      0.70417  0.79383  0.88753     H
C       0.7046   0.1303   0.9968     C
H       0.7047   0.0996   0.0663     H
C      0.70483  0.59177  0.76327     C
C      0.70563  0.43037  0.85747     C
Eu     0.70632  0.57547  0.87829    Eu
H      0.70673  0.00797  0.90847     H
H      0.70733  0.90447  0.73837     H
H      0.70807  0.67593  0.26053     H
O      0.70837  0.74245  0.55549     O
H      0.70867  0.95403  0.38813     H
H      0.70933  0.00607  0.00537     H
C      0.70937  0.84533  0.58943     C
C      0.70963  0.01047  0.71417     C
C      0.71063  0.69997  0.58927     C
H       0.7109   0.1319   0.8757     H
C       0.7114   0.9967   0.2897     C
C      0.71243  0.46627  0.85707     C
H      0.71263  0.08797  0.72147     H
H        0.713   0.1529   0.9861     H
C       0.7135   0.7182   0.7439     C
H      0.71357  0.73433  0.34603     H
C      0.71357  0.85283  0.62253     C
C      0.71373  0.66037  0.62537     C
C      0.71397  0.78353  0.90203     C
C      0.71403  0.61667  0.28877     C
C       0.7147   0.7114   0.7103     C
H      0.71523  0.60287  0.71417     H
H       0.7154   0.3249   0.7916     H
O       0.7164   0.5412   0.0887     O
C       0.7165     0.13   0.0276     C
C      0.71663  0.03437  0.96697     C
C      0.71667  0.76403  0.95543     C
O      0.71775  0.59503  0.82771     O
C       0.7182   0.0047   0.2561     C
H      0.71953  0.86487  0.76997     H
C      0.72003  0.04707  0.70797     C
H      0.72043  0.42437  0.84457     H
O      0.72045  0.81881  0.54553     O
C      0.72063  0.63267  0.32037     C
O       0.7216  0.53557  0.86005     O
O      0.72303  0.59607  0.17447     O
H      0.72383  0.38207  0.87507     H
H       0.7245   0.1359    0.933     H
C      0.72473  0.02887  0.99547     C
C      0.72473  0.29437  0.85747     C
C      0.72513  0.32187  0.87597     C
H       0.7258   0.9898    0.302     H
H      0.72707  0.78963  0.43723     H
C      0.72707  0.82783  0.57423     C
H      0.72713  0.65557  0.64117     H
H      0.72727  0.84533  0.63533     H
H      0.72783  0.07007  0.93007     H
C      0.72783  0.73557  0.57207     C
H       0.7279   0.4252   0.7604     H
C      0.72803  0.99447  0.69697     C
H      0.72823  0.96197  0.73297     H
C      0.72833  0.90267  0.73397     C
H      0.72923  0.60627  0.77057     H
C      0.72943  0.69197  0.60897     C
H      0.73047  0.77903  0.38083     H
H      0.73203  0.48447  0.84477     H
C      0.73283  0.66447  0.38237     C
C      0.73357  0.72803  0.30303     C
C      0.73383  0.96777  0.71057     C
H      0.73433  0.02077  0.65397     H
C      0.73487  0.73763  0.33543     C
C      0.73493  0.87797  0.75217     C
C      0.73503  0.06617  0.95097     C
C      0.73557  0.00773  0.42793     C
H        0.736   0.7258    0.698     H
C      0.73623  0.61937  0.23537     C
C       0.7366   0.3918   0.7907     C
H      0.73673  0.67557  0.40327     H
O      0.73727  0.79363  0.84113     O
C      0.73763  0.00277  0.66457     C
H      0.73823  0.06047  0.69217     H
O      0.73831  0.78939  0.49437     O
H       0.7384   0.1993   0.0127     H
O      0.73953  0.58557  0.92426     O
C      0.73957  0.75533  0.94443     C
C      0.73963  0.63107  0.26667     C
O         0.74   0.7513   0.7844     O
C      0.74107  0.77643  0.89223     C
C      0.74157  0.77973  0.42993     C
C       0.7419   0.1616   0.0425     C
H      0.74243  0.99527  0.04167     H
O      0.74245  0.03407  0.44451     O
C       0.7427    0.565   0.0962     C
C       0.7437   0.9997   0.2409     C
C      0.74387  0.77383  0.39623     C
C        0.744   0.7437   0.7591     C
H      0.74473  0.94217  0.59967     H
O       0.7448   0.5859    0.118     O
C        0.746   0.4237   0.7728     C
C      0.74683  0.95017  0.69427     C
H      0.74717  0.74243  0.95833     H
O      0.74743  0.82557  0.78467     O
O      0.74777  0.82063  0.59092     O
C       0.7491   0.1966   0.0321     C
H       0.7494   0.5238   0.0471     H
O       0.7513   0.0113   0.2156     O
C      0.75193  0.98497  0.64797     C
H      0.75243  0.26797  0.84477     H
C      0.75303  0.92477  0.70917     C
C      0.75313  0.96617  0.59227     C
C      0.75317  0.78283  0.86083     C
C      0.75327  0.76343  0.91373     C
C      0.75383  0.28757  0.85707     C
H      0.75433  0.95577  0.54237     H
C      0.75463  0.05397  0.01297     C
H      0.75463  0.70867  0.61187     H
C      0.75533  0.01577  0.05557     C
C      0.75583  0.64587  0.33507     C
H      0.75633  0.62917  0.22087     H
O       0.7564   0.9856   0.2597     O
C      0.75703  0.34437  0.89387     C
C      0.75747  0.77863  0.48503     C
O      0.75753  0.99646  0.42233     O
H       0.7577   0.3706   0.8221     H
Eu     0.75786  0.79752  0.54496    Eu
H      0.75853  0.36397  0.90627     H
C      0.75883  0.97437  0.55757     C
C      0.75903  0.96207  0.66347     C
H      0.75943  0.98677  0.09187     H
C      0.75993  0.99317  0.61407     C
O      0.76106  0.75753  0.57767     O
C      0.76113  0.66077  0.36537     C
C      0.76127  0.77083  0.45283     C
H       0.7622   0.1362   0.0717     H
H      0.76223  0.65127  0.27297     H
C      0.76343  0.01017  0.08627     C
C       0.7637   0.3914   0.8092     C
C        0.764    0.159   0.0673     C
C      0.76403  0.04737  0.04457     C
C      0.76483  0.87297  0.74327     C
O      0.76503  0.61289  0.87887     O
C      0.76607  0.73383  0.28943     C
H      0.76627  0.72823  0.26703     H
C      0.76677  0.75993  0.38593     C
C      0.76697  0.75193  0.35203     C
C      0.76703  0.09447  0.96797     C
C      0.76743  0.60627  0.90757     C
C      0.76833  0.84437  0.76287     C
O       0.7708   0.7564   0.7403     O
C      0.77083  0.00957  0.54717     C
C       0.7721   0.5449   0.0514     C
H      0.77267  0.75943  0.90813     H
C       0.7728   0.2279   0.0514     C
H      0.77323  0.95367  0.65277     H
C      0.77383  0.02997  0.60377     C
H       0.7744   0.2506   0.0471     H
O      0.77442  0.99627  0.49458     O
H      0.77463  0.64417  0.32407     H
C       0.7748   0.5685   0.0766     C
C      0.77523  0.07297  0.06667     C
C      0.77643  0.03537  0.10777     C
C      0.77663  0.08917  0.99827     C
In     0.77686  0.80579  0.80328    In
O      0.77727  0.77873  0.85123     O
H      0.77763  0.09557  0.06037     H
O      0.77816  0.77442  0.50542     O
C      0.77863  0.02117  0.51497     C
O      0.77873  0.00147  0.14877     O
H      0.77903  0.04857  0.61917     H
C      0.77973  0.03817  0.57007     C
H      0.78033  0.66167  0.42807     H
C      0.78083  0.91757  0.69877     C
C       0.7811   0.4529   0.7731     C
C      0.78283  0.02967  0.13917     C
C      0.78353  0.06957  0.09797     C
C      0.78447  0.75883  0.44243     C
H      0.78473  0.60607  0.96867     H
C      0.78474  0.31037  0.87517     C
H      0.78533  0.11367  0.90527     H
C      0.78623  0.33847  0.89357     C
C      0.78633  0.12947  0.95207     C
C      0.78697  0.75313  0.40773     C
H       0.7871    0.474   0.7607     H
C      0.78843  0.89387  0.71807     C
C       0.7887   0.1903   0.0855     C
O      0.78939  0.05109  0.50563     O
H      0.78963  0.06257  0.56277     H
H      0.78963  0.15847  0.99287     H
O      0.79213  0.84187  0.75537     O
C      0.79323  0.13437  0.91887     C
O      0.79363  0.05637  0.15887     O
C       0.7937   0.2252   0.0766     C
H      0.79383  0.08967  0.11247     H
H      0.79423  0.92827  0.67937     H
C      0.79583  0.16057  0.97037     C
C      0.79613  0.67647  0.38127     C
C      0.79667  0.74683  0.30573     C
C      0.79697  0.75903  0.33653     C
H      0.79713  0.10797  0.00927     H
Eu     0.79752  0.03966  0.45504    Eu
O      0.79777   0.8527  0.52671     O
H      0.79857  0.75433  0.45763     H
C       0.7996   0.4205   0.8096     C
H       0.8007   0.5391   0.0127     H
C      0.80103  0.67447  0.41447     C
H       0.8018    0.188   0.1033     H
H      0.80257  0.74473  0.40033     H
C      0.80263  0.62397  0.92277     C
H      0.80287  0.70733  0.26163     H
C       0.8034   0.5525   0.0321     C
In     0.80579  0.02892  0.19672    In
C      0.80593  0.61977  0.95587     C
H      0.80733  0.35357  0.90597     H
C      0.80771  0.45141   0.7915     C
H      0.80953  0.89227  0.71377     H
C       0.8097   0.5984   0.0855     C
C      0.80993  0.16597  0.90587     C
H        0.812   0.6138   0.1033     H
C      0.81383  0.19407  0.95587     C
O      0.81396   0.2784  0.86005     O
H      0.81453  0.16757  0.88317     H
C      0.81483  0.30377  0.87637     C
O      0.81575  0.82555  0.56151     O
H       0.8178   0.4191   0.8219     H
O      0.81881  0.09837  0.45447     O
H      0.81957  0.77323  0.34723     H
O      0.82063  0.07287  0.40908     O
C      0.82133  0.19737  0.92277     C
H      0.82133  0.21527  0.96867     H
C      0.82227  0.85183  0.54303     C
C       0.8223   0.2573   0.0962     C
O       0.8248   0.2836   0.0887     O
H      0.82513  0.70217  0.34047     H
O      0.82555  0.00981  0.43849     O
O      0.82557  0.07813  0.21533     O
C      0.82567  0.72833  0.26603     C
C      0.82723  0.69807  0.36297     C
C      0.82783  0.10077  0.42577     C
C      0.82827  0.75303  0.29083     C
H      0.83243  0.64697  0.88317     H
C      0.83263  0.68937  0.42747     C
C      0.83403  0.64397  0.90587     C
H      0.83423  0.68637  0.45017     H
C       0.8384   0.5803   0.0425     C
C      0.83883  0.23257  0.90757     C
C      0.83943  0.63527  0.97037     C
C        0.841    0.605   0.0673     C
O       0.8411   0.2552    0.118     O
O      0.84111  0.32353  0.89485     O
H      0.84153  0.63117  0.99287     H
O      0.84187  0.04973  0.24463     O
C      0.84437  0.07603  0.23713     C
C       0.8444   0.4815   0.7903     C
H      0.84533  0.11807  0.36467     H
C      0.84533  0.13597  0.41057     C
O      0.84603  0.26047  0.92426     O
H       0.8471   0.5601   0.9861     H
O      0.84785  0.23497  0.87887     O
H      0.84887  0.91423  0.51143     H
O      0.85092  0.50778  0.77182     O
C      0.85183  0.02957  0.45697     C
H      0.85213  0.16577  0.45017     H
O       0.8527  0.05494  0.47329     O
C      0.85283  0.13927  0.37747     C
H      0.85467  0.71953  0.23003     H
C      0.85673  0.16737  0.42747     C
C      0.85697  0.73493  0.24783     C
H      0.85713  0.44107  0.61957     H
C      0.85896  0.88192  0.54183     C
H      0.85933  0.97977  0.42737     H
C      0.86073  0.71357  0.37747     C
In     0.86088  0.30441  0.13661    In
C      0.86327  0.78083  0.30123     C
H       0.8638    0.626   0.0717     H
C      0.86403  0.70937  0.41057     C
H       0.8641   0.5886    0.933     H
H      0.86487  0.14533  0.23003     H
C      0.86563  0.65887  0.91887     C
H      0.86597  0.79423  0.32063     H
C      0.86707  0.91283  0.52373     C
H       0.8681    0.579   0.8757     H
O       0.8689  0.48063  0.80662     O
Eu     0.86915  0.29368  0.87829    Eu
H      0.86953  0.22537  0.32407     H
C       0.8697   0.5743   0.9968     C
C         0.87   0.5865   0.0276     C
C      0.87053  0.65687  0.95207     C
C      0.87083  0.17277  0.36297     C
H      0.87243  0.40507  0.65397     H
H      0.87283  0.24367  0.22087     H
C      0.87297  0.10813  0.25673     C
O      0.87303  0.27697  0.17447     O
C      0.87343  0.19897  0.41447     C
O      0.87453  0.49147  0.57797     O
H      0.87703  0.17487  0.34047     H
H      0.87703  0.27077  0.77057     H
O      0.87727  0.28225  0.82771     O
C      0.87797  0.14303  0.24783     C
C      0.87823  0.43947  0.61527     C
H      0.87957  0.85933  0.57263     H
C       0.8797   0.5802   0.9256     C
C      0.88033  0.20387  0.38127     C
C      0.88043  0.99487  0.43977     C
H      0.88133  0.21967  0.42807     H
C      0.88192  0.02297  0.45817     C
H      0.88193  0.72727  0.36467     H
C       0.8822   0.5745   0.8909     C
C      0.88313  0.26377  0.23537     C
C      0.88383  0.30367  0.19417     C
C      0.88557  0.88043  0.56023     C
C      0.88583  0.41577  0.63457     C
H      0.88633  0.67167  0.90527     H
C      0.88693  0.29517  0.76327     C
H      0.88763  0.28477  0.71417     H
O      0.88793  0.33187  0.18457     O
C      0.88803  0.31217  0.81837     C
O      0.88851  0.55891  0.82791     O
H      0.88903  0.23777  0.27297     H
O       0.8894   0.5546   0.4821     O
In      0.8898  0.52755  0.53006    In
C      0.89003  0.24417  0.33507     C
C      0.89023  0.29797  0.22557     C
C      0.89143  0.26037  0.26667     C
C      0.89187  0.76483  0.25673     C
H      0.89203  0.68917  0.00927     H
O      0.89224  0.33707  0.83876     O
H      0.89227  0.08273  0.28623     H
C      0.89283  0.30337  0.72957     C
H      0.89343  0.37967  0.68057     H
C      0.89387  0.10543  0.28193     C
H        0.894   0.5739   0.4252     H
C      0.89457  0.78843  0.28193     C
C      0.89583  0.32377  0.78617     C
O      0.89587  0.57693  0.59303     O
C      0.89833  0.48897  0.57047     C
C      0.89923  0.72707  0.42577     C
C      0.89963  0.23887  0.36537     C
C       0.8997   0.5814   0.9813     C
C       0.8999   0.5734   0.9474     C
H       0.9004   0.6051   0.0663     H
C       0.9006   0.5995   0.0439     C
O      0.90163  0.72045  0.45447     O
C      0.90183  0.46037  0.59007     C
C      0.90263  0.28597  0.28877     C
C      0.90267  0.17433  0.26603     C
C      0.90297  0.94193  0.52413     C
C      0.90323  0.32317  0.24707     C
H      0.90443  0.68207  0.06037     H
H      0.90447  0.19713  0.26163     H
C       0.9054   0.5625   0.8805     C
C      0.90553  0.67257  0.96797     C
O       0.9056  0.57581  0.75567     O
C      0.90673  0.34017  0.71927     C
H      0.90723  0.34657  0.24147     H
C      0.90763  0.37127  0.66987     C
C      0.90783  0.35897  0.77577     C
H      0.90813  0.96937  0.42707     H
Eu      0.9088  0.53582  0.78837    Eu
H      0.90897  0.96273  0.51123     H
O      0.90914  0.33687    0.911     O
C       0.9092   0.5547   0.8483     C
C      0.90963  0.98897  0.43947     C
O      0.91027  0.34773  0.07363     O
H      0.91033  0.70417  0.11247     H
C      0.91083  0.68747  0.99827     C
C      0.91133  0.31757  0.27777     C
C      0.91203  0.27937  0.32037     C
H      0.91203  0.62467  0.72147     H
H      0.91233  0.37757  0.79097     H
C      0.91283  0.04577  0.47627     C
C       0.9134   0.5699   0.4196     C
C       0.9135   0.5505   0.4725     C
C      0.91353  0.36717  0.74107     C
C      0.91363  0.40857  0.62417     C
H      0.91423  0.06537  0.48857     H
C      0.91473  0.34837  0.68537     C
O      0.91537  0.32203  0.11773     O
H      0.91727  0.80953  0.28623     H
C      0.91757  0.13673  0.30123     C
O       0.9189   0.5127  0.74241     O
O      0.91923  0.50777  0.54867     O
H       0.9195   0.5909    0.375     H
C      0.91983  0.38317  0.63907     C
C      0.92067  0.90963  0.56053     C
O      0.92187  0.74743  0.21533     O
H      0.92193  0.39117  0.73367     H
C      0.92267  0.58963  0.57423     C
C       0.9228   0.5595   0.9371     C
C      0.92297  0.33363  0.09243     C
C      0.92397  0.76833  0.23713     C
O      0.92422  0.29926  0.88882     O
H      0.92423  0.33807  0.29167     H
C      0.92477  0.17173  0.29083     C
C       0.9251   0.5536   0.9034     C
C       0.9256   0.5569   0.4411     C
O      0.92667  0.58203  0.54893     O
C      0.92703  0.70227  0.06667     C
C       0.9271    0.578   0.3889     C
O      0.92713  0.74777  0.40908     O
H      0.92827  0.13403  0.32063     H
O      0.92836  0.54394  0.83896     O
H      0.92843  0.27287  0.64117     H
C      0.92903  0.33057  0.66877     C
O       0.9294   0.5397   0.4922     O
H      0.92993  0.65777  0.93007     H
C      0.93007  0.94153  0.54263     C
C      0.93043  0.71397  0.09797     C
H      0.93067  0.60753  0.63533     H
C       0.9311   0.3256   0.9054     C
C      0.93163  0.26717  0.38237     C
C      0.93173  0.45537  0.58117     C
C       0.9318   0.5957   0.9979     C
H      0.93233  0.31257  0.67937     H
C      0.93283  0.36557  0.62277     C
C       0.9331   0.6053   0.0303     C
C      0.93383  0.66887  0.95097     C
H      0.93463  0.84887  0.48857     H
H       0.9362   0.5543   0.9525     H
C      0.93723  0.64137  0.72437     C
H      0.93743  0.72707  0.56277     H
C      0.93833  0.43067  0.59937     C
H      0.93843  0.37137  0.60037     H
C      0.93863  0.33887  0.63637     C
H      0.93877  0.90813  0.57293     H
H      0.93883  0.26327  0.40327     H
C      0.93883  0.59777  0.76127     C
H       0.9394    0.488    0.698     H
H      0.93953  0.67777  0.69217     H
C       0.9396   0.5055   0.7591     C
H       0.9396   0.5437   0.8961     H
H      0.94087  0.34353  0.03133     H
C      0.94153  0.01147  0.45737     C
C      0.94193  0.03897  0.47587     C
C      0.94193  0.30447  0.33787     C
H      0.94217  0.19743  0.40033     H
H      0.94283  0.95127  0.45827     H
O      0.94363  0.73727  0.15887     O
O      0.94506  0.79777  0.47329     O
C      0.94603  0.70067  0.01297     C
O      0.94622  0.51452   0.7878     O
H      0.94623  0.90897  0.48877     H
C      0.94663  0.28627  0.62537     C
H      0.94713  0.46847  0.56337     H
C      0.94847  0.32863  0.07723     C
O      0.94891  0.73831  0.50563     O
C         0.95   0.5693   0.3779     C
C      0.95003  0.29897  0.36637     C
C      0.95017  0.20333  0.30573     C
O      0.95027  0.79213  0.24463     O
H      0.95127  0.00843  0.54173     H
H      0.95143  0.73047  0.61917     H
C      0.95197  0.62193  0.62303     C
C      0.95263  0.71667  0.04457     C
C       0.9527   0.5498   0.4313     C
C      0.95293  0.67297  0.70797     C
C       0.9531   0.4805   0.7108     C
H       0.9531    0.599   0.9873     H
C      0.95317  0.61513  0.58943     C
H      0.95367  0.18043  0.34723     H
H      0.95403  0.24537  0.61187     H
C      0.95423  0.86707  0.47627     C
C      0.95527  0.33663  0.04363     C
H      0.95577  0.20143  0.45763     H
C      0.95603  0.63337  0.74407     C
C      0.95703  0.32287  0.61917     C
C       0.9573    0.488   0.7439     C
H      0.95733  0.32727  0.32797     H
H        0.958   0.3793   0.9452     H
O      0.95829  0.59089  0.77785     O
H       0.9586   0.6574   0.0728     H
H      0.95933  0.42887  0.59497     H
H      0.95993  0.32537  0.42487     H
Eu     0.96034  0.75786  0.45504    Eu
C      0.96103  0.90297  0.47587     C
C      0.96183  0.74157  0.57007     C
H      0.96197  0.23373  0.26703     H
C      0.96207  0.20303  0.33653     C
H       0.9625   0.5395   0.4458     H
C      0.96253  0.27057  0.60897     C
H      0.96273  0.05377  0.48877     H
H      0.96307  0.31123  0.11833     H
H       0.9634    0.624   0.3387     H
C       0.9644   0.5581      0.4     C
H       0.9645   0.4563   0.6738     H
C      0.96463  0.74107  0.10777     C
C      0.96497  0.97123  0.54283     C
C      0.96563  0.68227  0.96697     C
O      0.96593  0.70837  0.44451     O
C        0.966   0.5787   0.3463     C
C      0.96617  0.21303  0.40773     C
C       0.9667    0.344   0.9226     C
C      0.96683  0.97147  0.45757     C
C       0.9675   0.6237   0.0475     C
C      0.96777  0.23393  0.28943     C
H      0.96787  0.29193  0.26053     H
C      0.96787  0.31613  0.09583     C
H       0.9679   0.6266   0.2418     H
C       0.9686   0.4625   0.6963     C
H      0.96937  0.06123  0.57293     H
C      0.97003  0.74387  0.60377     C
C      0.97033  0.75317  0.13917     C
C      0.97043  0.82227  0.45697     C
C       0.9708   0.6086   0.3288     C
In     0.97108  0.77686  0.19672    In
C      0.97113  0.69587  0.99547     C
C      0.97123  0.00627  0.45717     C
C      0.97147  0.00463  0.54243     C
C      0.97437  0.21553  0.44243     C
C       0.9747   0.3708   0.9423     C
C       0.9762   0.6504   0.0684     C
C      0.97703  0.85896  0.45817     C
C       0.9773   0.4766   0.7608     C
H       0.9775   0.5362   0.3426     H
C       0.9776   0.6488   0.2535     C
H       0.9779   0.6815    0.215     H
H      0.97857  0.65983  0.43213     H
C      0.97883  0.75747  0.51497     C
C       0.9792   0.5567   0.3316     C
H      0.97923  0.71357  0.65397     H
H      0.97977  0.12043  0.57263     H
H       0.9803   0.4812   0.7835     H
C      0.98213  0.33787  0.41317     C
C       0.9828   0.6816   0.2375     C
H      0.98337  0.65793  0.66053     H
C      0.98353  0.32987  0.37997     C
C      0.98373  0.34087  0.59827     C
C      0.98407  0.65143  0.63853     C
C      0.98423  0.73957  0.05557     C
C       0.9844   0.6167   0.3003     C
H       0.9846   0.5557   0.3937     H
C      0.98477  0.33403  0.02813     C
C      0.98497  0.23303  0.35203     C
C      0.98507  0.63453  0.57083     C
H      0.98517  0.62973  0.54833     H
H       0.9854   0.3119   0.9012     H
O       0.9856   0.2292   0.7403     O
H      0.98677  0.22733  0.90813     H
C        0.987   0.6502   0.2867     C
C      0.98853  0.93007  0.45737     C
O       0.9887     0.74   0.2156     O
H       0.9889   0.5951   0.0255     H
C      0.98897  0.07933  0.56053     C
C      0.98933  0.28937  0.58927     C
C      0.98953  0.69917  0.71417     C
H       0.9898    0.264    0.698     H
C      0.98983  0.75327  0.08627     C
O      0.99019  0.81575  0.43849     O
C       0.9902    0.453   0.7146     C
C      0.99043  0.76127  0.54717     C
H      0.99073  0.36547  0.59387     H
H       0.9911   0.3945   0.7366     H
C       0.9912   0.3315   0.9157     C
H      0.99127  0.34123  0.00613     H
H      0.99157  0.94283  0.54173     H
H      0.99203  0.69877  0.90847     H
H       0.9921   0.3167   0.6728     H
C       0.9922   0.4599   0.7478     C
C      0.99227  0.72783  0.42793     C
C      0.99247  0.30953  0.26493     C
C      0.99303  0.65787  0.75097     C
C      0.99317  0.23323  0.38593     C
H      0.99317  0.34793  0.23453     H
C       0.9937   0.6133   0.0413     C
C      0.99373  0.96497  0.45717     C
H      0.99393  0.70327  0.00537     H
C       0.9941   0.5663   0.3013     C
C      0.99447  0.26643  0.30303     C
C      0.99487  0.11443  0.56023     C
H        0.995    0.548   0.2386     H
H      0.99527  0.25283  0.95833     H
C       0.9953   0.7135   0.2561     C
C      0.99537  0.96683  0.54243     C
C      0.99547  0.31093  0.07983     C
O      0.99627  0.22184  0.50542     O
O      0.99646  0.23894  0.57767     O
C      0.99653  0.67967  0.95337     C
C       0.9967   0.2853   0.7103     C
C      0.99723  0.73487  0.66457     C
C       0.9978   0.5983   0.2843     C
C      0.99817  0.67363  0.41763     C
O      0.99853  0.77727  0.14877     O
C       0.9993   0.3174   0.6948     C
C       0.9997    0.256   0.7591     C
