data_I
_chemical_name_common  '/home/zhangsd/repos/MofS-CGCNN/ML/data/TSD/clean_cifs/KUVYAD_clean'
_cell_length_a 14.03060
_cell_length_b 14.03060
_cell_length_c 28.17800
_cell_angle_alpha 90.00000
_cell_angle_beta  90.00000
_cell_angle_gamma 120.00000
_space_group_name_H-M_alt      'P 1'


loop_
_space_group_symop_operation_xyz
  'x, y, z' 

loop_
_atom_site_label
_atom_site_fract_x
_atom_site_fract_y
_atom_site_fract_z
_atom_site_type_symbol
O       0.0016   0.5106   0.9391     O
C       0.0116   0.0707  0.43183     C
O       0.0116   0.3025  0.74637     O
C       0.0121   0.2197   0.9352     C
C       0.0126   0.8526  0.51767     C
C       0.0144    0.048  0.74277     C
C       0.0149   0.3478  0.06083     C
H       0.0153   0.9655  0.28233     H
C       0.0157   0.6855   0.9479     C
C       0.0191   0.1996  0.49493     C
C        0.023   0.2463  0.13343     C
H       0.0272   0.8181  0.49277     H
C        0.032   0.3159  0.56023     C
C       0.0336   0.9856   0.0761     C
H       0.0345   0.0498    0.949     H
C        0.035   0.8797  0.74727     C
C       0.0366   0.8627   0.9566     C
C       0.0375   0.1327  0.19803     C
C       0.0406   0.1519  0.75657     C
C       0.0476   0.5996   0.9617     C
C        0.048   0.0144  0.25723     C
H       0.0498   0.0345    0.051     H
O       0.0515   0.3996  0.63553     O
C       0.0515   0.7154  0.75467     C
C       0.0586    0.784   0.9709     C
C       0.0591   0.9884  0.76517     C
H       0.0696   0.1398  0.63867     H
H       0.0702   0.9304    0.972     H
C       0.0707   0.0116  0.56817     C
O       0.0722   0.2377  0.97007     O
C       0.0789   0.8239  0.77207     C
H       0.0824   0.6778  0.76937     H
C       0.0876   0.8851   0.1261     C
Cd     0.09083   0.4299  0.97528    Cd
H       0.0949   0.2676  0.12473     H
C       0.0952   0.9625  0.53137     C
H        0.104   0.7972   0.9971     H
C       0.1113   0.9594   0.0899     C
O       0.1134   0.6186   0.9933     O
C       0.1149   0.2025  0.79277     C
O       0.1178   0.3975  0.05493     O
C       0.1203   0.1553  0.41393     C
C       0.1271   0.2798  0.47953     C
C       0.1327   0.0375  0.80197     C
H       0.1348   0.2738  0.80177     H
C       0.1373   0.1739  0.62327     C
H        0.139   0.8652   0.1351     H
H       0.1398   0.0696  0.36133     H
C       0.1428   0.3953  0.54543     C
C       0.1474     0.16  0.18433     C
C       0.1519   0.0406  0.24343     C
C       0.1527   0.8729  0.81287     C
C       0.1553   0.1203  0.58607     C
C         0.16   0.1474  0.81567     C
O       0.1655   0.9278   0.3034     O
H       0.1727   0.9051  0.45807     H
C       0.1739   0.1373  0.37673     C
H        0.176   0.7452  0.82787     H
C       0.1761    0.255  0.43873     C
C       0.1805   0.9809  0.82827     C
H       0.1819   0.2091  0.15943     H
H       0.1848   0.4585  0.56333     H
C       0.1857   0.3773  0.50513     C
C       0.1916   0.8143  0.83847     C
C       0.1996   0.0191  0.50507     C
C       0.2025   0.1149  0.20723     C
H       0.2028   0.3068  0.66377     H
C       0.2076   0.9879  0.26853     C
H       0.2091   0.1819  0.84057     H
C        0.216   0.2746  0.63757     C
C       0.2197   0.0121   0.0648     C
C       0.2233    0.977  0.46677     C
O       0.2377   0.0722  0.02993     O
C       0.2463    0.023  0.86657     C
C       0.2525   0.8572  0.87877     C
H       0.2548   0.4308  0.49453     H
C        0.255   0.1761  0.56127     C
H       0.2676   0.0949  0.87527     H
H       0.2737   0.8152  0.89667     H
H       0.2738   0.1348  0.19823     H
C       0.2746    0.216  0.36243     C
O       0.2797   0.8822  0.38827     O
C       0.2798   0.1271  0.52047     C
C       0.2839    0.968  0.89357     C
C       0.2846   0.3361  0.42133     C
O       0.2909   0.9884   0.0797     O
O       0.3025   0.0116  0.25363     O
H       0.3068   0.2028  0.33623     H
C       0.3145   0.3302  0.61457     C
C       0.3159    0.032  0.43977     C
H       0.3222   0.4046  0.43603     H
C       0.3302   0.3145  0.38543     C
C       0.3329   0.9851  0.39417     C
C       0.3361   0.2846  0.57867     C
Cd     0.33907  0.90917  0.30862    Cd
C       0.3478   0.0149  0.93917     C
O       0.3481   0.9485  0.96887     O
C       0.3773   0.1857  0.49487     C
O       0.3814   0.4948  0.65997     O
C       0.3953   0.1428  0.45457     C
O       0.3975   0.1178  0.94507     O
O       0.3996   0.0515  0.36447     O
C       0.4004    0.448  0.62837     C
H       0.4046   0.3222  0.56397     H
Cd      0.4299  0.09083  0.02472    Cd
H       0.4308   0.2548  0.50547     H
C        0.448   0.4004  0.37163     C
H       0.4585   0.1848  0.43667     H
O       0.4894    0.491  0.60577     O
O        0.491   0.4894  0.39423     O
O       0.4948   0.3814  0.34003     O
O       0.5052   0.8866  0.32663     O
O        0.509   0.9984  0.27243     O
O       0.5106   0.0016   0.0609     O
H       0.5415   0.7263     0.23     H
C        0.552   0.9524  0.29503     C
H       0.5692    0.824   0.1612     H
Cd      0.5701  0.66093  0.64195    Cd
H       0.5954   0.9176   0.1027     H
C       0.5996   0.0476   0.0383     C
O       0.6004   0.6519   0.3022     O
O       0.6025   0.7203   0.7216     O
C       0.6047   0.7475   0.2121     C
O       0.6186   0.1134   0.0067     O
C       0.6227   0.8084   0.1718     C
O       0.6519   0.6004   0.6978     O
C       0.6522   0.6671   0.7275     C
Cd     0.66093   0.5701  0.35805    Cd
C       0.6639   0.9485    0.088     C
C       0.6671   0.6522   0.2725     C
C       0.6698   0.9843  0.28123     C
H       0.6778   0.0824  0.23063     H
C       0.6841   0.7161   0.2269     C
C       0.6855   0.0157   0.0521     C
H       0.6932    0.896  0.33043     H
O       0.6975   0.7091  0.41303     O
O       0.7091   0.6975  0.58697     O
C       0.7154   0.0515  0.24533     C
C       0.7161   0.6841   0.7731     C
C       0.7202   0.8473   0.1462     C
O       0.7203   0.6025   0.2784     O
C       0.7254   0.9414  0.30423     C
H       0.7262    0.861  0.46843     H
H       0.7263   0.5415     0.77     H
H       0.7324   0.8273   0.7914     H
C        0.745   0.9211   0.1054     C
H       0.7452    0.176  0.17213     H
C       0.7475   0.6047   0.7879     C
C       0.7537   0.7767   0.8001     C
O       0.7623   0.8345  0.63674     O
C       0.7767   0.7537   0.1999     C
C       0.7803   0.7924  0.60187     C
C        0.784   0.0586   0.0291     C
H       0.7909   0.9728   0.8261     H
C       0.7924   0.7803  0.39813     C
H       0.7972    0.104   0.0029     H
C       0.7975   0.9124  0.45943     C
C       0.8004   0.8195   0.1616     C
C       0.8084   0.6227   0.8282     C
C       0.8143   0.1916  0.16153     C
H       0.8152   0.2737  0.10333     H
H       0.8181   0.0272  0.50723     H
C       0.8195   0.8004   0.8384     C
C       0.8239   0.0789  0.22793     C
H        0.824   0.5692   0.8388     H
C       0.8261   0.9634  0.28993     C
H       0.8273   0.7324   0.2086     H
O       0.8345   0.7623  0.36326     O
C         0.84   0.9874    0.851     C
C       0.8447    0.965   0.0806     C
C       0.8473   0.7202   0.8538     C
C       0.8481   0.8887  0.42323     C
C       0.8526   0.0126  0.48233     C
C       0.8572   0.2525  0.12123     C
H       0.8602   0.9298  0.30533     H
H        0.861   0.7262  0.53157     H
C       0.8627   0.0366   0.0434     C
H       0.8652    0.139   0.8649     H
C       0.8673   0.9048   0.8647     C
C       0.8729   0.1527  0.18713     C
C       0.8797    0.035  0.25273     C
O       0.8822   0.2797  0.61173     O
C       0.8851   0.0876   0.8739     C
O       0.8866   0.5052  0.67337     O
C       0.8887   0.8481  0.57677     C
H        0.896   0.6932  0.66957     H
C       0.9048   0.8673   0.1353     C
H       0.9051   0.1727  0.54193     H
Cd     0.90917  0.33907  0.69138    Cd
C       0.9124   0.7975  0.54057     C
H       0.9176   0.5954   0.8973     H
C       0.9211    0.745   0.8946     C
O       0.9278   0.1655   0.6966     O
C       0.9293   0.9409   0.0985     C
H       0.9298   0.8602  0.69467     H
H       0.9304   0.0702    0.028     H
C       0.9409   0.9293   0.9015     C
C       0.9414   0.7254  0.69577     C
O       0.9485   0.3481  0.03113     O
C       0.9485   0.6639    0.912     C
H       0.9502   0.9847  0.61567     H
C        0.952   0.9664  0.40943     C
C       0.9524    0.552  0.70497     C
C       0.9594   0.1113   0.9101     C
C       0.9625   0.0952  0.46863     C
C       0.9634   0.8261  0.71007     C
C        0.965   0.8447   0.9194     C
H       0.9655   0.0153  0.71767     H
C       0.9664    0.952  0.59057     C
C        0.968   0.2839  0.10643     C
H       0.9728   0.7909   0.1739     H
C        0.977   0.2233  0.53323     C
C       0.9809   0.1805  0.17173     C
C       0.9843   0.6698  0.71877     C
H       0.9847   0.9502  0.38433     H
C       0.9851   0.3329  0.60583     C
C       0.9856   0.0336   0.9239     C
C       0.9874     0.84    0.149     C
C       0.9879   0.2076  0.73147     C
C       0.9884   0.0591  0.23483     C
O       0.9884   0.2909   0.9203     O
O       0.9984    0.509  0.72757     O
