data_I
_chemical_name_common  '/home/zhangsd/repos/MofS-CGCNN/ML/data/TSD/clean_cifs/KUXVIJ_clean'
_cell_length_a 16.21070
_cell_length_b 14.97810
_cell_length_c  7.95730
_cell_angle_alpha 90.00000
_cell_angle_beta  92.06900
_cell_angle_gamma 90.00000
_space_group_name_H-M_alt      'P 1'


loop_
_space_group_symop_operation_xyz
  'x, y, z' 

loop_
_atom_site_label
_atom_site_fract_x
_atom_site_fract_y
_atom_site_fract_z
_atom_site_type_symbol
Ag     0.02724  0.23947  0.89942    Ag
Ag     0.02724  0.26053  0.39942    Ag
N      0.09393  0.74705    0.499     N
N      0.09393  0.75295    0.999     N
H          0.1   0.0765   0.7581     H
H          0.1   0.4235   0.2581     H
H       0.1059   0.6173   0.4768     H
H       0.1059   0.8827   0.9768     H
H       0.1066   0.6223    0.003     H
H       0.1066   0.8777    0.503     H
C       0.1324   0.6714   0.4594     C
C       0.1324   0.8286   0.9594     C
C      0.13298   0.6752   0.9755     C
C      0.13298   0.8248   0.4755     C
N      0.14304   0.1969   0.8014     N
N      0.14304   0.3031   0.3014     N
C       0.1474   0.1115   0.7554     C
C       0.1474   0.3885   0.2554     C
H       0.2089    0.193   0.3244     H
H       0.2089    0.307   0.8244     H
C      0.21015   0.6708   0.3934     C
C      0.21015   0.8292   0.8934     C
C      0.21139   0.6711   0.9114     C
C      0.21139   0.8289   0.4114     C
C       0.2114   0.2471   0.7939     C
C       0.2114   0.2529   0.2939     C
C      0.21958    0.073   0.7041     C
C      0.21958    0.427   0.2041     C
H       0.2207    0.013   0.6743     H
H       0.2207    0.487   0.1743     H
H        0.235   0.6171   0.3654     H
H        0.235   0.8829   0.8654     H
H       0.2371   0.6163    0.897     H
H       0.2371   0.8837    0.397     H
C      0.25063  0.74911   0.8694     C
C      0.25063  0.75089   0.3694     C
C      0.28536   0.2127   0.7422     C
C      0.28536   0.2873   0.2422     C
C      0.28995   0.1243   0.6974     C
C      0.28995   0.3757   0.1974     C
H       0.3202   0.0505   0.0819     H
H       0.3202   0.4495   0.5819     H
H       0.3317   0.2491   0.7378     H
H       0.3317   0.2509   0.2378     H
C      0.33574  0.74908   0.7999     C
C      0.33574  0.75092   0.2999     C
H       0.3415   0.5471   0.6399     H
H       0.3415   0.9529   0.1399     H
O      0.35717  0.68452   0.2183     O
O      0.35717  0.81548   0.7183     O
C       0.3635    0.007   0.0949     C
C       0.3635    0.493   0.5949     C
C      0.36818   0.0815    0.641     C
C      0.36818   0.4185    0.141     C
O      0.37085  0.50152   0.1419     O
O      0.37085  0.99848   0.6419     O
O      0.38065  0.68103    0.828     O
O      0.38065  0.81897    0.328     O
H       0.3862   0.5049   0.4874     H
H       0.3862   0.9951   0.9874     H
O      0.42524  0.13386    0.598     O
O      0.42524  0.36614    0.098     O
C       0.4297  0.04235   0.2123     C
C       0.4297  0.45765   0.7123     C
O      0.45016  0.50164   0.8425     O
O      0.45016  0.99836   0.3425     O
Tb     0.45384  0.61636  0.04891    Tb
Tb     0.45384  0.88364  0.54891    Tb
O      0.46498  0.11551   0.1869     O
O      0.46498  0.38449   0.6869     O
O      0.53502  0.61551   0.3131     O
O      0.53502  0.88449   0.8131     O
Tb     0.54616  0.11636  0.45109    Tb
Tb     0.54616  0.38364  0.95109    Tb
O      0.54984  0.00164   0.6575     O
O      0.54984  0.49836   0.1575     O
C       0.5703  0.54235   0.2877     C
C       0.5703  0.95765   0.7877     C
O      0.57476  0.63386    0.902     O
O      0.57476  0.86614    0.402     O
H       0.6138   0.0049   0.0126     H
H       0.6138   0.4951   0.5126     H
O      0.61935  0.18103    0.672     O
O      0.61935  0.31897    0.172     O
O      0.62915  0.00152   0.3581     O
O      0.62915  0.49848   0.8581     O
C      0.63182   0.5815    0.859     C
C      0.63182   0.9185    0.359     C
C       0.6365    0.507   0.4051     C
C       0.6365    0.993   0.9051     C
O      0.64283  0.18452   0.2817     O
O      0.64283  0.31548   0.7817     O
H       0.6585   0.0471   0.8601     H
H       0.6585   0.4529   0.3601     H
C      0.66426  0.24908   0.7001     C
C      0.66426  0.25092   0.2001     C
H       0.6683   0.7491   0.7622     H
H       0.6683   0.7509   0.2622     H
H       0.6798   0.5505   0.4181     H
H       0.6798   0.9495   0.9181     H
C      0.71005   0.6243   0.8026     C
C      0.71005   0.8757   0.3026     C
C      0.71464   0.7127   0.7578     C
C      0.71464   0.7873   0.2578     C
C      0.74937  0.24911   0.6306     C
C      0.74937  0.25089   0.1306     C
H       0.7629   0.1163    0.603     H
H       0.7629   0.3837    0.103     H
H        0.765   0.1171   0.1346     H
H        0.765   0.3829   0.6346     H
H       0.7793    0.513   0.8257     H
H       0.7793    0.987   0.3257     H
C      0.78042    0.573   0.7959     C
C      0.78042    0.927   0.2959     C
C       0.7886   0.7471   0.7061     C
C       0.7886   0.7529   0.2061     C
C      0.78861   0.1711   0.5886     C
C      0.78861   0.3289   0.0886     C
C      0.78985   0.1708   0.1066     C
C      0.78985   0.3292   0.6066     C
H       0.7911    0.693   0.1756     H
H       0.7911    0.807   0.6756     H
C       0.8526   0.6115   0.7446     C
C       0.8526   0.8885   0.2446     C
N      0.85696   0.6969   0.6986     N
N      0.85696   0.8031   0.1986     N
C      0.86702   0.1752   0.5245     C
C      0.86702   0.3248   0.0245     C
C       0.8676   0.1714   0.0406     C
C       0.8676   0.3286   0.5406     C
H       0.8934   0.1223    0.497     H
H       0.8934   0.3777    0.997     H
H       0.8941   0.1173   0.0232     H
H       0.8941   0.3827   0.5232     H
H          0.9   0.5765   0.7419     H
H          0.9   0.9235   0.2419     H
N      0.90607  0.24705    0.001     N
N      0.90607  0.25295    0.501     N
Ag     0.97276  0.73947  0.60058    Ag
Ag     0.97276  0.76053  0.10058    Ag
