data_I
_chemical_name_common  '/home/zhangsd/repos/MofS-CGCNN/ML/data/TSD/clean_cifs/LACBID_clean'
_cell_length_a 24.61650
_cell_length_b 35.85690
_cell_length_c 30.27830
_cell_angle_alpha 90.00000
_cell_angle_beta  90.00000
_cell_angle_gamma 90.00000
_space_group_name_H-M_alt      'P 1'


loop_
_space_group_symop_operation_xyz
  'x, y, z' 

loop_
_atom_site_label
_atom_site_fract_x
_atom_site_fract_y
_atom_site_fract_z
_atom_site_type_symbol
C          0.0  0.10732  0.71136     C
C          0.0  0.11933  0.07689     C
N          0.0  0.13821  0.73867     N
N          0.0  0.15015  0.04951     N
N          0.0  0.34985  0.54951     N
N          0.0  0.36179  0.23867     N
C          0.0  0.38067  0.57689     C
C          0.0  0.39268  0.21136     C
C          0.0  0.60732  0.78864     C
C          0.0  0.61933  0.42311     C
N          0.0  0.63821  0.76133     N
N          0.0  0.65015  0.45049     N
N          0.0  0.84985  0.95049     N
N          0.0  0.86179  0.26133     N
C          0.0  0.88067  0.92311     C
C          0.0  0.89268  0.28864     C
C      0.02777  0.06283  0.67279     C
C      0.02777  0.43717  0.17279     C
C      0.02777  0.56283  0.82721     C
C      0.02777  0.93717  0.32721     C
C      0.02805  0.07461  0.11688     C
C      0.02805  0.42539  0.61688     C
C      0.02805  0.57461  0.38312     C
C      0.02805  0.92539  0.88312     C
O      0.04459  0.16283    0.038     O
O      0.04459  0.33717    0.538     O
O      0.04459  0.66283    0.462     O
O      0.04459  0.83717    0.962     O
O      0.04485  0.15166  0.74988     O
O      0.04485  0.34834  0.24988     O
O      0.04485  0.65166  0.75012     O
O      0.04485  0.84834  0.25012     O
N      0.04553  0.09193  0.69735     N
N      0.04553  0.40807  0.19735     N
N      0.04553  0.59193  0.80265     N
N      0.04553  0.90807  0.30265     N
N      0.04588  0.10325  0.09143     N
N      0.04588  0.39675  0.59143     N
N      0.04588  0.60325  0.40857     N
N      0.04588  0.89675  0.90857     N
H       0.0498   0.0457   0.6583     H
H       0.0498   0.4543   0.1583     H
H       0.0498   0.5457   0.8417     H
H       0.0498   0.9543   0.3417     H
H         0.05   0.0577   0.1319     H
H         0.05   0.4423   0.6319     H
H         0.05   0.5577   0.3681     H
H         0.05   0.9423   0.8681     H
H       0.0924   0.0705   0.8683     H
H       0.0924   0.4295   0.3683     H
H       0.0924   0.5705   0.6317     H
H       0.0924   0.9295   0.1317     H
H       0.0969   0.2303   0.1262     H
H       0.0969   0.2697   0.6262     H
H       0.0969   0.7303   0.3738     H
H       0.0969   0.7697   0.8738     H
H       0.0981    0.211   0.6599     H
H       0.0981    0.289   0.1599     H
H       0.0981    0.711   0.8401     H
H       0.0981    0.789   0.3401     H
H       0.1015   0.0799   0.9442     H
H       0.1015   0.4201   0.4442     H
H       0.1015   0.5799   0.5558     H
H       0.1015   0.9201   0.0558     H
O      0.10471  0.08338  0.78804     O
O      0.10471  0.41662  0.28804     O
O      0.10471  0.58338  0.71196     O
O      0.10471  0.91662  0.21196     O
C      0.11766  0.08749  0.87906     C
C      0.11766  0.41251  0.37906     C
C      0.11766  0.58749  0.62094     C
C      0.11766  0.91251  0.12094     C
Co     0.11999  0.10634  0.72065    Co
Co     0.11999  0.39366  0.22065    Co
Co     0.11999  0.60634  0.77935    Co
Co     0.11999  0.89366  0.27935    Co
Co     0.12232  0.11958  0.07617    Co
Co     0.12232  0.38042  0.57617    Co
Co     0.12232  0.61958  0.42383    Co
Co     0.12232  0.88042  0.92383    Co
C      0.12388   0.0928  0.92476     C
C      0.12388   0.4072  0.42476     C
C      0.12388   0.5928  0.57524     C
C      0.12388   0.9072  0.07524     C
C      0.12965  0.24061  0.13538     C
C      0.12965  0.25939  0.63538     C
C      0.12965  0.74061  0.36462     C
C      0.12965  0.75939  0.86462     C
O      0.13007  0.16788  0.10265     O
O      0.13007  0.33212  0.60265     O
O      0.13007  0.66788  0.39735     O
O      0.13007  0.83212  0.89735     O
C       0.1303   0.2239  0.65496     C
C       0.1303   0.2761  0.15496     C
C       0.1303   0.7239  0.84504     C
C       0.1303   0.7761  0.34504     C
O      0.13073  0.10815  0.01394     O
O      0.13073  0.39185  0.51394     O
O      0.13073  0.60815  0.48606     O
O      0.13073  0.89185  0.98606     O
O      0.13856  0.15121  0.68615     O
O      0.13856  0.34879  0.18615     O
O      0.13856  0.65121  0.81385     O
O      0.13856  0.84879  0.31385     O
C      0.14083  0.10461  0.80261     C
C      0.14083  0.39539  0.30261     C
C      0.14083  0.60461  0.69739     C
C      0.14083  0.89539  0.19739     C
C      0.14927  0.10758  0.85064     C
C      0.14927  0.39242  0.35064     C
C      0.14927  0.60758  0.64936     C
C      0.14927  0.89242  0.14936     C
H       0.1553    0.005   0.6474     H
H       0.1553    0.495   0.1474     H
H       0.1553    0.505   0.8526     H
H       0.1553    0.995   0.3526     H
O      0.15616  0.06144  0.69435     O
O      0.15616  0.43856  0.19435     O
O      0.15616  0.56144  0.80565     O
O      0.15616  0.93856  0.30565     O
H       0.1602   0.0192   0.1464     H
H       0.1602   0.4808   0.6464     H
H       0.1602   0.5192   0.3536     H
H       0.1602   0.9808   0.8536     H
C      0.16159  0.11621  0.94097     C
C      0.16159  0.38379  0.44097     C
C      0.16159  0.61621  0.55903     C
C      0.16159  0.88379  0.05903     C
O      0.16229  0.08065  0.10799     O
O      0.16229  0.41935  0.60799     O
O      0.16229  0.58065  0.39201     O
O      0.16229  0.91935  0.89201     O
C      0.16717  0.12261  0.99027     C
C      0.16717  0.37739  0.49027     C
C      0.16717  0.62261  0.50973     C
C      0.16717  0.87739  0.00973     C
O      0.16759   0.1243  0.77543     O
O      0.16759   0.3757  0.27543     O
O      0.16759   0.6243  0.72457     O
O      0.16759   0.8757  0.22457     O
C      0.17727   0.2211  0.12973     C
C      0.17727   0.2789  0.62973     C
C      0.17727   0.7211  0.37027     C
C      0.17727   0.7789  0.87027     C
C       0.1775  0.18323  0.10765     C
C       0.1775  0.31677  0.60765     C
C       0.1775  0.68323  0.39235     C
C       0.1775  0.81677  0.89235     C
C      0.17893  0.20879  0.66652     C
C      0.17893  0.29121  0.16652     C
C      0.17893  0.70879  0.83348     C
C      0.17893  0.79121  0.33348     C
C      0.18153  0.17093  0.68828     C
C      0.18153  0.32907  0.18828     C
C      0.18153  0.67093  0.81172     C
C      0.18153  0.82907  0.31172     C
C      0.18863  0.13135  0.86718     C
C      0.18863  0.36865  0.36718     C
C      0.18863  0.63135  0.63282     C
C      0.18863  0.86865  0.13282     C
H       0.1899   0.0465   0.3916     H
H       0.1899   0.4535   0.8916     H
H       0.1899   0.5465   0.1084     H
H       0.1899   0.9535   0.6084     H
C      0.19246  0.00034  0.64691     C
C      0.19246  0.49966  0.14691     C
C      0.19246  0.50034  0.85309     C
C      0.19246  0.99966  0.35309     C
H       0.1944   0.0312    0.815     H
H       0.1944   0.4688    0.315     H
H       0.1944   0.5312    0.685     H
H       0.1944   0.9688    0.185     H
C      0.19514  0.13546   0.9125     C
C      0.19514  0.36454   0.4125     C
C      0.19514  0.63546   0.5875     C
C      0.19514  0.86454   0.0875     C
C      0.19741  0.01455  0.14661     C
C      0.19741  0.48545  0.64661     C
C      0.19741  0.51455  0.35339     C
C      0.19741  0.98545  0.85339     C
O       0.2061   0.1418  0.00378     O
O       0.2061   0.3582  0.50378     O
O       0.2061   0.6418  0.49622     O
O       0.2061   0.8582  0.99622     O
C      0.20671  0.05773  0.69173     C
C      0.20671  0.44227  0.19173     C
C      0.20671  0.55773  0.80827     C
C      0.20671  0.94227  0.30827     C
H       0.2108   0.1446   0.8479     H
H       0.2108   0.3554   0.3479     H
H       0.2108   0.6446   0.6521     H
H       0.2108   0.8554   0.1521     H
C      0.21083  0.07208   0.1009     C
C      0.21083  0.42792   0.6009     C
C      0.21083  0.57208   0.3991     C
C      0.21083  0.92792   0.8991     C
C      0.21329  0.03087  0.37615     C
C      0.21329  0.46913  0.87615     C
C      0.21329  0.53087  0.12385     C
C      0.21329  0.96913  0.62385     C
C      0.21785  0.01585  0.83082     C
C      0.21785  0.48415  0.33082     C
C      0.21785  0.51585  0.66918     C
C      0.21785  0.98415  0.16918     C
O      0.22103  0.16868  0.09871     O
O      0.22103  0.33132  0.59871     O
O      0.22103  0.66868  0.40129     O
O      0.22103  0.83132  0.90129     O
H        0.222   0.1511   0.9236     H
H        0.222   0.3489   0.4236     H
H        0.222   0.6511   0.5764     H
H        0.222   0.8489   0.0764     H
O      0.22455  0.16236  0.70724     O
O      0.22455  0.33764  0.20724     O
O      0.22455  0.66236  0.79276     O
O      0.22455  0.83764  0.29276     O
C      0.22548  0.23626  0.14176     C
C      0.22548  0.26374  0.64176     C
C      0.22548  0.73626  0.35824     C
C      0.22548  0.76374  0.85824     C
C       0.2264  0.22821  0.65921     C
C       0.2264  0.27179  0.15921     C
C       0.2264  0.72821  0.84079     C
C       0.2264  0.77179  0.34079     C
C      0.22766  0.02359   0.6685     C
C      0.22766  0.47641   0.1685     C
C      0.22766  0.52359   0.8315     C
C      0.22766  0.97641   0.3315     C
C      0.23253  0.03808   0.1243     C
C      0.23253  0.46192   0.6243     C
C      0.23253  0.53808   0.3757     C
C      0.23253  0.96192   0.8757     C
Co     0.23641  0.14027  0.44696    Co
Co     0.23641  0.35973  0.94696    Co
Co     0.23641  0.64027  0.05304    Co
Co     0.23641  0.85973  0.55304    Co
H       0.2405   0.2172   0.8339     H
H       0.2405   0.2828   0.3339     H
H       0.2405   0.7172   0.6661     H
H       0.2405   0.7828   0.1661     H
O      0.24069  0.08057  0.70511     O
O      0.24069  0.41943  0.20511     O
O      0.24069  0.58057  0.79489     O
O      0.24069  0.91943  0.29489     O
O      0.24237  0.08893  0.07565     O
O      0.24237  0.41107  0.57565     O
O      0.24237  0.58893  0.42435     O
O      0.24237  0.91107  0.92435     O
H       0.2424   0.2229   0.3617     H
H       0.2424   0.2771   0.8617     H
H       0.2424   0.7229   0.1383     H
H       0.2424   0.7771   0.6383     H
Co        0.25   0.1225     0.75    Co
Co        0.25   0.3775     0.25    Co
Co        0.25   0.6225     0.75    Co
Co        0.25   0.8775     0.25    Co
H       0.2576   0.2229   0.1383     H
H       0.2576   0.2771   0.6383     H
H       0.2576   0.7229   0.3617     H
H       0.2576   0.7771   0.8617     H
O      0.25763  0.08893  0.42435     O
O      0.25763  0.41107  0.92435     O
O      0.25763  0.58893  0.07565     O
O      0.25763  0.91107  0.57565     O
O      0.25931  0.08057  0.79489     O
O      0.25931  0.41943  0.29489     O
O      0.25931  0.58057  0.70511     O
O      0.25931  0.91943  0.20511     O
H       0.2595   0.2172   0.6661     H
H       0.2595   0.2828   0.1661     H
H       0.2595   0.7172   0.8339     H
H       0.2595   0.7828   0.3339     H
Co     0.26359  0.14027  0.05304    Co
Co     0.26359  0.35973  0.55304    Co
Co     0.26359  0.64027  0.44696    Co
Co     0.26359  0.85973  0.94696    Co
C      0.26747  0.03808   0.3757     C
C      0.26747  0.46192   0.8757     C
C      0.26747  0.53808   0.1243     C
C      0.26747  0.96192   0.6243     C
C      0.27234  0.02359   0.8315     C
C      0.27234  0.47641   0.3315     C
C      0.27234  0.52359   0.6685     C
C      0.27234  0.97641   0.1685     C
C       0.2736  0.22821  0.84079     C
C       0.2736  0.27179  0.34079     C
C       0.2736  0.72821  0.65921     C
C       0.2736  0.77179  0.15921     C
C      0.27452  0.23626  0.35824     C
C      0.27452  0.26374  0.85824     C
C      0.27452  0.73626  0.14176     C
C      0.27452  0.76374  0.64176     C
O      0.27545  0.16236  0.79276     O
O      0.27545  0.33764  0.29276     O
O      0.27545  0.66236  0.70724     O
O      0.27545  0.83764  0.20724     O
H        0.278   0.1511   0.5764     H
H        0.278   0.3489   0.0764     H
H        0.278   0.6511   0.9236     H
H        0.278   0.8489   0.4236     H
O      0.27897  0.16868  0.40129     O
O      0.27897  0.33132  0.90129     O
O      0.27897  0.66868  0.09871     O
O      0.27897  0.83132  0.59871     O
C      0.28215  0.01585  0.66918     C
C      0.28215  0.48415  0.16918     C
C      0.28215  0.51585  0.83082     C
C      0.28215  0.98415  0.33082     C
C      0.28671  0.03087  0.12385     C
C      0.28671  0.46913  0.62385     C
C      0.28671  0.53087  0.37615     C
C      0.28671  0.96913  0.87615     C
C      0.28917  0.07208   0.3991     C
C      0.28917  0.42792   0.8991     C
C      0.28917  0.57208   0.1009     C
C      0.28917  0.92792   0.6009     C
H       0.2892   0.1446   0.6521     H
H       0.2892   0.3554   0.1521     H
H       0.2892   0.6446   0.8479     H
H       0.2892   0.8554   0.3479     H
C      0.29329  0.05773  0.80827     C
C      0.29329  0.44227  0.30827     C
C      0.29329  0.55773  0.69173     C
C      0.29329  0.94227  0.19173     C
O       0.2939   0.1418  0.49622     O
O       0.2939   0.3582  0.99622     O
O       0.2939   0.6418  0.00378     O
O       0.2939   0.8582  0.50378     O
C      0.30259  0.01455  0.35339     C
C      0.30259  0.48545  0.85339     C
C      0.30259  0.51455  0.14661     C
C      0.30259  0.98545  0.64661     C
C      0.30486  0.13546   0.5875     C
C      0.30486  0.36454   0.0875     C
C      0.30486  0.63546   0.9125     C
C      0.30486  0.86454   0.4125     C
H       0.3056   0.0312    0.685     H
H       0.3056   0.4688    0.185     H
H       0.3056   0.5312    0.815     H
H       0.3056   0.9688    0.315     H
C      0.30754  0.00034  0.85309     C
C      0.30754  0.49966  0.35309     C
C      0.30754  0.50034  0.64691     C
C      0.30754  0.99966  0.14691     C
H       0.3101   0.0465   0.1084     H
H       0.3101   0.4535   0.6084     H
H       0.3101   0.5465   0.3916     H
H       0.3101   0.9535   0.8916     H
C      0.31137  0.13135  0.63282     C
C      0.31137  0.36865  0.13282     C
C      0.31137  0.63135  0.86718     C
C      0.31137  0.86865  0.36718     C
C      0.31847  0.17093  0.81172     C
C      0.31847  0.32907  0.31172     C
C      0.31847  0.67093  0.68828     C
C      0.31847  0.82907  0.18828     C
C      0.32107  0.20879  0.83348     C
C      0.32107  0.29121  0.33348     C
C      0.32107  0.70879  0.66652     C
C      0.32107  0.79121  0.16652     C
C       0.3225  0.18323  0.39235     C
C       0.3225  0.31677  0.89235     C
C       0.3225  0.68323  0.10765     C
C       0.3225  0.81677  0.60765     C
C      0.32273   0.2211  0.37027     C
C      0.32273   0.2789  0.87027     C
C      0.32273   0.7211  0.12973     C
C      0.32273   0.7789  0.62973     C
O      0.33241   0.1243  0.72457     O
O      0.33241   0.3757  0.22457     O
O      0.33241   0.6243  0.77543     O
O      0.33241   0.8757  0.27543     O
C      0.33283  0.12261  0.50973     C
C      0.33283  0.37739  0.00973     C
C      0.33283  0.62261  0.99027     C
C      0.33283  0.87739  0.49027     C
O      0.33771  0.08065  0.39201     O
O      0.33771  0.41935  0.89201     O
O      0.33771  0.58065  0.10799     O
O      0.33771  0.91935  0.60799     O
C      0.33841  0.11621  0.55903     C
C      0.33841  0.38379  0.05903     C
C      0.33841  0.61621  0.94097     C
C      0.33841  0.88379  0.44097     C
H       0.3398   0.0192   0.3536     H
H       0.3398   0.4808   0.8536     H
H       0.3398   0.5192   0.1464     H
H       0.3398   0.9808   0.6464     H
O      0.34384  0.06144  0.80565     O
O      0.34384  0.43856  0.30565     O
O      0.34384  0.56144  0.69435     O
O      0.34384  0.93856  0.19435     O
H       0.3447    0.005   0.8526     H
H       0.3447    0.495   0.3526     H
H       0.3447    0.505   0.6474     H
H       0.3447    0.995   0.1474     H
C      0.35073  0.10758  0.64936     C
C      0.35073  0.39242  0.14936     C
C      0.35073  0.60758  0.85064     C
C      0.35073  0.89242  0.35064     C
C      0.35917  0.10461  0.69739     C
C      0.35917  0.39539  0.19739     C
C      0.35917  0.60461  0.80261     C
C      0.35917  0.89539  0.30261     C
O      0.36144  0.15121  0.81385     O
O      0.36144  0.34879  0.31385     O
O      0.36144  0.65121  0.68615     O
O      0.36144  0.84879  0.18615     O
O      0.36927  0.10815  0.48606     O
O      0.36927  0.39185  0.98606     O
O      0.36927  0.60815  0.01394     O
O      0.36927  0.89185  0.51394     O
C       0.3697   0.2239  0.84504     C
C       0.3697   0.2761  0.34504     C
C       0.3697   0.7239  0.65496     C
C       0.3697   0.7761  0.15496     C
O      0.36993  0.16788  0.39735     O
O      0.36993  0.33212  0.89735     O
O      0.36993  0.66788  0.10265     O
O      0.36993  0.83212  0.60265     O
C      0.37035  0.24061  0.36462     C
C      0.37035  0.25939  0.86462     C
C      0.37035  0.74061  0.13538     C
C      0.37035  0.75939  0.63538     C
C      0.37612   0.0928  0.57524     C
C      0.37612   0.4072  0.07524     C
C      0.37612   0.5928  0.92476     C
C      0.37612   0.9072  0.42476     C
Co     0.37768  0.11958  0.42383    Co
Co     0.37768  0.38042  0.92383    Co
Co     0.37768  0.61958  0.07617    Co
Co     0.37768  0.88042  0.57617    Co
Co     0.38001  0.10634  0.77935    Co
Co     0.38001  0.39366  0.27935    Co
Co     0.38001  0.60634  0.72065    Co
Co     0.38001  0.89366  0.22065    Co
C      0.38234  0.08749  0.62094     C
C      0.38234  0.41251  0.12094     C
C      0.38234  0.58749  0.87906     C
C      0.38234  0.91251  0.37906     C
O      0.39529  0.08338  0.71196     O
O      0.39529  0.41662  0.21196     O
O      0.39529  0.58338  0.78804     O
O      0.39529  0.91662  0.28804     O
H       0.3985   0.0799   0.5558     H
H       0.3985   0.4201   0.0558     H
H       0.3985   0.5799   0.9442     H
H       0.3985   0.9201   0.4442     H
H       0.4019    0.211   0.8401     H
H       0.4019    0.289   0.3401     H
H       0.4019    0.711   0.6599     H
H       0.4019    0.789   0.1599     H
H       0.4031   0.2303   0.3738     H
H       0.4031   0.2697   0.8738     H
H       0.4031   0.7303   0.1262     H
H       0.4031   0.7697   0.6262     H
H       0.4076   0.0705   0.6317     H
H       0.4076   0.4295   0.1317     H
H       0.4076   0.5705   0.8683     H
H       0.4076   0.9295   0.3683     H
H         0.45   0.0577   0.3681     H
H         0.45   0.4423   0.8681     H
H         0.45   0.5577   0.1319     H
H         0.45   0.9423   0.6319     H
H       0.4502   0.0457   0.8417     H
H       0.4502   0.4543   0.3417     H
H       0.4502   0.5457   0.6583     H
H       0.4502   0.9543   0.1583     H
N      0.45412  0.10325  0.40857     N
N      0.45412  0.39675  0.90857     N
N      0.45412  0.60325  0.09143     N
N      0.45412  0.89675  0.59143     N
N      0.45447  0.09193  0.80265     N
N      0.45447  0.40807  0.30265     N
N      0.45447  0.59193  0.69735     N
N      0.45447  0.90807  0.19735     N
O      0.45515  0.15166  0.75012     O
O      0.45515  0.34834  0.25012     O
O      0.45515  0.65166  0.74988     O
O      0.45515  0.84834  0.24988     O
O      0.45541  0.16283    0.462     O
O      0.45541  0.33717    0.962     O
O      0.45541  0.66283    0.038     O
O      0.45541  0.83717    0.538     O
C      0.47195  0.07461  0.38312     C
C      0.47195  0.42539  0.88312     C
C      0.47195  0.57461  0.11688     C
C      0.47195  0.92539  0.61688     C
C      0.47223  0.06283  0.82721     C
C      0.47223  0.43717  0.32721     C
C      0.47223  0.56283  0.67279     C
C      0.47223  0.93717  0.17279     C
C          0.5  0.10732  0.78864     C
C          0.5  0.11933  0.42311     C
N          0.5  0.13821  0.76133     N
N          0.5  0.15015  0.45049     N
N          0.5  0.34985  0.95049     N
N          0.5  0.36179  0.26133     N
C          0.5  0.38067  0.92311     C
C          0.5  0.39268  0.28864     C
C          0.5  0.60732  0.71136     C
C          0.5  0.61933  0.07689     C
N          0.5  0.63821  0.73867     N
N          0.5  0.65015  0.04951     N
N          0.5  0.84985  0.54951     N
N          0.5  0.86179  0.23867     N
C          0.5  0.88067  0.57689     C
C          0.5  0.89268  0.21136     C
C      0.52777  0.06283  0.82721     C
C      0.52777  0.43717  0.32721     C
C      0.52777  0.56283  0.67279     C
C      0.52777  0.93717  0.17279     C
C      0.52805  0.07461  0.38312     C
C      0.52805  0.42539  0.88312     C
C      0.52805  0.57461  0.11688     C
C      0.52805  0.92539  0.61688     C
O      0.54459  0.16283    0.462     O
O      0.54459  0.33717    0.962     O
O      0.54459  0.66283    0.038     O
O      0.54459  0.83717    0.538     O
O      0.54485  0.15166  0.75012     O
O      0.54485  0.34834  0.25012     O
O      0.54485  0.65166  0.74988     O
O      0.54485  0.84834  0.24988     O
N      0.54553  0.09193  0.80265     N
N      0.54553  0.40807  0.30265     N
N      0.54553  0.59193  0.69735     N
N      0.54553  0.90807  0.19735     N
N      0.54588  0.10325  0.40857     N
N      0.54588  0.39675  0.90857     N
N      0.54588  0.60325  0.09143     N
N      0.54588  0.89675  0.59143     N
H       0.5498   0.0457   0.8417     H
H       0.5498   0.4543   0.3417     H
H       0.5498   0.5457   0.6583     H
H       0.5498   0.9543   0.1583     H
H         0.55   0.0577   0.3681     H
H         0.55   0.4423   0.8681     H
H         0.55   0.5577   0.1319     H
H         0.55   0.9423   0.6319     H
H       0.5924   0.0705   0.6317     H
H       0.5924   0.4295   0.1317     H
H       0.5924   0.5705   0.8683     H
H       0.5924   0.9295   0.3683     H
H       0.5969   0.2303   0.3738     H
H       0.5969   0.2697   0.8738     H
H       0.5969   0.7303   0.1262     H
H       0.5969   0.7697   0.6262     H
H       0.5981    0.211   0.8401     H
H       0.5981    0.289   0.3401     H
H       0.5981    0.711   0.6599     H
H       0.5981    0.789   0.1599     H
H       0.6015   0.0799   0.5558     H
H       0.6015   0.4201   0.0558     H
H       0.6015   0.5799   0.9442     H
H       0.6015   0.9201   0.4442     H
O      0.60471  0.08338  0.71196     O
O      0.60471  0.41662  0.21196     O
O      0.60471  0.58338  0.78804     O
O      0.60471  0.91662  0.28804     O
C      0.61766  0.08749  0.62094     C
C      0.61766  0.41251  0.12094     C
C      0.61766  0.58749  0.87906     C
C      0.61766  0.91251  0.37906     C
Co     0.61999  0.10634  0.77935    Co
Co     0.61999  0.39366  0.27935    Co
Co     0.61999  0.60634  0.72065    Co
Co     0.61999  0.89366  0.22065    Co
Co     0.62232  0.11958  0.42383    Co
Co     0.62232  0.38042  0.92383    Co
Co     0.62232  0.61958  0.07617    Co
Co     0.62232  0.88042  0.57617    Co
C      0.62388   0.0928  0.57524     C
C      0.62388   0.4072  0.07524     C
C      0.62388   0.5928  0.92476     C
C      0.62388   0.9072  0.42476     C
C      0.62965  0.24061  0.36462     C
C      0.62965  0.25939  0.86462     C
C      0.62965  0.74061  0.13538     C
C      0.62965  0.75939  0.63538     C
O      0.63007  0.16788  0.39735     O
O      0.63007  0.33212  0.89735     O
O      0.63007  0.66788  0.10265     O
O      0.63007  0.83212  0.60265     O
C       0.6303   0.2239  0.84504     C
C       0.6303   0.2761  0.34504     C
C       0.6303   0.7239  0.65496     C
C       0.6303   0.7761  0.15496     C
O      0.63073  0.10815  0.48606     O
O      0.63073  0.39185  0.98606     O
O      0.63073  0.60815  0.01394     O
O      0.63073  0.89185  0.51394     O
O      0.63856  0.15121  0.81385     O
O      0.63856  0.34879  0.31385     O
O      0.63856  0.65121  0.68615     O
O      0.63856  0.84879  0.18615     O
C      0.64083  0.10461  0.69739     C
C      0.64083  0.39539  0.19739     C
C      0.64083  0.60461  0.80261     C
C      0.64083  0.89539  0.30261     C
C      0.64927  0.10758  0.64936     C
C      0.64927  0.39242  0.14936     C
C      0.64927  0.60758  0.85064     C
C      0.64927  0.89242  0.35064     C
H       0.6553    0.005   0.8526     H
H       0.6553    0.495   0.3526     H
H       0.6553    0.505   0.6474     H
H       0.6553    0.995   0.1474     H
O      0.65616  0.06144  0.80565     O
O      0.65616  0.43856  0.30565     O
O      0.65616  0.56144  0.69435     O
O      0.65616  0.93856  0.19435     O
H       0.6602   0.0192   0.3536     H
H       0.6602   0.4808   0.8536     H
H       0.6602   0.5192   0.1464     H
H       0.6602   0.9808   0.6464     H
C      0.66159  0.11621  0.55903     C
C      0.66159  0.38379  0.05903     C
C      0.66159  0.61621  0.94097     C
C      0.66159  0.88379  0.44097     C
O      0.66229  0.08065  0.39201     O
O      0.66229  0.41935  0.89201     O
O      0.66229  0.58065  0.10799     O
O      0.66229  0.91935  0.60799     O
C      0.66717  0.12261  0.50973     C
C      0.66717  0.37739  0.00973     C
C      0.66717  0.62261  0.99027     C
C      0.66717  0.87739  0.49027     C
O      0.66759   0.1243  0.72457     O
O      0.66759   0.3757  0.22457     O
O      0.66759   0.6243  0.77543     O
O      0.66759   0.8757  0.27543     O
C      0.67727   0.2211  0.37027     C
C      0.67727   0.2789  0.87027     C
C      0.67727   0.7211  0.12973     C
C      0.67727   0.7789  0.62973     C
C       0.6775  0.18323  0.39235     C
C       0.6775  0.31677  0.89235     C
C       0.6775  0.68323  0.10765     C
C       0.6775  0.81677  0.60765     C
C      0.67893  0.20879  0.83348     C
C      0.67893  0.29121  0.33348     C
C      0.67893  0.70879  0.66652     C
C      0.67893  0.79121  0.16652     C
C      0.68153  0.17093  0.81172     C
C      0.68153  0.32907  0.31172     C
C      0.68153  0.67093  0.68828     C
C      0.68153  0.82907  0.18828     C
C      0.68863  0.13135  0.63282     C
C      0.68863  0.36865  0.13282     C
C      0.68863  0.63135  0.86718     C
C      0.68863  0.86865  0.36718     C
H       0.6899   0.0465   0.1084     H
H       0.6899   0.4535   0.6084     H
H       0.6899   0.5465   0.3916     H
H       0.6899   0.9535   0.8916     H
C      0.69246  0.00034  0.85309     C
C      0.69246  0.49966  0.35309     C
C      0.69246  0.50034  0.64691     C
C      0.69246  0.99966  0.14691     C
H       0.6944   0.0312    0.685     H
H       0.6944   0.4688    0.185     H
H       0.6944   0.5312    0.815     H
H       0.6944   0.9688    0.315     H
C      0.69514  0.13546   0.5875     C
C      0.69514  0.36454   0.0875     C
C      0.69514  0.63546   0.9125     C
C      0.69514  0.86454   0.4125     C
C      0.69741  0.01455  0.35339     C
C      0.69741  0.48545  0.85339     C
C      0.69741  0.51455  0.14661     C
C      0.69741  0.98545  0.64661     C
O       0.7061   0.1418  0.49622     O
O       0.7061   0.3582  0.99622     O
O       0.7061   0.6418  0.00378     O
O       0.7061   0.8582  0.50378     O
C      0.70671  0.05773  0.80827     C
C      0.70671  0.44227  0.30827     C
C      0.70671  0.55773  0.69173     C
C      0.70671  0.94227  0.19173     C
H       0.7108   0.1446   0.6521     H
H       0.7108   0.3554   0.1521     H
H       0.7108   0.6446   0.8479     H
H       0.7108   0.8554   0.3479     H
C      0.71083  0.07208   0.3991     C
C      0.71083  0.42792   0.8991     C
C      0.71083  0.57208   0.1009     C
C      0.71083  0.92792   0.6009     C
C      0.71329  0.03087  0.12385     C
C      0.71329  0.46913  0.62385     C
C      0.71329  0.53087  0.37615     C
C      0.71329  0.96913  0.87615     C
C      0.71785  0.01585  0.66918     C
C      0.71785  0.48415  0.16918     C
C      0.71785  0.51585  0.83082     C
C      0.71785  0.98415  0.33082     C
O      0.72103  0.16868  0.40129     O
O      0.72103  0.33132  0.90129     O
O      0.72103  0.66868  0.09871     O
O      0.72103  0.83132  0.59871     O
H        0.722   0.1511   0.5764     H
H        0.722   0.3489   0.0764     H
H        0.722   0.6511   0.9236     H
H        0.722   0.8489   0.4236     H
O      0.72455  0.16236  0.79276     O
O      0.72455  0.33764  0.29276     O
O      0.72455  0.66236  0.70724     O
O      0.72455  0.83764  0.20724     O
C      0.72548  0.23626  0.35824     C
C      0.72548  0.26374  0.85824     C
C      0.72548  0.73626  0.14176     C
C      0.72548  0.76374  0.64176     C
C       0.7264  0.22821  0.84079     C
C       0.7264  0.27179  0.34079     C
C       0.7264  0.72821  0.65921     C
C       0.7264  0.77179  0.15921     C
C      0.72766  0.02359   0.8315     C
C      0.72766  0.47641   0.3315     C
C      0.72766  0.52359   0.6685     C
C      0.72766  0.97641   0.1685     C
C      0.73253  0.03808   0.3757     C
C      0.73253  0.46192   0.8757     C
C      0.73253  0.53808   0.1243     C
C      0.73253  0.96192   0.6243     C
Co     0.73641  0.14027  0.05304    Co
Co     0.73641  0.35973  0.55304    Co
Co     0.73641  0.64027  0.44696    Co
Co     0.73641  0.85973  0.94696    Co
H       0.7405   0.2172   0.6661     H
H       0.7405   0.2828   0.1661     H
H       0.7405   0.7172   0.8339     H
H       0.7405   0.7828   0.3339     H
O      0.74069  0.08057  0.79489     O
O      0.74069  0.41943  0.29489     O
O      0.74069  0.58057  0.70511     O
O      0.74069  0.91943  0.20511     O
O      0.74237  0.08893  0.42435     O
O      0.74237  0.41107  0.92435     O
O      0.74237  0.58893  0.07565     O
O      0.74237  0.91107  0.57565     O
H       0.7424   0.2229   0.1383     H
H       0.7424   0.2771   0.6383     H
H       0.7424   0.7229   0.3617     H
H       0.7424   0.7771   0.8617     H
Co        0.75   0.1225     0.75    Co
Co        0.75   0.3775     0.25    Co
Co        0.75   0.6225     0.75    Co
Co        0.75   0.8775     0.25    Co
H       0.7576   0.2229   0.3617     H
H       0.7576   0.2771   0.8617     H
H       0.7576   0.7229   0.1383     H
H       0.7576   0.7771   0.6383     H
O      0.75763  0.08893  0.07565     O
O      0.75763  0.41107  0.57565     O
O      0.75763  0.58893  0.42435     O
O      0.75763  0.91107  0.92435     O
O      0.75931  0.08057  0.70511     O
O      0.75931  0.41943  0.20511     O
O      0.75931  0.58057  0.79489     O
O      0.75931  0.91943  0.29489     O
H       0.7595   0.2172   0.8339     H
H       0.7595   0.2828   0.3339     H
H       0.7595   0.7172   0.6661     H
H       0.7595   0.7828   0.1661     H
Co     0.76359  0.14027  0.44696    Co
Co     0.76359  0.35973  0.94696    Co
Co     0.76359  0.64027  0.05304    Co
Co     0.76359  0.85973  0.55304    Co
C      0.76747  0.03808   0.1243     C
C      0.76747  0.46192   0.6243     C
C      0.76747  0.53808   0.3757     C
C      0.76747  0.96192   0.8757     C
C      0.77234  0.02359   0.6685     C
C      0.77234  0.47641   0.1685     C
C      0.77234  0.52359   0.8315     C
C      0.77234  0.97641   0.3315     C
C       0.7736  0.22821  0.65921     C
C       0.7736  0.27179  0.15921     C
C       0.7736  0.72821  0.84079     C
C       0.7736  0.77179  0.34079     C
C      0.77452  0.23626  0.14176     C
C      0.77452  0.26374  0.64176     C
C      0.77452  0.73626  0.35824     C
C      0.77452  0.76374  0.85824     C
O      0.77545  0.16236  0.70724     O
O      0.77545  0.33764  0.20724     O
O      0.77545  0.66236  0.79276     O
O      0.77545  0.83764  0.29276     O
H        0.778   0.1511   0.9236     H
H        0.778   0.3489   0.4236     H
H        0.778   0.6511   0.5764     H
H        0.778   0.8489   0.0764     H
O      0.77897  0.16868  0.09871     O
O      0.77897  0.33132  0.59871     O
O      0.77897  0.66868  0.40129     O
O      0.77897  0.83132  0.90129     O
C      0.78215  0.01585  0.83082     C
C      0.78215  0.48415  0.33082     C
C      0.78215  0.51585  0.66918     C
C      0.78215  0.98415  0.16918     C
C      0.78671  0.03087  0.37615     C
C      0.78671  0.46913  0.87615     C
C      0.78671  0.53087  0.12385     C
C      0.78671  0.96913  0.62385     C
C      0.78917  0.07208   0.1009     C
C      0.78917  0.42792   0.6009     C
C      0.78917  0.57208   0.3991     C
C      0.78917  0.92792   0.8991     C
H       0.7892   0.1446   0.8479     H
H       0.7892   0.3554   0.3479     H
H       0.7892   0.6446   0.6521     H
H       0.7892   0.8554   0.1521     H
C      0.79329  0.05773  0.69173     C
C      0.79329  0.44227  0.19173     C
C      0.79329  0.55773  0.80827     C
C      0.79329  0.94227  0.30827     C
O       0.7939   0.1418  0.00378     O
O       0.7939   0.3582  0.50378     O
O       0.7939   0.6418  0.49622     O
O       0.7939   0.8582  0.99622     O
C      0.80259  0.01455  0.14661     C
C      0.80259  0.48545  0.64661     C
C      0.80259  0.51455  0.35339     C
C      0.80259  0.98545  0.85339     C
C      0.80486  0.13546   0.9125     C
C      0.80486  0.36454   0.4125     C
C      0.80486  0.63546   0.5875     C
C      0.80486  0.86454   0.0875     C
H       0.8056   0.0312    0.815     H
H       0.8056   0.4688    0.315     H
H       0.8056   0.5312    0.685     H
H       0.8056   0.9688    0.185     H
C      0.80754  0.00034  0.64691     C
C      0.80754  0.49966  0.14691     C
C      0.80754  0.50034  0.85309     C
C      0.80754  0.99966  0.35309     C
H       0.8101   0.0465   0.3916     H
H       0.8101   0.4535   0.8916     H
H       0.8101   0.5465   0.1084     H
H       0.8101   0.9535   0.6084     H
C      0.81137  0.13135  0.86718     C
C      0.81137  0.36865  0.36718     C
C      0.81137  0.63135  0.63282     C
C      0.81137  0.86865  0.13282     C
C      0.81847  0.17093  0.68828     C
C      0.81847  0.32907  0.18828     C
C      0.81847  0.67093  0.81172     C
C      0.81847  0.82907  0.31172     C
C      0.82107  0.20879  0.66652     C
C      0.82107  0.29121  0.16652     C
C      0.82107  0.70879  0.83348     C
C      0.82107  0.79121  0.33348     C
C       0.8225  0.18323  0.10765     C
C       0.8225  0.31677  0.60765     C
C       0.8225  0.68323  0.39235     C
C       0.8225  0.81677  0.89235     C
C      0.82273   0.2211  0.12973     C
C      0.82273   0.2789  0.62973     C
C      0.82273   0.7211  0.37027     C
C      0.82273   0.7789  0.87027     C
O      0.83241   0.1243  0.77543     O
O      0.83241   0.3757  0.27543     O
O      0.83241   0.6243  0.72457     O
O      0.83241   0.8757  0.22457     O
C      0.83283  0.12261  0.99027     C
C      0.83283  0.37739  0.49027     C
C      0.83283  0.62261  0.50973     C
C      0.83283  0.87739  0.00973     C
O      0.83771  0.08065  0.10799     O
O      0.83771  0.41935  0.60799     O
O      0.83771  0.58065  0.39201     O
O      0.83771  0.91935  0.89201     O
C      0.83841  0.11621  0.94097     C
C      0.83841  0.38379  0.44097     C
C      0.83841  0.61621  0.55903     C
C      0.83841  0.88379  0.05903     C
H       0.8398   0.0192   0.1464     H
H       0.8398   0.4808   0.6464     H
H       0.8398   0.5192   0.3536     H
H       0.8398   0.9808   0.8536     H
O      0.84384  0.06144  0.69435     O
O      0.84384  0.43856  0.19435     O
O      0.84384  0.56144  0.80565     O
O      0.84384  0.93856  0.30565     O
H       0.8447    0.005   0.6474     H
H       0.8447    0.495   0.1474     H
H       0.8447    0.505   0.8526     H
H       0.8447    0.995   0.3526     H
C      0.85073  0.10758  0.85064     C
C      0.85073  0.39242  0.35064     C
C      0.85073  0.60758  0.64936     C
C      0.85073  0.89242  0.14936     C
C      0.85917  0.10461  0.80261     C
C      0.85917  0.39539  0.30261     C
C      0.85917  0.60461  0.69739     C
C      0.85917  0.89539  0.19739     C
O      0.86144  0.15121  0.68615     O
O      0.86144  0.34879  0.18615     O
O      0.86144  0.65121  0.81385     O
O      0.86144  0.84879  0.31385     O
O      0.86927  0.10815  0.01394     O
O      0.86927  0.39185  0.51394     O
O      0.86927  0.60815  0.48606     O
O      0.86927  0.89185  0.98606     O
C       0.8697   0.2239  0.65496     C
C       0.8697   0.2761  0.15496     C
C       0.8697   0.7239  0.84504     C
C       0.8697   0.7761  0.34504     C
O      0.86993  0.16788  0.10265     O
O      0.86993  0.33212  0.60265     O
O      0.86993  0.66788  0.39735     O
O      0.86993  0.83212  0.89735     O
C      0.87035  0.24061  0.13538     C
C      0.87035  0.25939  0.63538     C
C      0.87035  0.74061  0.36462     C
C      0.87035  0.75939  0.86462     C
C      0.87612   0.0928  0.92476     C
C      0.87612   0.4072  0.42476     C
C      0.87612   0.5928  0.57524     C
C      0.87612   0.9072  0.07524     C
Co     0.87768  0.11958  0.07617    Co
Co     0.87768  0.38042  0.57617    Co
Co     0.87768  0.61958  0.42383    Co
Co     0.87768  0.88042  0.92383    Co
Co     0.88001  0.10634  0.72065    Co
Co     0.88001  0.39366  0.22065    Co
Co     0.88001  0.60634  0.77935    Co
Co     0.88001  0.89366  0.27935    Co
C      0.88234  0.08749  0.87906     C
C      0.88234  0.41251  0.37906     C
C      0.88234  0.58749  0.62094     C
C      0.88234  0.91251  0.12094     C
O      0.89529  0.08338  0.78804     O
O      0.89529  0.41662  0.28804     O
O      0.89529  0.58338  0.71196     O
O      0.89529  0.91662  0.21196     O
H       0.8985   0.0799   0.9442     H
H       0.8985   0.4201   0.4442     H
H       0.8985   0.5799   0.5558     H
H       0.8985   0.9201   0.0558     H
H       0.9019    0.211   0.6599     H
H       0.9019    0.289   0.1599     H
H       0.9019    0.711   0.8401     H
H       0.9019    0.789   0.3401     H
H       0.9031   0.2303   0.1262     H
H       0.9031   0.2697   0.6262     H
H       0.9031   0.7303   0.3738     H
H       0.9031   0.7697   0.8738     H
H       0.9076   0.0705   0.8683     H
H       0.9076   0.4295   0.3683     H
H       0.9076   0.5705   0.6317     H
H       0.9076   0.9295   0.1317     H
H         0.95   0.0577   0.1319     H
H         0.95   0.4423   0.6319     H
H         0.95   0.5577   0.3681     H
H         0.95   0.9423   0.8681     H
H       0.9502   0.0457   0.6583     H
H       0.9502   0.4543   0.1583     H
H       0.9502   0.5457   0.8417     H
H       0.9502   0.9543   0.3417     H
N      0.95412  0.10325  0.09143     N
N      0.95412  0.39675  0.59143     N
N      0.95412  0.60325  0.40857     N
N      0.95412  0.89675  0.90857     N
N      0.95447  0.09193  0.69735     N
N      0.95447  0.40807  0.19735     N
N      0.95447  0.59193  0.80265     N
N      0.95447  0.90807  0.30265     N
O      0.95515  0.15166  0.74988     O
O      0.95515  0.34834  0.24988     O
O      0.95515  0.65166  0.75012     O
O      0.95515  0.84834  0.25012     O
O      0.95541  0.16283    0.038     O
O      0.95541  0.33717    0.538     O
O      0.95541  0.66283    0.462     O
O      0.95541  0.83717    0.962     O
C      0.97195  0.07461  0.11688     C
C      0.97195  0.42539  0.61688     C
C      0.97195  0.57461  0.38312     C
C      0.97195  0.92539  0.88312     C
C      0.97223  0.06283  0.67279     C
C      0.97223  0.43717  0.17279     C
C      0.97223  0.56283  0.82721     C
C      0.97223  0.93717  0.32721     C
