data_I
_chemical_name_common  '/home/zhangsd/repos/MofS-CGCNN/ML/data/TSD/clean_cifs/LADQEP_clean'
_cell_length_a 11.44220
_cell_length_b 13.64990
_cell_length_c 23.97690
_cell_angle_alpha 92.91500
_cell_angle_beta  103.67100
_cell_angle_gamma 112.82100
_space_group_name_H-M_alt      'P 1'


loop_
_space_group_symop_operation_xyz
  'x, y, z' 

loop_
_atom_site_label
_atom_site_fract_x
_atom_site_fract_y
_atom_site_fract_z
_atom_site_type_symbol
C        0.009   0.3384   0.3111     C
C       0.0161   0.4879   0.7993     C
C       0.0195   0.4132   0.2728     C
H       0.0328   0.1195   0.2101     H
H       0.0336   0.9113   0.1694     H
C       0.0414   0.0214   0.7116     C
H       0.0444   0.3984   0.8612     H
C        0.052    0.932   0.2107     C
C        0.052    0.939   0.8042     C
C        0.053   0.0535   0.3879     C
C       0.0535   0.0196    0.599     C
H       0.0563    0.874   0.2307     H
C       0.0567   0.0369   0.7776     C
H       0.0573   0.0177   0.5607     H
C       0.0607   0.0546     0.33     C
H        0.068   0.7237   0.6956     H
H       0.0737   0.9554    0.846     H
C       0.0757   0.5815   0.7771     C
C       0.0855   0.4604   0.8464     C
H       0.0873   0.6787   0.2867     H
H        0.107   0.3066   0.3838     H
C        0.114   0.3567   0.3585     C
H       0.1168   0.9177    0.794     H
C       0.1262   0.5761    0.237     C
H       0.1307   0.7256   0.2326     H
H       0.1327   0.1053   0.3208     H
H        0.134   0.9938   0.2244     H
C       0.1381   0.5044   0.2834     C
C        0.147    0.686   0.2634     C
C        0.152   0.0962      0.7     C
C        0.157   0.0971   0.6424     C
O       0.1596   0.1463   0.4858     O
C       0.1689   0.1382   0.4353     C
C       0.1916    0.133   0.7994     C
C        0.208   0.6468   0.8031     C
H       0.2116   0.6215   0.1695     H
H       0.2151   0.1678   0.8834     H
C       0.2172   0.5264   0.8713     C
H       0.2195    0.514   0.1863     H
C        0.227    0.584   0.2014     C
H       0.2278   0.1488   0.6331     H
O       0.2304   0.4393   0.9535     O
C       0.2304   0.4493   0.3692     C
H       0.2359   0.7237   0.2876     H
C       0.2428   0.5222   0.3309     C
C        0.244   0.1669   0.7533     C
H       0.2494   0.7103   0.7894     H
C       0.2533   0.1876   0.8533     C
O       0.2684   0.1961   0.4213     O
C        0.279   0.6183   0.8486     C
C        0.292    0.499   0.9237     C
H       0.3041   0.8937   0.1975     H
H       0.3144   0.6237   0.2267     H
H       0.3151   0.8867   0.7411     H
O        0.318   0.4203   0.4631     O
H       0.3214    0.583   0.3372     H
C       0.3426   0.4722   0.4212     C
H       0.3444   0.0077   0.7594     H
H       0.3453   0.3327   0.2429     H
Eu      0.3544  0.40266  0.03808    Eu
O       0.3633   0.3892   0.1421     O
H       0.3652   0.2473   0.3203     H
C        0.368   0.2528   0.7641     C
H       0.3683   0.6607   0.8645     H
C        0.369   0.2752   0.2401     C
H       0.3717   0.9384   0.8073     H
O       0.3722   0.2584    0.088     O
C        0.373   0.2983   0.1379     C
C        0.373   0.9512   0.7681     C
Eu     0.37634  0.29865  0.51752    Eu
C        0.382   0.2255   0.2868     C
C       0.3831     0.28   0.8644     C
H       0.3835    0.937   0.1521     H
C        0.389   0.2468   0.1892     C
C        0.389   0.9181   0.1906     C
O       0.3936   0.3087   0.9646     O
H        0.406   0.2733   0.7339     H
H       0.4126   0.1158   0.4003     H
O       0.4168    0.537   0.9352     O
H       0.4201   0.8618   0.1939     H
C        0.421    0.139   0.2837     C
C        0.425   0.1569   0.1847     C
C        0.432   0.3056   0.8193     C
O       0.4353   0.2304   0.6069     O
H       0.4355   0.1334   0.1498     H
O       0.4355   0.5876   0.0665     O
C        0.437   0.0676   0.3823     C
C       0.4423    0.068   0.3239     C
C       0.4436   0.1062   0.2315     C
C        0.452   0.3362    0.925     C
O       0.4536   0.5438   0.4235     O
O        0.457   0.1563   0.5284     O
C        0.462   0.1605   0.5814     C
H       0.4678   0.1278   0.6902     H
H       0.4678    0.993   0.4503     H
C        0.469   0.9934   0.4116     C
C        0.479   0.9955   0.2982     C
C       0.4827   0.0139   0.2367     C
H       0.4852   0.6376   0.1739     H
C       0.4913   0.0791   0.6722     C
C       0.4966   0.0812   0.6144     C
C       0.5034   0.9188   0.3856     C
C       0.5087   0.9209   0.3278     C
H       0.5148   0.3624   0.8261     H
C       0.5173   0.9861   0.7633     C
C        0.521   0.0045   0.7018     C
C        0.531   0.0066   0.5884     C
H       0.5322    0.007   0.5497     H
H       0.5322   0.8722   0.3098     H
C        0.538   0.8395   0.4186     C
O        0.543   0.8437   0.4716     O
O       0.5464   0.4562   0.5765     O
C        0.548   0.6638    0.075     C
C       0.5564   0.8938   0.7685     C
C       0.5577    0.932   0.6761     C
C        0.563   0.9324   0.6177     C
O       0.5645   0.4124   0.9335     O
H       0.5645   0.8666   0.8502     H
O       0.5647   0.7696   0.3931     O
C        0.568   0.6944   0.1807     C
C        0.575   0.8431   0.8153     C
C        0.579    0.861   0.7163     C
H       0.5799   0.1382   0.8061     H
O       0.5832    0.463   0.0648     O
H       0.5874   0.8842   0.5997     H
H        0.594   0.7267   0.2661     H
O       0.6064   0.6913   0.0354     O
C        0.611   0.0819   0.8094     C
C        0.611   0.7532   0.8108     C
H       0.6165    0.063   0.8479     H
C       0.6169     0.72   0.1356     C
C        0.618   0.7745   0.7132     C
Eu     0.62366  0.70135  0.48248    Eu
C        0.627   0.0488   0.2319     C
C        0.627   0.7017   0.8621     C
O       0.6278   0.7416    0.912     O
H       0.6283   0.0616   0.1927     H
C        0.631   0.7248   0.7599     C
H       0.6317   0.3393   0.1355     H
C        0.632   0.7472   0.2359     C
H       0.6348   0.7527   0.6797     H
O       0.6367   0.6108   0.8579     O
Eu      0.6456  0.59734  0.96192    Eu
H       0.6547   0.6673   0.7571     H
H       0.6556   0.9923   0.2406     H
C       0.6574   0.5278   0.5788     C
H       0.6786    0.417   0.6628     H
O        0.682   0.5797   0.5369     O
H       0.6849   0.1133   0.2589     H
H       0.6856   0.3763   0.7733     H
H       0.6959   0.1063   0.8025     H
C        0.708    0.501   0.0763     C
C        0.721   0.3817   0.1514     C
O       0.7316   0.8039   0.5787     O
C       0.7467   0.8124   0.1467     C
H       0.7506   0.2897   0.2106     H
C        0.756   0.8331   0.2467     C
C       0.7572   0.4778   0.6691     C
H       0.7641   0.2763   0.7124     H
C       0.7696   0.5507   0.6308     C
O       0.7696   0.5607   0.0465     O
H       0.7722   0.8512   0.3669     H
C        0.773    0.416   0.7986     C
H       0.7805    0.486   0.8137     H
C       0.7828   0.4736   0.1287     C
H       0.7849   0.8322   0.1166     H
H       0.7884   0.3785   0.8305     H
C        0.792   0.3532   0.1969     C
C       0.8084    0.867   0.2006     C
C       0.8311   0.8618   0.5647     C
O       0.8404   0.8537   0.5142     O
C        0.843   0.9029   0.3576     C
C        0.848   0.9038      0.3     C
C        0.853    0.314   0.7366     C
C       0.8619   0.4956   0.7166     C
H        0.866   0.0062   0.7756     H
H       0.8673   0.8947   0.6792     H
H       0.8693   0.2744   0.7674     H
C       0.8738   0.4239    0.763     C
H       0.8832   0.0823    0.206     H
C        0.886   0.6433   0.6415     C
H        0.893   0.6934   0.6162     H
H       0.9127   0.3213   0.7133     H
C       0.9145   0.5396   0.1536     C
C       0.9243   0.4185   0.2229     C
H       0.9263   0.0446    0.154     H
H        0.932   0.2763   0.3044     H
C       0.9393   0.9454     0.67     C
H       0.9427   0.9823   0.4393     H
C       0.9433   0.9631   0.2224     C
H       0.9437    0.126   0.7693     H
C       0.9465   0.9804    0.401     C
C        0.947   0.9465   0.6121     C
C        0.948    0.061   0.1958     C
C        0.948    0.068   0.7893     C
H       0.9556   0.6016   0.1388     H
C       0.9586   0.9786   0.2884     C
H       0.9664   0.0887   0.8306     H
H       0.9672   0.8805   0.7899     H
C       0.9805   0.5868   0.7272     C
C       0.9839   0.5121   0.2007     C
C        0.991   0.6616   0.6889     C
