data_I
_chemical_name_common  '/home/zhangsd/repos/MofS-CGCNN/ML/data/TSD/clean_cifs/LAHYOL_clean'
_cell_length_a 10.81770
_cell_length_b 19.84830
_cell_length_c 25.86870
_cell_angle_alpha 101.11700
_cell_angle_beta  101.10800
_cell_angle_gamma 94.82700
_space_group_name_H-M_alt      'P 1'


loop_
_space_group_symop_operation_xyz
  'x, y, z' 

loop_
_atom_site_label
_atom_site_fract_x
_atom_site_fract_y
_atom_site_fract_z
_atom_site_type_symbol
C        0.021      0.7    0.168     C
C        0.025   0.7722   0.1652     C
H       0.0262   0.3509   0.3903     H
H       0.0448   0.8632   0.5353     H
H       0.0492   0.0869   0.3717     H
O       0.0492   0.1459   0.2912     O
H       0.0539   0.3709   0.7993     H
H       0.0554   0.1449   0.8184     H
C        0.057   0.1908   0.8151     C
C        0.059   0.3263    0.805     C
O        0.064   0.2941   0.2942     O
Ba     0.06985  0.63601  0.77183    Ba
H       0.0739   0.6723   0.1515     H
O       0.0767   0.7842   0.6026     O
H       0.0845   0.7924   0.1496     H
H       0.0923     0.79   0.2868     H
H       0.0941   0.7254    0.344     H
H       0.0983   0.7698   0.4324     H
O       0.1019    0.317   0.1752     O
C        0.104   0.7732   0.3562     C
H       0.1056   0.2895   0.4712     H
O       0.1064   0.7847   0.8063     O
H       0.1095   0.2506   0.5488     H
C         0.11   0.3705   0.4056     C
C         0.11   0.7996   0.4097     C
C        0.111   0.8111   0.3233     C
C        0.117   0.0775   0.3554     C
C        0.119   0.3212   0.5039     C
C         0.12   0.8624   0.5233     C
C        0.123   0.2979   0.5502     C
H       0.1324   0.5582    0.632     H
H       0.1345   0.4866   0.3787     H
C        0.135   0.3942   0.5046     C
C        0.135   0.4186   0.4572     C
C        0.136   0.8744   0.4317     C
C        0.137    0.905   0.4851     C
C        0.144    0.118   0.3133     C
C        0.144   0.8837   0.3372     C
C        0.147   0.5171   0.4119     C
C        0.147   0.9164   0.3912     C
C        0.148   0.3456   0.6008     C
Ba     0.14841  0.19282  0.21056    Ba
C        0.149   0.2171   0.7891     C
C         0.15   0.2889   0.7854     C
H       0.1501   0.8761   0.8953     H
C        0.151   0.4922   0.4596     C
H       0.1522   0.4162   0.1307     H
H       0.1536   0.3287   0.6322     H
C        0.156   0.9763   0.5026     C
H       0.1566   0.6026    0.384     H
H       0.1574   0.4029   0.7376     H
H       0.1584   0.9824   0.5842     H
C        0.159   0.4426   0.5568     C
C         0.16   0.5859   0.4154     C
H       0.1624   0.9086   0.3122     H
C        0.165   0.4157   0.6045     C
C        0.166   0.9902   0.4101     C
C        0.168   0.0094   0.5592     C
C        0.171   0.5386   0.5117     C
C        0.173   0.3066   0.3231     C
Ba     0.17347  0.81106  0.71053    Ba
C        0.175   0.5127   0.5589     C
C        0.176   0.0193   0.4655     C
H       0.1771   0.0627   0.6943     H
H       0.1791   0.4458    0.638     H
C         0.18   0.6339   0.4656     C
C        0.181   0.6105   0.5112     C
C        0.183   0.7914   0.5912     C
C        0.184   0.0317   0.3689     C
H       0.1873   0.6423   0.5434     H
O       0.1918   0.9545   0.7701     O
H       0.1928   0.6812    0.467     H
C        0.193   0.0779   0.5751     C
C        0.193   0.5622   0.6113     C
H       0.1965   0.0981    0.611     H
C        0.198   0.3266   0.1561     C
O       0.1991   0.5273   0.7512     O
C        0.201   0.0504   0.7274     C
C        0.201   0.3523   0.3781     C
C        0.202   0.8221   0.5432     C
C        0.202   0.9749   0.7274     C
C        0.204   0.0922   0.4857     C
C        0.208   0.3832   0.1275     C
O       0.2085   0.9374   0.6826     O
C        0.213   0.1205   0.5395     C
C        0.215   0.8109   0.8337     C
H       0.2156    0.121   0.4622     H
H       0.2208   0.5773   0.9122     H
C        0.223    0.859   0.8875     C
O       0.2287   0.6708   0.7095     O
C        0.233   0.1015   0.7716     C
H       0.2332    0.168   0.5522     H
C        0.235   0.1765   0.7684     C
C        0.235   0.3917   0.7544     C
C        0.237    0.318   0.7595     C
O       0.2484   0.1195   0.3015     O
H       0.2499    0.023   0.3514     H
H       0.2546   0.0903   0.8052     H
O       0.2612   0.6617   0.8538     O
H       0.2661   0.1092   0.9043     H
O       0.2692   0.2802   0.3088     O
H       0.2709   0.8126   0.5275     H
H       0.2746   0.3157   0.0042     H
H       0.2785    0.994   0.8969     H
C        0.282   0.0914   0.9353     C
O       0.2835   0.7748   0.6191     O
H        0.285   0.3691   0.3943     H
H       0.2856    0.182    0.987     H
O        0.288   0.2892   0.1609     O
C        0.291   0.6121   0.6307     C
C        0.292   0.0231   0.9307     C
C        0.295   0.3491   0.9854     C
C        0.296   0.1356   0.9852     C
C        0.296   0.3899   0.0963     C
C        0.297   0.6056   0.9267     C
H       0.2991   0.2823   0.9174     H
C        0.306   0.4438   0.0662     C
C        0.307   0.5157   0.7653     C
C        0.309   0.3292   0.9335     C
C        0.312   0.4221   0.0116     C
H        0.316   0.0943   0.1338     H
O       0.3177   0.7998   0.8185     O
C        0.318    0.661   0.6831     C
H       0.3208   0.5091   0.1671     H
C        0.322   0.5159   0.0891     C
C        0.323    0.996   0.9785     C
C        0.324   0.1124   0.0306     C
C        0.325   0.5405   0.1449     C
C        0.328   0.2067   0.7453     C
C        0.329   0.2782   0.7403     C
C        0.329   0.4424   0.7708     C
C        0.331   0.5643   0.0567     C
C        0.331    0.878   0.9243     C
H       0.3314   0.6698   0.0588     H
H       0.3326   0.1434   0.0634     H
C        0.333   0.6375   0.0805     C
C        0.334   0.4721   0.9807     C
C        0.334   0.6113   0.1666     C
C        0.336   0.6588   0.1334     C
C        0.337   0.6599   0.8968     C
H       0.3378   0.6268   0.2033     H
C        0.339   0.3799   0.9036     C
C         0.34    0.043   0.0306     C
H         0.34   0.7057    0.148     H
C        0.341    0.545   0.0028     C
C        0.344   0.9275    0.977     C
H       0.3476   0.6164   0.6085     H
C        0.349   0.4475    0.925     C
H       0.3522   0.3656   0.8689     H
H       0.3525   0.3574   0.0944     H
H       0.3644   0.4796   0.9044     H
C        0.368   0.5969   0.9727     C
C        0.372   0.0177   0.0791     C
C        0.382   0.9032   0.0235     C
C        0.384   0.0691   0.1302     C
C        0.392   0.9493   0.0761     C
O       0.4021   0.1795   0.2194     O
H       0.4036   0.8594   0.9167     H
H       0.4055   0.3468   0.7034     H
H       0.4094   0.4334   0.7859     H
H       0.4098   0.8036     0.99     H
O       0.4114   0.5597   0.7773     O
C        0.412   0.8332   0.0229     C
C        0.413   0.3038    0.712     C
H        0.423   0.8248   0.3062     H
C        0.423   0.9198   0.1235     C
C        0.424   0.1697   0.7276     C
H        0.427   0.9477   0.1572     H
H       0.4271   0.1243   0.7318     H
O       0.4291   0.8603   0.7376     O
O       0.4294   0.6915   0.6991     O
H       0.4327   0.7121   0.3196     H
H       0.4423   0.6273   0.9869     H
C        0.443   0.8099   0.0696     C
C        0.446   0.8542   0.1205     C
O       0.4464   0.6944   0.9118     O
H       0.4523   0.9434   0.8338     H
H        0.463   0.7649   0.0682     H
H       0.4638   0.8372   0.1519     H
Ba     0.46433  0.70136  0.80747    Ba
Ba     0.46462  0.20723  0.34293    Ba
C        0.479   0.0812   0.1693     C
C        0.486   0.1349   0.2215     C
C        0.487   0.8001   0.2958     C
C        0.492   0.7324   0.3038     C
C        0.508   0.2676   0.6962     C
C        0.513   0.1999   0.7042     C
C        0.514   0.8651   0.7785     C
C        0.521   0.9188   0.8307     C
Ba     0.53538  0.79277  0.65707    Ba
Ba     0.53567  0.29864  0.19253    Ba
H       0.5362   0.1628   0.8481     H
H        0.537   0.2351   0.9318     H
H       0.5477   0.0566   0.1662     H
O       0.5536   0.3056   0.0882     O
C        0.554   0.1458   0.8795     C
C        0.557   0.1901   0.9304     C
H       0.5577   0.3727   0.0131     H
H       0.5673   0.2879   0.6804     H
O       0.5706   0.3085   0.3009     O
O       0.5709   0.1397   0.2624     O
H       0.5729   0.8757   0.2682     H
H        0.573   0.0523   0.8428     H
C        0.576   0.8303   0.2724     C
C        0.577   0.0802   0.8765     C
H        0.577   0.1752   0.6938     H
C        0.587   0.6962    0.288     C
C        0.588   0.1668   0.9771     C
O       0.5886   0.4403   0.2227     O
H       0.5902   0.1964     0.01     H
H       0.5906   0.5666   0.2141     H
H       0.5945   0.6532   0.2966     H
H       0.5964   0.1406   0.0833     H
O       0.5979   0.8205   0.7806     O
C        0.608   0.0507   0.9239     C
C        0.616   0.9309   0.8698     C
C        0.618   0.0968   0.9765     C
C        0.628   0.9823   0.9209     C
C        0.632   0.4031   0.0273     C
H       0.6356   0.5204   0.0956     H
H       0.6475   0.6426   0.9056     H
H       0.6478   0.6344   0.1311     H
C        0.651   0.5525    0.075     C
H       0.6524   0.3836   0.3915     H
C        0.656   0.0725    0.023     C
C        0.659    0.455   0.9972     C
H         0.66   0.2943    0.852     H
C         0.66    0.957   0.9694     C
C        0.661   0.6201   0.0964     C
H       0.6622   0.3732   0.7967     H
C        0.663   0.3401   0.1032     C
C        0.664   0.3412   0.8666     C
C        0.666   0.3887   0.8334     C
C        0.666   0.5279   0.0193     C
C        0.667   0.3625   0.9195     C
H       0.6674   0.8566   0.9366     H
H       0.6686   0.3302   0.9412     H
C        0.669    0.122   0.0757     C
C        0.669   0.4357   0.9433     C
C        0.671   0.5576   0.2292     C
C        0.671   0.7218   0.2597     C
C        0.672   0.7933   0.2547     C
C        0.675   0.4595   0.8551     C
C        0.676   0.8876   0.9694     C
C        0.677    0.004   0.0215     C
C        0.678   0.4841   0.9109     C
H       0.6792   0.4909   0.8329     H
C        0.682    0.339   0.3169     C
O       0.6823   0.2002   0.1815     O
H        0.684   0.9057   0.8662     H
C        0.688   0.5779   0.9884     C
C        0.691   0.6708   0.0665     C
C        0.693   0.4843   0.2347     C
C        0.694   0.5562   0.9338     C
H       0.7009   0.7177   0.0826     H
C        0.703   0.3944   0.0733     C
C        0.704   0.6101   0.9037     C
C        0.704   0.8644   0.0148     C
C        0.705   0.6509   0.0146     C
C        0.708   0.9769   0.0693     C
C        0.709   0.3879   0.3693     C
O        0.712   0.7108   0.8391     O
H       0.7144    0.818    0.013     H
H        0.715   0.6309   0.6057     H
O       0.7165   0.2252   0.3809     O
C        0.718   0.9086   0.0647     C
H       0.7215    0.006   0.1031     H
H       0.7254   0.6843   0.9958     H
H       0.7291   0.1874   0.4725     H
O       0.7308   0.7198   0.6912     O
H       0.7339   0.8908   0.0957     H
O       0.7388   0.3383   0.1462     O
H       0.7454   0.9097   0.1948     H
H       0.7501    0.977   0.6486     H
O       0.7516   0.8805   0.6985     O
C        0.763    0.682   0.2405     C
C        0.765   0.6083   0.2456     C
C        0.765   0.8235   0.2316     C
H       0.7668    0.832   0.4478     H
C        0.767   0.8985   0.2284     C
O       0.7713   0.3292   0.2905     O
C        0.777    0.141   0.1125     C
H       0.7792   0.4227   0.0878     H
H       0.7844    0.879   0.5378     H
C        0.785   0.1891   0.1663     C
C        0.787   0.8795   0.4605     C
O       0.7915   0.0626   0.3174     O
C        0.792   0.6168   0.8725     C
C        0.796   0.9078   0.5143     C
C        0.798   0.0251   0.2726     C
C        0.798   0.1779   0.4568     C
C        0.799   0.6477   0.6219     C
C        0.799   0.9496   0.2726     C
O       0.8009   0.4727   0.2488     O
C        0.802   0.6734   0.8439     C
H       0.8035   0.9019    0.389     H
C        0.807   0.4378   0.3887     C
C        0.807   0.9221   0.4249     C
H       0.8072   0.3188    0.533     H
O       0.8082   0.0455   0.2299     O
H       0.8127   0.3577   0.4566     H
C        0.816   0.9683   0.6311     C
C        0.817   0.2086   0.4088     C
C        0.819   0.3895   0.4888     C
C         0.82   0.3661   0.5344     C
H       0.8209   0.5542    0.362     H
H       0.8229   0.9373   0.3057     H
C        0.824   0.9807   0.5345     C
C        0.825   0.4873   0.4411     C
Ba     0.82653  0.18894  0.28947    Ba
C        0.827   0.6934   0.6769     C
C        0.829   0.4614   0.4883     C
C        0.832   0.9906   0.4408     C
C        0.834   0.0098   0.5899     C
C        0.835   0.5843   0.3955     C
H       0.8376   0.0914   0.6878     H
C         0.84   0.4141   0.5846     C
C        0.841   0.5574   0.4432     C
H       0.8416   0.0176   0.4158     H
H       0.8426   0.5971   0.2624     H
H       0.8434   0.3974    0.616     H
C        0.844   0.0237   0.4974     C
H       0.8464   0.6713   0.3678     H
H       0.8478   0.5838   0.8693     H
C        0.849   0.5078   0.5404     C
H       0.8499   0.1239   0.1047     H
C         0.85   0.7111   0.2146     C
C        0.851   0.7829   0.2109     C
Ba     0.85159  0.80718  0.78944    Ba
C        0.852   0.6544   0.3992     C
C        0.853   0.0836   0.6088     C
C        0.853   0.4829   0.5881     C
C        0.856   0.1163   0.6628     C
C        0.856    0.882   0.6867     C
C        0.863    0.095   0.5149     C
C        0.864   0.1256   0.5683     C
C        0.865   0.5814   0.5428     C
C        0.865   0.6058   0.4954     C
H       0.8655   0.5134   0.6213     H
H       0.8676   0.4418    0.368     H
C        0.877   0.7021   0.4498     C
C         0.88   0.1376   0.4767     C
C        0.881   0.6788   0.4961     C
C        0.883   0.9225   0.6446     C
C        0.889   0.1889   0.6767     C
C         0.89   0.2004   0.5903     C
C         0.89   0.6295   0.5944     C
H       0.8905   0.7494   0.4512     H
O       0.8936   0.2153   0.1937     O
H       0.8944   0.7105   0.5288     H
C        0.896   0.2268   0.6438     C
O       0.8981    0.683   0.8248     O
H       0.9017   0.2302   0.5676     H
H       0.9059   0.2746    0.656     H
H       0.9077     0.21   0.7132     H
H       0.9155   0.2076   0.8504     H
O       0.9233   0.2158   0.3974     O
H       0.9261   0.3277   0.8485     H
Ba     0.93015  0.36399  0.22817    Ba
O        0.936   0.7059   0.7058     O
C        0.941   0.6737    0.195     C
C        0.943   0.8092   0.1849     C
H       0.9446   0.8551   0.1816     H
H       0.9461   0.6291   0.2007     H
O       0.9508   0.8541   0.7088     O
H       0.9508   0.9131   0.6283     H
H       0.9552   0.1368   0.4647     H
H       0.9738   0.6491   0.6097     H
C        0.975   0.2278   0.8348     C
C        0.979      0.3    0.832     C
