data_I
_chemical_name_common  '/home/zhangsd/repos/MofS-CGCNN/ML/data/TSD/clean_cifs/LARXUA_clean'
_cell_length_a 33.32610
_cell_length_b 33.32610
_cell_length_c 33.32610
_cell_angle_alpha 90.00000
_cell_angle_beta  90.00000
_cell_angle_gamma 90.00000
_space_group_name_H-M_alt      'P 1'


loop_
_space_group_symop_operation_xyz
  'x, y, z' 

loop_
_atom_site_label
_atom_site_fract_x
_atom_site_fract_y
_atom_site_fract_z
_atom_site_type_symbol
C      0.00188   0.0351  0.43861     C
C      0.00188  0.06139   0.0351     C
C      0.00188  0.43861   0.4649     C
C      0.00188   0.4649  0.06139     C
C       0.0039   0.1901    0.709     C
C       0.0039   0.3099    0.791     C
C       0.0039    0.709   0.3099     C
C       0.0039    0.791   0.1901     C
C       0.0043     0.03  0.06264     C
C       0.0043  0.06264     0.47     C
C       0.0043  0.43736     0.03     C
C       0.0043     0.47  0.43736     C
C       0.0066  0.15134   0.6822     C
C       0.0066  0.34866   0.8178     C
C       0.0066   0.6822  0.34866     C
C       0.0066   0.8178  0.15134     C
C      0.00921  0.04363  0.60423     C
C      0.00921  0.45637  0.89577     C
C      0.00921  0.60423  0.45637     C
C      0.00921  0.89577  0.04363     C
C      0.01225   0.0767  0.62943     C
C      0.01225   0.4233  0.87057     C
C      0.01225  0.62943   0.4233     C
C      0.01225  0.87057   0.0767     C
H       0.0179   0.5372   0.9191     H
H       0.0179   0.5809   0.5372     H
H       0.0179   0.9191   0.9628     H
H       0.0179   0.9628   0.5809     H
C       0.0222  0.14298  0.90415     C
C       0.0222   0.1687   0.8673     C
C       0.0222   0.3313   0.6327     C
C       0.0222  0.35702  0.59585     C
C       0.0222  0.59585  0.14298     C
C       0.0222   0.6327   0.1687     C
C       0.0222   0.8673   0.3313     C
C       0.0222  0.90415  0.35702     C
C       0.0283  0.09258  0.97034     C
C       0.0283  0.40742  0.52966     C
C       0.0283  0.52966  0.09258     C
C       0.0283  0.97034  0.40742     C
C      0.02966   0.5283  0.59258     C
C      0.02966  0.59258   0.9717     C
C      0.02966  0.90742   0.5283     C
C      0.02966   0.9717  0.90742     C
C         0.03   0.0043  0.43736     C
C         0.03  0.06264   0.0043     C
C         0.03  0.43736   0.4957     C
C         0.03   0.4957  0.06264     C
H       0.0308   0.0323   0.9048     H
H       0.0308   0.4677   0.5952     H
H       0.0308   0.5952   0.0323     H
H       0.0308   0.9048   0.4677     H
O      0.03112  0.21646  0.80001     O
O      0.03112  0.28354  0.69999     O
O      0.03112  0.69999  0.21646     O
O      0.03112  0.80001  0.28354     O
H       0.0321   0.1417   0.6761     H
H       0.0321   0.3583   0.8239     H
H       0.0321   0.6761   0.3583     H
H       0.0321   0.8239   0.1417     H
H       0.0323   0.0308   0.5952     H
H       0.0323   0.4692   0.9048     H
H       0.0323   0.5952   0.4692     H
H       0.0323   0.9048   0.0308     H
C       0.0351  0.00188  0.06139     C
C       0.0351  0.06139  0.49812     C
C       0.0351  0.43861  0.00188     C
C       0.0351  0.49812  0.43861     C
H       0.0372   0.0809   0.5179     H
H       0.0372   0.4191   0.9821     H
H       0.0372   0.5179   0.4191     H
H       0.0372   0.9821   0.0809     H
H       0.0374   0.0861   0.6372     H
H       0.0374   0.4139   0.8628     H
H       0.0374   0.6372   0.4139     H
H       0.0374   0.8628   0.0861     H
O       0.0386   0.2021  0.71773     O
O       0.0386   0.2979  0.78227     O
O       0.0386  0.71773   0.2979     O
O       0.0386  0.78227   0.2021     O
H       0.0395   0.5879   0.5983     H
H       0.0395   0.5983   0.9121     H
H       0.0395   0.9017   0.5879     H
H       0.0395   0.9121   0.9017     H
Cu     0.04002     0.25     0.75    Cu
Cu     0.04002     0.75     0.25    Cu
C      0.04363  0.00921  0.89577     C
C      0.04363  0.49079  0.60423     C
C      0.04363  0.60423  0.00921     C
C      0.04363  0.89577  0.49079     C
H       0.0474   0.1753   0.8572     H
H       0.0474   0.3247   0.6428     H
H       0.0474   0.6428   0.1753     H
H       0.0474   0.8572   0.3247     H
C       0.0488  0.56282  0.60613     C
C       0.0488  0.60613  0.93718     C
C       0.0488  0.89387  0.56282     C
C       0.0488  0.93718  0.89387     C
C      0.05978  0.13133  0.91811     C
C      0.05978  0.36867  0.58189     C
C      0.05978  0.58189  0.13133     C
C      0.05978  0.91811  0.36867     C
C      0.06139  0.00188   0.4649     C
C      0.06139   0.0351  0.00188     C
C      0.06139   0.4649  0.49812     C
C      0.06139  0.49812   0.0351     C
C      0.06264   0.0043     0.03     C
C      0.06264     0.03   0.4957     C
C      0.06264     0.47   0.0043     C
C      0.06264   0.4957     0.47     C
C      0.06282  0.10613   0.9512     C
C      0.06282  0.39387   0.5488     C
C      0.06282   0.5488  0.10613     C
C      0.06282   0.9512  0.39387     C
C       0.0767  0.01225  0.87057     C
C       0.0767  0.48775  0.62943     C
C       0.0767  0.62943  0.01225     C
C       0.0767  0.87057  0.48775     C
H       0.0809   0.0372   0.9821     H
H       0.0809   0.4628   0.5179     H
H       0.0809   0.5179   0.0372     H
H       0.0809   0.9821   0.4628     H
C      0.08189  0.55978  0.63133     C
C      0.08189  0.63133  0.94022     C
C      0.08189  0.86867  0.55978     C
C      0.08189  0.94022  0.86867     C
H       0.0829   0.1404   0.9053     H
H       0.0829   0.3596   0.5947     H
H       0.0829   0.5947   0.1404     H
H       0.0829   0.9053   0.3596     H
H       0.0861   0.0374   0.8628     H
H       0.0861   0.4626   0.6372     H
H       0.0861   0.6372   0.0374     H
H       0.0861   0.8628   0.4626     H
H       0.0879   0.0983   0.9605     H
H       0.0879   0.4017   0.5395     H
H       0.0879   0.5395   0.0983     H
H       0.0879   0.9605   0.4017     H
C      0.09258   0.0283  0.52966     C
C      0.09258   0.4717  0.97034     C
C      0.09258  0.52966   0.4717     C
C      0.09258  0.97034   0.0283     C
H       0.0947   0.5829   0.6404     H
H       0.0947   0.6404   0.9171     H
H       0.0947   0.8596   0.5829     H
H       0.0947   0.9171   0.8596     H
H       0.0952   0.5308   0.5323     H
H       0.0952   0.5323   0.9692     H
H       0.0952   0.9677   0.5308     H
H       0.0952   0.9692   0.9677     H
C      0.09585   0.5222  0.64298     C
C      0.09585  0.64298   0.9778     C
C      0.09585  0.85702   0.5222     C
C      0.09585   0.9778  0.85702     C
H       0.0983   0.0879   0.5395     H
H       0.0983   0.4121   0.9605     H
H       0.0983   0.5395   0.4121     H
H       0.0983   0.9605   0.0879     H
C      0.10423  0.50921  0.95637     C
C      0.10423  0.54363  0.50921     C
C      0.10423  0.95637  0.99079     C
C      0.10423  0.99079  0.54363     C
C      0.10613  0.06282   0.5488     C
C      0.10613  0.43718   0.9512     C
C      0.10613   0.5488  0.43718     C
C      0.10613   0.9512  0.06282     C
C      0.12943  0.51225   0.9233     C
C      0.12943   0.5767  0.51225     C
C      0.12943   0.9233  0.98775     C
C      0.12943  0.98775   0.5767     C
C      0.13133  0.05978  0.58189     C
C      0.13133  0.44022  0.91811     C
C      0.13133  0.58189  0.44022     C
C      0.13133  0.91811  0.05978     C
C       0.1327   0.5222   0.6687     C
C       0.1327   0.6687   0.9778     C
C       0.1327   0.8313   0.5222     C
C       0.1327   0.9778   0.8313     C
H       0.1372   0.5374   0.9139     H
H       0.1372   0.5861   0.5374     H
H       0.1372   0.9139   0.9626     H
H       0.1372   0.9626   0.5861     H
H       0.1404   0.0829   0.5947     H
H       0.1404   0.4171   0.9053     H
H       0.1404   0.5947   0.4171     H
H       0.1404   0.9053   0.0829     H
H       0.1417   0.0321   0.8239     H
H       0.1417   0.4679   0.6761     H
H       0.1417   0.6761   0.0321     H
H       0.1417   0.8239   0.4679     H
H       0.1428   0.5474   0.6753     H
H       0.1428   0.6753   0.9526     H
H       0.1428   0.8247   0.5474     H
H       0.1428   0.9526   0.8247     H
C      0.14298   0.0222  0.59585     C
C      0.14298   0.4778  0.90415     C
C      0.14298  0.59585   0.4778     C
C      0.14298  0.90415   0.0222     C
C      0.15134   0.0066   0.8178     C
C      0.15134   0.4934   0.6822     C
C      0.15134   0.6822   0.0066     C
C      0.15134   0.8178   0.4934     C
C       0.1687   0.0222   0.6327     C
C       0.1687   0.4778   0.8673     C
C       0.1687   0.6327   0.4778     C
C       0.1687   0.8673   0.0222     C
H       0.1753   0.0474   0.6428     H
H       0.1753   0.4526   0.8572     H
H       0.1753   0.6428   0.4526     H
H       0.1753   0.8572   0.0474     H
H       0.1761   0.5321   0.8583     H
H       0.1761   0.6417   0.5321     H
H       0.1761   0.8583   0.9679     H
H       0.1761   0.9679   0.6417     H
C       0.1822   0.5066  0.84866     C
C       0.1822  0.65134   0.5066     C
C       0.1822  0.84866   0.9934     C
C       0.1822   0.9934  0.65134     C
C       0.1901   0.0039    0.791     C
C       0.1901   0.4961    0.709     C
C       0.1901    0.709   0.0039     C
C       0.1901    0.791   0.4961     C
O      0.19999  0.53112  0.71646     O
O      0.19999  0.71646  0.96888     O
O      0.19999  0.78354  0.53112     O
O      0.19999  0.96888  0.78354     O
O       0.2021   0.0386  0.78227     O
O       0.2021   0.4614  0.71773     O
O       0.2021  0.71773   0.0386     O
O       0.2021  0.78227   0.4614     O
C        0.209   0.5039   0.8099     C
C        0.209   0.6901   0.5039     C
C        0.209   0.8099   0.9961     C
C        0.209   0.9961   0.6901     C
O      0.21646  0.03112  0.69999     O
O      0.21646  0.46888  0.80001     O
O      0.21646  0.69999  0.46888     O
O      0.21646  0.80001  0.03112     O
O      0.21773   0.5386   0.7979     O
O      0.21773   0.7021   0.5386     O
O      0.21773   0.7979   0.9614     O
O      0.21773   0.9614   0.7021     O
Cu        0.25  0.04002     0.75    Cu
Cu        0.25  0.45998     0.75    Cu
Cu        0.25  0.54002     0.75    Cu
Cu        0.25     0.75  0.04002    Cu
Cu        0.25     0.75  0.45998    Cu
Cu        0.25     0.75  0.54002    Cu
Cu        0.25     0.75  0.95998    Cu
Cu        0.25  0.95998     0.75    Cu
O      0.28227   0.5386   0.7021     O
O      0.28227   0.7021   0.9614     O
O      0.28227   0.7979   0.5386     O
O      0.28227   0.9614   0.7979     O
O      0.28354  0.03112  0.80001     O
O      0.28354  0.46888  0.69999     O
O      0.28354  0.69999  0.03112     O
O      0.28354  0.80001  0.46888     O
C        0.291   0.5039   0.6901     C
C        0.291   0.6901   0.9961     C
C        0.291   0.8099   0.5039     C
C        0.291   0.9961   0.8099     C
O       0.2979   0.0386  0.71773     O
O       0.2979   0.4614  0.78227     O
O       0.2979  0.71773   0.4614     O
O       0.2979  0.78227   0.0386     O
O      0.30001  0.53112  0.78354     O
O      0.30001  0.71646  0.53112     O
O      0.30001  0.78354  0.96888     O
O      0.30001  0.96888  0.71646     O
C       0.3099   0.0039    0.709     C
C       0.3099   0.4961    0.791     C
C       0.3099    0.709   0.4961     C
C       0.3099    0.791   0.0039     C
C       0.3178   0.5066  0.65134     C
C       0.3178  0.65134   0.9934     C
C       0.3178  0.84866   0.5066     C
C       0.3178   0.9934  0.84866     C
H       0.3239   0.5321   0.6417     H
H       0.3239   0.6417   0.9679     H
H       0.3239   0.8583   0.5321     H
H       0.3239   0.9679   0.8583     H
H       0.3247   0.0474   0.8572     H
H       0.3247   0.4526   0.6428     H
H       0.3247   0.6428   0.0474     H
H       0.3247   0.8572   0.4526     H
C       0.3313   0.0222   0.8673     C
C       0.3313   0.4778   0.6327     C
C       0.3313   0.6327   0.0222     C
C       0.3313   0.8673   0.4778     C
C      0.34866   0.0066   0.6822     C
C      0.34866   0.4934   0.8178     C
C      0.34866   0.6822   0.4934     C
C      0.34866   0.8178   0.0066     C
C      0.35702   0.0222  0.90415     C
C      0.35702   0.4778  0.59585     C
C      0.35702  0.59585   0.0222     C
C      0.35702  0.90415   0.4778     C
H       0.3572   0.5474   0.8247     H
H       0.3572   0.6753   0.5474     H
H       0.3572   0.8247   0.9526     H
H       0.3572   0.9526   0.6753     H
H       0.3583   0.0321   0.6761     H
H       0.3583   0.4679   0.8239     H
H       0.3583   0.6761   0.4679     H
H       0.3583   0.8239   0.0321     H
H       0.3596   0.0829   0.9053     H
H       0.3596   0.4171   0.5947     H
H       0.3596   0.5947   0.0829     H
H       0.3596   0.9053   0.4171     H
H       0.3628   0.5374   0.5861     H
H       0.3628   0.5861   0.9626     H
H       0.3628   0.9139   0.5374     H
H       0.3628   0.9626   0.9139     H
C       0.3673   0.5222   0.8313     C
C       0.3673   0.6687   0.5222     C
C       0.3673   0.8313   0.9778     C
C       0.3673   0.9778   0.6687     C
C      0.36867  0.05978  0.91811     C
C      0.36867  0.44022  0.58189     C
C      0.36867  0.58189  0.05978     C
C      0.36867  0.91811  0.44022     C
C      0.37057  0.51225   0.5767     C
C      0.37057   0.5767  0.98775     C
C      0.37057   0.9233  0.51225     C
C      0.37057  0.98775   0.9233     C
C      0.39387  0.06282   0.9512     C
C      0.39387  0.43718   0.5488     C
C      0.39387   0.5488  0.06282     C
C      0.39387   0.9512  0.43718     C
C      0.39577  0.50921  0.54363     C
C      0.39577  0.54363  0.99079     C
C      0.39577  0.95637  0.50921     C
C      0.39577  0.99079  0.95637     C
H       0.4017   0.0879   0.9605     H
H       0.4017   0.4121   0.5395     H
H       0.4017   0.5395   0.0879     H
H       0.4017   0.9605   0.4121     H
C      0.40415   0.5222  0.85702     C
C      0.40415  0.64298   0.5222     C
C      0.40415  0.85702   0.9778     C
C      0.40415   0.9778  0.64298     C
H       0.4048   0.5308   0.9677     H
H       0.4048   0.5323   0.5308     H
H       0.4048   0.9677   0.9692     H
H       0.4048   0.9692   0.5323     H
H       0.4053   0.5829   0.8596     H
H       0.4053   0.6404   0.5829     H
H       0.4053   0.8596   0.9171     H
H       0.4053   0.9171   0.6404     H
C      0.40742   0.0283  0.97034     C
C      0.40742   0.4717  0.52966     C
C      0.40742  0.52966   0.0283     C
C      0.40742  0.97034   0.4717     C
H       0.4121   0.0983   0.5395     H
H       0.4121   0.4017   0.9605     H
H       0.4121   0.5395   0.4017     H
H       0.4121   0.9605   0.0983     H
H       0.4139   0.0374   0.6372     H
H       0.4139   0.4626   0.8628     H
H       0.4139   0.6372   0.4626     H
H       0.4139   0.8628   0.0374     H
H       0.4171   0.1404   0.5947     H
H       0.4171   0.3596   0.9053     H
H       0.4171   0.5947   0.3596     H
H       0.4171   0.9053   0.1404     H
C      0.41811  0.55978  0.86867     C
C      0.41811  0.63133  0.55978     C
C      0.41811  0.86867  0.94022     C
C      0.41811  0.94022  0.63133     C
H       0.4191   0.0372   0.5179     H
H       0.4191   0.4628   0.9821     H
H       0.4191   0.5179   0.4628     H
H       0.4191   0.9821   0.0372     H
C       0.4233  0.01225  0.62943     C
C       0.4233  0.48775  0.87057     C
C       0.4233  0.62943  0.48775     C
C       0.4233  0.87057  0.01225     C
C      0.43718  0.10613   0.5488     C
C      0.43718  0.39387   0.9512     C
C      0.43718   0.5488  0.39387     C
C      0.43718   0.9512  0.10613     C
C      0.43736   0.0043     0.47     C
C      0.43736     0.03   0.0043     C
C      0.43736     0.47   0.4957     C
C      0.43736   0.4957     0.03     C
C      0.43861  0.00188   0.0351     C
C      0.43861   0.0351  0.49812     C
C      0.43861   0.4649  0.00188     C
C      0.43861  0.49812   0.4649     C
C      0.44022  0.13133  0.58189     C
C      0.44022  0.36867  0.91811     C
C      0.44022  0.58189  0.36867     C
C      0.44022  0.91811  0.13133     C
C       0.4512  0.56282  0.89387     C
C       0.4512  0.60613  0.56282     C
C       0.4512  0.89387  0.93718     C
C       0.4512  0.93718  0.60613     C
H       0.4526   0.1753   0.6428     H
H       0.4526   0.3247   0.8572     H
H       0.4526   0.6428   0.3247     H
H       0.4526   0.8572   0.1753     H
C      0.45637  0.00921  0.60423     C
C      0.45637  0.49079  0.89577     C
C      0.45637  0.60423  0.49079     C
C      0.45637  0.89577  0.00921     C
Cu     0.45998     0.25     0.75    Cu
Cu     0.45998     0.75     0.25    Cu
H       0.4605   0.5879   0.9017     H
H       0.4605   0.5983   0.5879     H
H       0.4605   0.9017   0.9121     H
H       0.4605   0.9121   0.5983     H
O       0.4614   0.2021  0.78227     O
O       0.4614   0.2979  0.71773     O
O       0.4614  0.71773   0.2021     O
O       0.4614  0.78227   0.2979     O
H       0.4626   0.0861   0.8628     H
H       0.4626   0.4139   0.6372     H
H       0.4626   0.6372   0.0861     H
H       0.4626   0.8628   0.4139     H
H       0.4628   0.0809   0.9821     H
H       0.4628   0.4191   0.5179     H
H       0.4628   0.5179   0.0809     H
H       0.4628   0.9821   0.4191     H
C       0.4649  0.00188  0.43861     C
C       0.4649  0.06139  0.00188     C
C       0.4649  0.43861  0.49812     C
C       0.4649  0.49812  0.06139     C
H       0.4677   0.0308   0.9048     H
H       0.4677   0.4692   0.5952     H
H       0.4677   0.5952   0.0308     H
H       0.4677   0.9048   0.4692     H
H       0.4679   0.1417   0.8239     H
H       0.4679   0.3583   0.6761     H
H       0.4679   0.6761   0.1417     H
H       0.4679   0.8239   0.3583     H
O      0.46888  0.21646  0.69999     O
O      0.46888  0.28354  0.80001     O
O      0.46888  0.69999  0.28354     O
O      0.46888  0.80001  0.21646     O
H       0.4692   0.0323   0.5952     H
H       0.4692   0.4677   0.9048     H
H       0.4692   0.5952   0.4677     H
H       0.4692   0.9048   0.0323     H
C         0.47   0.0043  0.06264     C
C         0.47  0.06264   0.4957     C
C         0.47  0.43736   0.0043     C
C         0.47   0.4957  0.43736     C
C      0.47034   0.5283  0.90742     C
C      0.47034  0.59258   0.5283     C
C      0.47034  0.90742   0.9717     C
C      0.47034   0.9717  0.59258     C
C       0.4717  0.09258  0.52966     C
C       0.4717  0.40742  0.97034     C
C       0.4717  0.52966  0.40742     C
C       0.4717  0.97034  0.09258     C
C       0.4778  0.14298  0.59585     C
C       0.4778   0.1687   0.6327     C
C       0.4778   0.3313   0.8673     C
C       0.4778  0.35702  0.90415     C
C       0.4778  0.59585  0.35702     C
C       0.4778   0.6327   0.3313     C
C       0.4778   0.8673   0.1687     C
C       0.4778  0.90415  0.14298     C
H       0.4821   0.5372   0.5809     H
H       0.4821   0.5809   0.9628     H
H       0.4821   0.9191   0.5372     H
H       0.4821   0.9628   0.9191     H
C      0.48775   0.0767  0.87057     C
C      0.48775   0.4233  0.62943     C
C      0.48775  0.62943   0.0767     C
C      0.48775  0.87057   0.4233     C
C      0.49079  0.04363  0.89577     C
C      0.49079  0.45637  0.60423     C
C      0.49079  0.60423  0.04363     C
C      0.49079  0.89577  0.45637     C
C       0.4934  0.15134   0.8178     C
C       0.4934  0.34866   0.6822     C
C       0.4934   0.6822  0.15134     C
C       0.4934   0.8178  0.34866     C
C       0.4957     0.03  0.43736     C
C       0.4957  0.06264     0.03     C
C       0.4957  0.43736     0.47     C
C       0.4957     0.47  0.06264     C
C       0.4961   0.1901    0.791     C
C       0.4961   0.3099    0.709     C
C       0.4961    0.709   0.1901     C
C       0.4961    0.791   0.3099     C
C      0.49812   0.0351  0.06139     C
C      0.49812  0.06139   0.4649     C
C      0.49812  0.43861   0.0351     C
C      0.49812   0.4649  0.43861     C
C      0.50188   0.5351  0.56139     C
C      0.50188  0.56139   0.9649     C
C      0.50188  0.93861   0.5351     C
C      0.50188   0.9649  0.93861     C
C       0.5039    0.209   0.6901     C
C       0.5039    0.291   0.8099     C
C       0.5039   0.6901    0.291     C
C       0.5039   0.8099    0.209     C
C       0.5043     0.53  0.93736     C
C       0.5043  0.56264     0.53     C
C       0.5043  0.93736     0.97     C
C       0.5043     0.97  0.56264     C
C       0.5066   0.1822  0.65134     C
C       0.5066   0.3178  0.84866     C
C       0.5066  0.65134   0.3178     C
C       0.5066  0.84866   0.1822     C
C      0.50921  0.10423  0.54363     C
C      0.50921  0.39577  0.95637     C
C      0.50921  0.54363  0.39577     C
C      0.50921  0.95637  0.10423     C
C      0.51225  0.12943   0.5767     C
C      0.51225  0.37057   0.9233     C
C      0.51225   0.5767  0.37057     C
C      0.51225   0.9233  0.12943     C
H       0.5179   0.0372   0.0809     H
H       0.5179   0.0809   0.4628     H
H       0.5179   0.4191   0.0372     H
H       0.5179   0.4628   0.4191     H
C       0.5222  0.09585  0.85702     C
C       0.5222   0.1327   0.8313     C
C       0.5222   0.3673   0.6687     C
C       0.5222  0.40415  0.64298     C
C       0.5222  0.64298  0.09585     C
C       0.5222   0.6687   0.1327     C
C       0.5222   0.8313   0.3673     C
C       0.5222  0.85702  0.40415     C
C       0.5283  0.02966  0.90742     C
C       0.5283  0.47034  0.59258     C
C       0.5283  0.59258  0.02966     C
C       0.5283  0.90742  0.47034     C
C      0.52966   0.0283  0.40742     C
C      0.52966  0.09258   0.0283     C
C      0.52966  0.40742   0.4717     C
C      0.52966   0.4717  0.09258     C
C         0.53   0.5043  0.56264     C
C         0.53  0.56264   0.9957     C
C         0.53  0.93736   0.5043     C
C         0.53   0.9957  0.93736     C
H       0.5308   0.0952   0.9677     H
H       0.5308   0.4048   0.5323     H
H       0.5308   0.5323   0.0952     H
H       0.5308   0.9677   0.4048     H
O      0.53112  0.19999  0.78354     O
O      0.53112  0.30001  0.71646     O
O      0.53112  0.71646  0.19999     O
O      0.53112  0.78354  0.30001     O
H       0.5321   0.1761   0.6417     H
H       0.5321   0.3239   0.8583     H
H       0.5321   0.6417   0.3239     H
H       0.5321   0.8583   0.1761     H
H       0.5323   0.0952   0.5308     H
H       0.5323   0.4048   0.9692     H
H       0.5323   0.5308   0.4048     H
H       0.5323   0.9692   0.0952     H
C       0.5351  0.50188  0.93861     C
C       0.5351  0.56139  0.50188     C
C       0.5351  0.93861  0.99812     C
C       0.5351  0.99812  0.56139     C
H       0.5372   0.0179   0.5809     H
H       0.5372   0.4821   0.9191     H
H       0.5372   0.5809   0.4821     H
H       0.5372   0.9191   0.0179     H
H       0.5374   0.1372   0.5861     H
H       0.5374   0.3628   0.9139     H
H       0.5374   0.5861   0.3628     H
H       0.5374   0.9139   0.1372     H
O       0.5386  0.21773   0.7021     O
O       0.5386  0.28227   0.7979     O
O       0.5386   0.7021  0.28227     O
O       0.5386   0.7979  0.21773     O
H       0.5395   0.0879   0.4017     H
H       0.5395   0.0983   0.0879     H
H       0.5395   0.4017   0.4121     H
H       0.5395   0.4121   0.0983     H
Cu     0.54002     0.25     0.75    Cu
Cu     0.54002     0.75     0.25    Cu
C      0.54363  0.10423  0.99079     C
C      0.54363  0.39577  0.50921     C
C      0.54363  0.50921  0.10423     C
C      0.54363  0.99079  0.39577     C
H       0.5474   0.1428   0.8247     H
H       0.5474   0.3572   0.6753     H
H       0.5474   0.6753   0.1428     H
H       0.5474   0.8247   0.3572     H
C       0.5488  0.06282  0.39387     C
C       0.5488  0.10613  0.06282     C
C       0.5488  0.39387  0.43718     C
C       0.5488  0.43718  0.10613     C
C      0.55978  0.08189  0.86867     C
C      0.55978  0.41811  0.63133     C
C      0.55978  0.63133  0.08189     C
C      0.55978  0.86867  0.41811     C
C      0.56139  0.50188   0.5351     C
C      0.56139   0.5351  0.99812     C
C      0.56139   0.9649  0.50188     C
C      0.56139  0.99812   0.9649     C
C      0.56264   0.5043     0.97     C
C      0.56264     0.53   0.5043     C
C      0.56264     0.97   0.9957     C
C      0.56264   0.9957     0.53     C
C      0.56282   0.0488  0.89387     C
C      0.56282   0.4512  0.60613     C
C      0.56282  0.60613   0.0488     C
C      0.56282  0.89387   0.4512     C
C       0.5767  0.12943  0.98775     C
C       0.5767  0.37057  0.51225     C
C       0.5767  0.51225  0.12943     C
C       0.5767  0.98775  0.37057     C
H       0.5809   0.0179   0.9628     H
H       0.5809   0.4821   0.5372     H
H       0.5809   0.5372   0.0179     H
H       0.5809   0.9628   0.4821     H
C      0.58189  0.05978  0.36867     C
C      0.58189  0.13133  0.05978     C
C      0.58189  0.36867  0.44022     C
C      0.58189  0.44022  0.13133     C
H       0.5829   0.0947   0.8596     H
H       0.5829   0.4053   0.6404     H
H       0.5829   0.6404   0.0947     H
H       0.5829   0.8596   0.4053     H
H       0.5861   0.1372   0.9626     H
H       0.5861   0.3628   0.5374     H
H       0.5861   0.5374   0.1372     H
H       0.5861   0.9626   0.3628     H
H       0.5879   0.0395   0.9017     H
H       0.5879   0.4605   0.5983     H
H       0.5879   0.5983   0.0395     H
H       0.5879   0.9017   0.4605     H
C      0.59258  0.02966   0.5283     C
C      0.59258  0.47034   0.9717     C
C      0.59258   0.5283  0.47034     C
C      0.59258   0.9717  0.02966     C
H       0.5947   0.0829   0.3596     H
H       0.5947   0.1404   0.0829     H
H       0.5947   0.3596   0.4171     H
H       0.5947   0.4171   0.1404     H
H       0.5952   0.0308   0.4677     H
H       0.5952   0.0323   0.0308     H
H       0.5952   0.4677   0.4692     H
H       0.5952   0.4692   0.0323     H
C      0.59585   0.0222  0.35702     C
C      0.59585  0.14298   0.0222     C
C      0.59585  0.35702   0.4778     C
C      0.59585   0.4778  0.14298     C
H       0.5983   0.0395   0.5879     H
H       0.5983   0.4605   0.9121     H
H       0.5983   0.5879   0.4605     H
H       0.5983   0.9121   0.0395     H
C      0.60423  0.00921  0.04363     C
C      0.60423  0.04363  0.49079     C
C      0.60423  0.45637  0.00921     C
C      0.60423  0.49079  0.45637     C
C      0.60613   0.0488  0.56282     C
C      0.60613   0.4512  0.93718     C
C      0.60613  0.56282   0.4512     C
C      0.60613  0.93718   0.0488     C
C      0.62943  0.01225   0.0767     C
C      0.62943   0.0767  0.48775     C
C      0.62943   0.4233  0.01225     C
C      0.62943  0.48775   0.4233     C
C      0.63133  0.08189  0.55978     C
C      0.63133  0.41811  0.94022     C
C      0.63133  0.55978  0.41811     C
C      0.63133  0.94022  0.08189     C
C       0.6327   0.0222   0.3313     C
C       0.6327   0.1687   0.0222     C
C       0.6327   0.3313   0.4778     C
C       0.6327   0.4778   0.1687     C
H       0.6372   0.0374   0.0861     H
H       0.6372   0.0861   0.4626     H
H       0.6372   0.4139   0.0374     H
H       0.6372   0.4626   0.4139     H
H       0.6404   0.0947   0.5829     H
H       0.6404   0.4053   0.9171     H
H       0.6404   0.5829   0.4053     H
H       0.6404   0.9171   0.0947     H
H       0.6417   0.1761   0.9679     H
H       0.6417   0.3239   0.5321     H
H       0.6417   0.5321   0.1761     H
H       0.6417   0.9679   0.3239     H
H       0.6428   0.0474   0.3247     H
H       0.6428   0.1753   0.0474     H
H       0.6428   0.3247   0.4526     H
H       0.6428   0.4526   0.1753     H
C      0.64298  0.09585   0.5222     C
C      0.64298  0.40415   0.9778     C
C      0.64298   0.5222  0.40415     C
C      0.64298   0.9778  0.09585     C
C      0.65134   0.1822   0.9934     C
C      0.65134   0.3178   0.5066     C
C      0.65134   0.5066   0.1822     C
C      0.65134   0.9934   0.3178     C
C       0.6687   0.1327   0.5222     C
C       0.6687   0.3673   0.9778     C
C       0.6687   0.5222   0.3673     C
C       0.6687   0.9778   0.1327     C
H       0.6753   0.1428   0.5474     H
H       0.6753   0.3572   0.9526     H
H       0.6753   0.5474   0.3572     H
H       0.6753   0.9526   0.1428     H
H       0.6761   0.0321   0.1417     H
H       0.6761   0.1417   0.4679     H
H       0.6761   0.3583   0.0321     H
H       0.6761   0.4679   0.3583     H
C       0.6822   0.0066  0.15134     C
C       0.6822  0.15134   0.4934     C
C       0.6822  0.34866   0.0066     C
C       0.6822   0.4934  0.34866     C
C       0.6901    0.209   0.9961     C
C       0.6901    0.291   0.5039     C
C       0.6901   0.5039    0.209     C
C       0.6901   0.9961    0.291     C
O      0.69999  0.03112  0.28354     O
O      0.69999  0.21646  0.03112     O
O      0.69999  0.28354  0.46888     O
O      0.69999  0.46888  0.21646     O
O       0.7021  0.21773   0.9614     O
O       0.7021  0.28227   0.5386     O
O       0.7021   0.5386  0.21773     O
O       0.7021   0.9614  0.28227     O
C        0.709   0.0039   0.1901     C
C        0.709   0.1901   0.4961     C
C        0.709   0.3099   0.0039     C
C        0.709   0.4961   0.3099     C
O      0.71646  0.19999  0.53112     O
O      0.71646  0.30001  0.96888     O
O      0.71646  0.53112  0.30001     O
O      0.71646  0.96888  0.19999     O
O      0.71773   0.0386   0.2021     O
O      0.71773   0.2021   0.4614     O
O      0.71773   0.2979   0.0386     O
O      0.71773   0.4614   0.2979     O
Cu        0.75  0.04002     0.25    Cu
Cu        0.75     0.25  0.04002    Cu
Cu        0.75     0.25  0.45998    Cu
Cu        0.75     0.25  0.54002    Cu
Cu        0.75     0.25  0.95998    Cu
Cu        0.75  0.45998     0.25    Cu
Cu        0.75  0.54002     0.25    Cu
Cu        0.75  0.95998     0.25    Cu
O      0.78227   0.0386   0.2979     O
O      0.78227   0.2021   0.0386     O
O      0.78227   0.2979   0.4614     O
O      0.78227   0.4614   0.2021     O
O      0.78354  0.19999  0.96888     O
O      0.78354  0.30001  0.53112     O
O      0.78354  0.53112  0.19999     O
O      0.78354  0.96888  0.30001     O
C        0.791   0.0039   0.3099     C
C        0.791   0.1901   0.0039     C
C        0.791   0.3099   0.4961     C
C        0.791   0.4961   0.1901     C
O       0.7979  0.21773   0.5386     O
O       0.7979  0.28227   0.9614     O
O       0.7979   0.5386  0.28227     O
O       0.7979   0.9614  0.21773     O
O      0.80001  0.03112  0.21646     O
O      0.80001  0.21646  0.46888     O
O      0.80001  0.28354  0.03112     O
O      0.80001  0.46888  0.28354     O
C       0.8099    0.209   0.5039     C
C       0.8099    0.291   0.9961     C
C       0.8099   0.5039    0.291     C
C       0.8099   0.9961    0.209     C
C       0.8178   0.0066  0.34866     C
C       0.8178  0.15134   0.0066     C
C       0.8178  0.34866   0.4934     C
C       0.8178   0.4934  0.15134     C
H       0.8239   0.0321   0.3583     H
H       0.8239   0.1417   0.0321     H
H       0.8239   0.3583   0.4679     H
H       0.8239   0.4679   0.1417     H
H       0.8247   0.1428   0.9526     H
H       0.8247   0.3572   0.5474     H
H       0.8247   0.5474   0.1428     H
H       0.8247   0.9526   0.3572     H
C       0.8313   0.1327   0.9778     C
C       0.8313   0.3673   0.5222     C
C       0.8313   0.5222   0.1327     C
C       0.8313   0.9778   0.3673     C
C      0.84866   0.1822   0.5066     C
C      0.84866   0.3178   0.9934     C
C      0.84866   0.5066   0.3178     C
C      0.84866   0.9934   0.1822     C
C      0.85702  0.09585   0.9778     C
C      0.85702  0.40415   0.5222     C
C      0.85702   0.5222  0.09585     C
C      0.85702   0.9778  0.40415     C
H       0.8572   0.0474   0.1753     H
H       0.8572   0.1753   0.4526     H
H       0.8572   0.3247   0.0474     H
H       0.8572   0.4526   0.3247     H
H       0.8583   0.1761   0.5321     H
H       0.8583   0.3239   0.9679     H
H       0.8583   0.5321   0.3239     H
H       0.8583   0.9679   0.1761     H
H       0.8596   0.0947   0.9171     H
H       0.8596   0.4053   0.5829     H
H       0.8596   0.5829   0.0947     H
H       0.8596   0.9171   0.4053     H
H       0.8628   0.0374   0.4139     H
H       0.8628   0.0861   0.0374     H
H       0.8628   0.4139   0.4626     H
H       0.8628   0.4626   0.0861     H
C       0.8673   0.0222   0.1687     C
C       0.8673   0.1687   0.4778     C
C       0.8673   0.3313   0.0222     C
C       0.8673   0.4778   0.3313     C
C      0.86867  0.08189  0.94022     C
C      0.86867  0.41811  0.55978     C
C      0.86867  0.55978  0.08189     C
C      0.86867  0.94022  0.41811     C
C      0.87057  0.01225   0.4233     C
C      0.87057   0.0767  0.01225     C
C      0.87057   0.4233  0.48775     C
C      0.87057  0.48775   0.0767     C
C      0.89387   0.0488  0.93718     C
C      0.89387   0.4512  0.56282     C
C      0.89387  0.56282   0.0488     C
C      0.89387  0.93718   0.4512     C
C      0.89577  0.00921  0.45637     C
C      0.89577  0.04363  0.00921     C
C      0.89577  0.45637  0.49079     C
C      0.89577  0.49079  0.04363     C
H       0.9017   0.0395   0.9121     H
H       0.9017   0.4605   0.5879     H
H       0.9017   0.5879   0.0395     H
H       0.9017   0.9121   0.4605     H
C      0.90415   0.0222  0.14298     C
C      0.90415  0.14298   0.4778     C
C      0.90415  0.35702   0.0222     C
C      0.90415   0.4778  0.35702     C
H       0.9048   0.0308   0.0323     H
H       0.9048   0.0323   0.4692     H
H       0.9048   0.4677   0.0308     H
H       0.9048   0.4692   0.4677     H
H       0.9053   0.0829   0.1404     H
H       0.9053   0.1404   0.4171     H
H       0.9053   0.3596   0.0829     H
H       0.9053   0.4171   0.3596     H
C      0.90742  0.02966   0.9717     C
C      0.90742  0.47034   0.5283     C
C      0.90742   0.5283  0.02966     C
C      0.90742   0.9717  0.47034     C
H       0.9121   0.0395   0.5983     H
H       0.9121   0.4605   0.9017     H
H       0.9121   0.5983   0.4605     H
H       0.9121   0.9017   0.0395     H
H       0.9139   0.1372   0.5374     H
H       0.9139   0.3628   0.9626     H
H       0.9139   0.5374   0.3628     H
H       0.9139   0.9626   0.1372     H
H       0.9171   0.0947   0.6404     H
H       0.9171   0.4053   0.8596     H
H       0.9171   0.6404   0.4053     H
H       0.9171   0.8596   0.0947     H
C      0.91811  0.05978  0.13133     C
C      0.91811  0.13133  0.44022     C
C      0.91811  0.36867  0.05978     C
C      0.91811  0.44022  0.36867     C
H       0.9191   0.0179   0.5372     H
H       0.9191   0.4821   0.9628     H
H       0.9191   0.5372   0.4821     H
H       0.9191   0.9628   0.0179     H
C       0.9233  0.12943  0.51225     C
C       0.9233  0.37057  0.98775     C
C       0.9233  0.51225  0.37057     C
C       0.9233  0.98775  0.12943     C
C      0.93718   0.0488  0.60613     C
C      0.93718   0.4512  0.89387     C
C      0.93718  0.60613   0.4512     C
C      0.93718  0.89387   0.0488     C
C      0.93736   0.5043     0.53     C
C      0.93736     0.53   0.9957     C
C      0.93736     0.97   0.5043     C
C      0.93736   0.9957     0.97     C
C      0.93861  0.50188   0.9649     C
C      0.93861   0.5351  0.50188     C
C      0.93861   0.9649  0.99812     C
C      0.93861  0.99812   0.5351     C
C      0.94022  0.08189  0.63133     C
C      0.94022  0.41811  0.86867     C
C      0.94022  0.63133  0.41811     C
C      0.94022  0.86867  0.08189     C
C       0.9512  0.06282  0.10613     C
C       0.9512  0.10613  0.43718     C
C       0.9512  0.39387  0.06282     C
C       0.9512  0.43718  0.39387     C
H       0.9526   0.1428   0.6753     H
H       0.9526   0.3572   0.8247     H
H       0.9526   0.6753   0.3572     H
H       0.9526   0.8247   0.1428     H
C      0.95637  0.10423  0.50921     C
C      0.95637  0.39577  0.99079     C
C      0.95637  0.50921  0.39577     C
C      0.95637  0.99079  0.10423     C
Cu     0.95998     0.25     0.75    Cu
Cu     0.95998     0.75     0.25    Cu
H       0.9605   0.0879   0.0983     H
H       0.9605   0.0983   0.4121     H
H       0.9605   0.4017   0.0879     H
H       0.9605   0.4121   0.4017     H
O       0.9614  0.21773   0.7979     O
O       0.9614  0.28227   0.7021     O
O       0.9614   0.7021  0.21773     O
O       0.9614   0.7979  0.28227     O
H       0.9626   0.1372   0.9139     H
H       0.9626   0.3628   0.5861     H
H       0.9626   0.5861   0.1372     H
H       0.9626   0.9139   0.3628     H
H       0.9628   0.0179   0.9191     H
H       0.9628   0.4821   0.5809     H
H       0.9628   0.5809   0.0179     H
H       0.9628   0.9191   0.4821     H
C       0.9649  0.50188  0.56139     C
C       0.9649  0.56139  0.99812     C
C       0.9649  0.93861  0.50188     C
C       0.9649  0.99812  0.93861     C
H       0.9677   0.0952   0.9692     H
H       0.9677   0.4048   0.5308     H
H       0.9677   0.5308   0.0952     H
H       0.9677   0.9692   0.4048     H
H       0.9679   0.1761   0.8583     H
H       0.9679   0.3239   0.6417     H
H       0.9679   0.6417   0.1761     H
H       0.9679   0.8583   0.3239     H
O      0.96888  0.19999  0.71646     O
O      0.96888  0.30001  0.78354     O
O      0.96888  0.71646  0.30001     O
O      0.96888  0.78354  0.19999     O
H       0.9692   0.0952   0.5323     H
H       0.9692   0.4048   0.9677     H
H       0.9692   0.5323   0.4048     H
H       0.9692   0.9677   0.0952     H
C         0.97   0.5043  0.93736     C
C         0.97  0.56264   0.5043     C
C         0.97  0.93736   0.9957     C
C         0.97   0.9957  0.56264     C
C      0.97034   0.0283  0.09258     C
C      0.97034  0.09258   0.4717     C
C      0.97034  0.40742   0.0283     C
C      0.97034   0.4717  0.40742     C
C       0.9717  0.02966  0.59258     C
C       0.9717  0.47034  0.90742     C
C       0.9717  0.59258  0.47034     C
C       0.9717  0.90742  0.02966     C
C       0.9778  0.09585  0.64298     C
C       0.9778   0.1327   0.6687     C
C       0.9778   0.3673   0.8313     C
C       0.9778  0.40415  0.85702     C
C       0.9778  0.64298  0.40415     C
C       0.9778   0.6687   0.3673     C
C       0.9778   0.8313   0.1327     C
C       0.9778  0.85702  0.09585     C
H       0.9821   0.0372   0.4191     H
H       0.9821   0.0809   0.0372     H
H       0.9821   0.4191   0.4628     H
H       0.9821   0.4628   0.0809     H
C      0.98775  0.12943   0.9233     C
C      0.98775  0.37057   0.5767     C
C      0.98775   0.5767  0.12943     C
C      0.98775   0.9233  0.37057     C
C      0.99079  0.10423  0.95637     C
C      0.99079  0.39577  0.54363     C
C      0.99079  0.54363  0.10423     C
C      0.99079  0.95637  0.39577     C
C       0.9934   0.1822  0.84866     C
C       0.9934   0.3178  0.65134     C
C       0.9934  0.65134   0.1822     C
C       0.9934  0.84866   0.3178     C
C       0.9957     0.53  0.56264     C
C       0.9957  0.56264     0.97     C
C       0.9957  0.93736     0.53     C
C       0.9957     0.97  0.93736     C
C       0.9961    0.209   0.8099     C
C       0.9961    0.291   0.6901     C
C       0.9961   0.6901    0.209     C
C       0.9961   0.8099    0.291     C
C      0.99812   0.5351  0.93861     C
C      0.99812  0.56139   0.5351     C
C      0.99812  0.93861   0.9649     C
C      0.99812   0.9649  0.56139     C
