data_I
_chemical_name_common  '/home/zhangsd/repos/MofS-CGCNN/ML/data/TSD/clean_cifs/LASDEQ_clean'
_cell_length_a 23.56700
_cell_length_b 23.56700
_cell_length_c 46.99700
_cell_angle_alpha 90.00000
_cell_angle_beta  90.00000
_cell_angle_gamma 90.00000
_space_group_name_H-M_alt      'P 1'


loop_
_space_group_symop_operation_xyz
  'x, y, z' 

loop_
_atom_site_label
_atom_site_fract_x
_atom_site_fract_y
_atom_site_fract_z
_atom_site_type_symbol
O      0.01952  0.27091  0.17752     O
O      0.01952  0.27091  0.82248     O
O      0.01952  0.72909  0.32248     O
O      0.01952  0.72909  0.67752     O
O      0.02035   0.3512  0.13676     O
O      0.02035   0.3512  0.86324     O
O      0.02035   0.6488  0.36324     O
O      0.02035   0.6488  0.63676     O
O      0.02203  0.29007  0.10041     O
O      0.02203  0.29007  0.89959     O
O      0.02203  0.70993  0.39959     O
O      0.02203  0.70993  0.60041     O
Cu     0.03039  0.23727  0.38111    Cu
Cu     0.03039  0.23727  0.61889    Cu
Cu     0.03039  0.76273  0.11889    Cu
Cu     0.03039  0.76273  0.88111    Cu
O       0.0335  0.21043   0.1418     O
O       0.0335  0.21043   0.8582     O
O       0.0335  0.78957   0.3582     O
O       0.0335  0.78957   0.6418     O
Cu     0.03936  0.31541  0.34095    Cu
Cu     0.03936  0.31541  0.65905    Cu
Cu     0.03936  0.68459  0.15905    Cu
Cu     0.03936  0.68459  0.84095    Cu
C      0.04018  0.33227  0.11393     C
C      0.04018  0.33227  0.88607     C
C      0.04018  0.66773  0.38607     C
C      0.04018  0.66773  0.61393     C
C      0.04665   0.2326  0.16502     C
C      0.04665   0.2326  0.83498     C
C      0.04665   0.7674  0.33498     C
C      0.04665   0.7674  0.66502     C
O       0.0834  0.19567  0.35695     O
O       0.0834  0.19567  0.64305     O
O       0.0834  0.80433  0.14305     O
O       0.0834  0.80433  0.85695     O
C      0.09017  0.36301  0.10122     C
C      0.09017  0.36301  0.89878     C
C      0.09017  0.63699  0.39878     C
C      0.09017  0.63699  0.60122     C
O      0.09476  0.27799  0.39714     O
O      0.09476  0.27799  0.60286     O
O      0.09476  0.72201  0.10286     O
O      0.09476  0.72201  0.89714     O
H       0.0956   0.4212   0.1325     H
H       0.0956   0.4212   0.8675     H
H       0.0956   0.5788   0.3675     H
H       0.0956   0.5788   0.6325     H
O      0.09742  0.34924  0.36581     O
O      0.09742  0.34924  0.63419     O
O      0.09742  0.65076  0.13419     O
O      0.09742  0.65076  0.86581     O
O      0.09775  0.26529  0.32544     O
O      0.09775  0.26529  0.67456     O
O      0.09775  0.73471  0.17456     O
O      0.09775  0.73471  0.82544     O
H       0.0985   0.2662   0.2121     H
H       0.0985   0.2662   0.7879     H
H       0.0985   0.7338   0.2879     H
H       0.0985   0.7338   0.7121     H
H       0.0992   0.3142   0.0666     H
H       0.0992   0.3142   0.9334     H
H       0.0992   0.6858   0.4334     H
H       0.0992   0.6858   0.5666     H
C      0.10006  0.21204  0.17894     C
C      0.10006  0.21204  0.82106     C
C      0.10006  0.78796  0.32106     C
C      0.10006  0.78796  0.67894     C
C       0.1077  0.21714  0.33597     C
C       0.1077  0.21714  0.66403     C
C       0.1077  0.78286  0.16403     C
C       0.1077  0.78286  0.83597     C
C      0.11296  0.40851   0.1159     C
C      0.11296  0.40851   0.8841     C
C      0.11296  0.59149   0.3841     C
C      0.11296  0.59149   0.6159     C
C      0.11423  0.32372  0.38736     C
C      0.11423  0.32372  0.61264     C
C      0.11423  0.67628  0.11264     C
C      0.11423  0.67628  0.88736     C
C      0.11482  0.34454  0.07649     C
C      0.11482  0.34454  0.92351     C
C      0.11482  0.65546  0.42351     C
C      0.11482  0.65546  0.57649     C
H       0.1178   0.1511   0.1502     H
H       0.1178   0.1511   0.8498     H
H       0.1178   0.8489   0.3498     H
H       0.1178   0.8489   0.6502     H
C       0.1198  0.23773  0.20346     C
C       0.1198  0.23773  0.79654     C
C       0.1198  0.76227  0.29654     C
C       0.1198  0.76227  0.70346     C
C       0.1314  0.16916  0.16646     C
C       0.1314  0.16916  0.83354     C
C       0.1314  0.83084  0.33354     C
C       0.1314  0.83084  0.66646     C
H       0.1511   0.1178   0.3498     H
H       0.1511   0.1178   0.6502     H
H       0.1511   0.8822   0.1502     H
H       0.1511   0.8822   0.8498     H
C      0.15316  0.18256  0.32207     C
C      0.15316  0.18256  0.67793     C
C      0.15316  0.81744  0.17793     C
C      0.15316  0.81744  0.82207     C
C      0.16086  0.43482  0.10617     C
C      0.16086  0.43482  0.89383     C
C      0.16086  0.56518  0.39383     C
C      0.16086  0.56518  0.60617     C
C      0.16287  0.37127  0.06639     C
C      0.16287  0.37127  0.93361     C
C      0.16287  0.62873  0.43361     C
C      0.16287  0.62873  0.56639     C
C        0.163  0.34866  0.40327     C
C        0.163  0.34866  0.59673     C
C        0.163  0.65134  0.09673     C
C        0.163  0.65134  0.90327     C
H       0.1683   0.4211   0.3797     H
H       0.1683   0.4211   0.6203     H
H       0.1683   0.5789   0.1203     H
H       0.1683   0.5789   0.8797     H
H       0.1685   0.2373   0.2898     H
H       0.1685   0.2373   0.7102     H
H       0.1685   0.7627   0.2102     H
H       0.1685   0.7627   0.7898     H
C      0.16916   0.1314  0.33354     C
C      0.16916   0.1314  0.66646     C
C      0.16916   0.8686  0.16646     C
C      0.16916   0.8686  0.83354     C
C      0.17062  0.22139  0.21506     C
C      0.17062  0.22139  0.78494     C
C      0.17062  0.77861  0.28494     C
C      0.17062  0.77861  0.71506     C
H       0.1713   0.2857   0.4316     H
H       0.1713   0.2857   0.5684     H
H       0.1713   0.7143   0.0684     H
H       0.1713   0.7143   0.9316     H
O      0.17248  0.30519  0.02984     O
O      0.17248  0.30519  0.97016     O
O      0.17248  0.69481  0.47016     O
O      0.17248  0.69481  0.52984     O
C      0.17924  0.20268  0.29758     C
C      0.17924  0.20268  0.70242     C
C      0.17924  0.79732  0.20242     C
C      0.17924  0.79732  0.79758     C
O      0.18028  0.47907  0.12222     O
O      0.18028  0.47907  0.87778     O
O      0.18028  0.52093  0.37778     O
O      0.18028  0.52093  0.62222     O
C      0.18256  0.15316  0.17793     C
C      0.18256  0.15316  0.82207     C
C      0.18256  0.84684  0.32207     C
C      0.18256  0.84684  0.67793     C
C      0.18418  0.40184  0.39505     C
C      0.18418  0.40184  0.60495     C
C      0.18418  0.59816  0.10495     C
C      0.18418  0.59816  0.89505     C
O      0.18615  0.25063  0.23897     O
O      0.18615  0.25063  0.76103     O
O      0.18615  0.74937  0.26103     O
O      0.18615  0.74937  0.73897     O
C      0.18648  0.41713  0.08093     C
C      0.18648  0.41713  0.91907     C
C      0.18648  0.58287  0.41907     C
C      0.18648  0.58287  0.58093     C
C      0.18672  0.32011   0.4257     C
C      0.18672  0.32011   0.5743     C
C      0.18672  0.67989   0.0743     C
C      0.18672  0.67989   0.9257     C
C      0.19185  0.34967  0.03979     C
C      0.19185  0.34967  0.96021     C
C      0.19185  0.65033  0.46021     C
C      0.19185  0.65033  0.53979     C
O      0.19567   0.0834  0.14305     O
O      0.19567   0.0834  0.85695     O
O      0.19567   0.9166  0.35695     O
O      0.19567   0.9166  0.64305     O
C      0.20268  0.17924  0.20242     C
C      0.20268  0.17924  0.79758     C
C      0.20268  0.82076  0.29758     C
C      0.20268  0.82076  0.70242     C
O      0.21043   0.0335   0.3582     O
O      0.21043   0.0335   0.6418     O
O      0.21043   0.9665   0.1418     O
O      0.21043   0.9665   0.8582     O
C      0.21204  0.10006  0.32106     C
C      0.21204  0.10006  0.67894     C
C      0.21204  0.89994  0.17894     C
C      0.21204  0.89994  0.82106     C
Cu     0.21327  0.26373      0.0    Cu
Cu     0.21327  0.73627      0.5    Cu
C      0.21714   0.1077  0.16403     C
C      0.21714   0.1077  0.83597     C
C      0.21714   0.8923  0.33597     C
C      0.21714   0.8923  0.66403     C
H       0.2185   0.4355    0.074     H
H       0.2185   0.4355    0.926     H
H       0.2185   0.5645    0.426     H
H       0.2185   0.5645    0.574     H
C      0.22139  0.17062  0.28494     C
C      0.22139  0.17062  0.71506     C
C      0.22139  0.82938  0.21506     C
C      0.22139  0.82938  0.78494     C
C       0.2287  0.42512  0.40999     C
C       0.2287  0.42512  0.59001     C
C       0.2287  0.57488  0.09001     C
C       0.2287  0.57488  0.90999     C
O      0.23241  0.37796  0.03066     O
O      0.23241  0.37796  0.96934     O
O      0.23241  0.62204  0.46934     O
O      0.23241  0.62204  0.53066     O
C       0.2326  0.04665  0.33498     C
C       0.2326  0.04665  0.66502     C
C       0.2326  0.95335  0.16502     C
C       0.2326  0.95335  0.83498     C
C      0.23359  0.34232  0.43968     C
C      0.23359  0.34232  0.56032     C
C      0.23359  0.65768  0.06032     C
C      0.23359  0.65768  0.93968     C
O      0.23625  0.26493  0.47079     O
O      0.23625  0.26493  0.52921     O
O      0.23625  0.73507  0.02921     O
O      0.23625  0.73507  0.97079     O
C       0.2364   0.4946  0.12064     C
C       0.2364   0.4946  0.87936     C
C       0.2364   0.5054  0.37936     C
C       0.2364   0.5054  0.62064     C
Cu     0.23727  0.03039  0.11889    Cu
Cu     0.23727  0.03039  0.88111    Cu
Cu     0.23727  0.96961  0.38111    Cu
Cu     0.23727  0.96961  0.61889    Cu
H       0.2373   0.1685   0.2102     H
H       0.2373   0.1685   0.7898     H
H       0.2373   0.8315   0.2898     H
H       0.2373   0.8315   0.7102     H
C      0.23773   0.1198  0.29654     C
C      0.23773   0.1198  0.70346     C
C      0.23773   0.8802  0.20346     C
C      0.23773   0.8802  0.79654     C
C       0.2416   0.2416     0.25     C
C       0.2416   0.2416     0.75     C
C       0.2416   0.7584     0.25     C
C       0.2416   0.7584     0.75     C
H        0.245   0.4803   0.3636     H
H        0.245   0.4803   0.6364     H
H        0.245   0.5197   0.1364     H
H        0.245   0.5197   0.8636     H
H       0.2486    0.269    0.265     H
H       0.2486    0.269    0.735     H
H       0.2486    0.731    0.235     H
H       0.2486    0.731    0.765     H
O      0.25063  0.18615  0.26103     O
O      0.25063  0.18615  0.73897     O
O      0.25063  0.81385  0.23897     O
O      0.25063  0.81385  0.76103     O
O      0.25161  0.47756  0.40522     O
O      0.25161  0.47756  0.59478     O
O      0.25161  0.52244  0.09478     O
O      0.25161  0.52244  0.90522     O
C      0.25419  0.39483  0.43213     C
C      0.25419  0.39483  0.56787     C
C      0.25419  0.60517  0.06787     C
C      0.25419  0.60517  0.93213     C
H       0.2597    0.461   0.1227     H
H       0.2597    0.461   0.8773     H
H       0.2597    0.539   0.3773     H
H       0.2597    0.539   0.6227     H
C      0.26238  0.30824   0.4624     C
C      0.26238  0.30824   0.5376     C
C      0.26238  0.69176   0.0376     C
C      0.26238  0.69176   0.9624     C
Cu     0.26373  0.21327      0.5    Cu
Cu     0.26373  0.78673      1.0    Cu
O      0.26493  0.23625  0.02921     O
O      0.26493  0.23625  0.97079     O
O      0.26493  0.76375  0.47079     O
O      0.26493  0.76375  0.52921     O
O      0.26529  0.09775  0.17456     O
O      0.26529  0.09775  0.82544     O
O      0.26529  0.90225  0.32544     O
O      0.26529  0.90225  0.67456     O
H       0.2662   0.0985   0.2879     H
H       0.2662   0.0985   0.7121     H
H       0.2662   0.9015   0.2121     H
H       0.2662   0.9015   0.7879     H
H        0.269   0.2486    0.235     H
H        0.269   0.2486    0.765     H
H        0.269   0.7514    0.265     H
H        0.269   0.7514    0.735     H
O      0.27091  0.01952  0.32248     O
O      0.27091  0.01952  0.67752     O
O      0.27091  0.98048  0.17752     O
O      0.27091  0.98048  0.82248     O
O      0.27799  0.09476  0.10286     O
O      0.27799  0.09476  0.89714     O
O      0.27799  0.90524  0.39714     O
O      0.27799  0.90524  0.60286     O
Cu     0.28307  0.35119      0.0    Cu
Cu     0.28307  0.64881      0.5    Cu
H       0.2851   0.4102   0.4418     H
H       0.2851   0.4102   0.5582     H
H       0.2851   0.5898   0.0582     H
H       0.2851   0.5898   0.9418     H
H       0.2857   0.1713   0.0684     H
H       0.2857   0.1713   0.9316     H
H       0.2857   0.8287   0.4316     H
H       0.2857   0.8287   0.5684     H
O      0.29007  0.02203  0.39959     O
O      0.29007  0.02203  0.60041     O
O      0.29007  0.97797  0.10041     O
O      0.29007  0.97797  0.89959     O
O      0.30519  0.17248  0.47016     O
O      0.30519  0.17248  0.52984     O
O      0.30519  0.82752  0.02984     O
O      0.30519  0.82752  0.97016     O
C      0.30824  0.26238   0.0376     C
C      0.30824  0.26238   0.9624     C
C      0.30824  0.73762   0.4624     C
C      0.30824  0.73762   0.5376     C
O      0.30935  0.32543  0.47147     O
O      0.30935  0.32543  0.52853     O
O      0.30935  0.67457  0.02853     O
O      0.30935  0.67457  0.97147     O
H       0.3142   0.0992   0.4334     H
H       0.3142   0.0992   0.5666     H
H       0.3142   0.9008   0.0666     H
H       0.3142   0.9008   0.9334     H
Cu     0.31541  0.03936  0.15905    Cu
Cu     0.31541  0.03936  0.84095    Cu
Cu     0.31541  0.96064  0.34095    Cu
Cu     0.31541  0.96064  0.65905    Cu
C      0.32011  0.18672   0.0743     C
C      0.32011  0.18672   0.9257     C
C      0.32011  0.81328   0.4257     C
C      0.32011  0.81328   0.5743     C
C      0.32372  0.11423  0.11264     C
C      0.32372  0.11423  0.88736     C
C      0.32372  0.88577  0.38736     C
C      0.32372  0.88577  0.61264     C
O      0.32543  0.30935  0.02853     O
O      0.32543  0.30935  0.97147     O
O      0.32543  0.69065  0.47147     O
O      0.32543  0.69065  0.52853     O
C      0.33227  0.04018  0.38607     C
C      0.33227  0.04018  0.61393     C
C      0.33227  0.95982  0.11393     C
C      0.33227  0.95982  0.88607     C
C      0.34232  0.23359  0.06032     C
C      0.34232  0.23359  0.93968     C
C      0.34232  0.76641  0.43968     C
C      0.34232  0.76641  0.56032     C
C      0.34454  0.11482  0.42351     C
C      0.34454  0.11482  0.57649     C
C      0.34454  0.88518  0.07649     C
C      0.34454  0.88518  0.92351     C
C      0.34866    0.163  0.09673     C
C      0.34866    0.163  0.90327     C
C      0.34866    0.837  0.40327     C
C      0.34866    0.837  0.59673     C
O      0.34924  0.09742  0.13419     O
O      0.34924  0.09742  0.86581     O
O      0.34924  0.90258  0.36581     O
O      0.34924  0.90258  0.63419     O
C      0.34967  0.19185  0.46021     C
C      0.34967  0.19185  0.53979     C
C      0.34967  0.80815  0.03979     C
C      0.34967  0.80815  0.96021     C
Cu     0.35119  0.28307      0.5    Cu
Cu     0.35119  0.71693      0.0    Cu
O       0.3512  0.02035  0.36324     O
O       0.3512  0.02035  0.63676     O
O       0.3512  0.97965  0.13676     O
O       0.3512  0.97965  0.86324     O
C      0.36301  0.09017  0.39878     C
C      0.36301  0.09017  0.60122     C
C      0.36301  0.90983  0.10122     C
C      0.36301  0.90983  0.89878     C
C      0.37127  0.16287  0.43361     C
C      0.37127  0.16287  0.56639     C
C      0.37127  0.83713  0.06639     C
C      0.37127  0.83713  0.93361     C
O      0.37796  0.23241  0.46934     O
O      0.37796  0.23241  0.53066     O
O      0.37796  0.76759  0.03066     O
O      0.37796  0.76759  0.96934     O
C      0.39483  0.25419  0.06787     C
C      0.39483  0.25419  0.93213     C
C      0.39483  0.74581  0.43213     C
C      0.39483  0.74581  0.56787     C
C      0.40184  0.18418  0.10495     C
C      0.40184  0.18418  0.89505     C
C      0.40184  0.81582  0.39505     C
C      0.40184  0.81582  0.60495     C
C      0.40851  0.11296   0.3841     C
C      0.40851  0.11296   0.6159     C
C      0.40851  0.88704   0.1159     C
C      0.40851  0.88704   0.8841     C
H       0.4102   0.2851   0.0582     H
H       0.4102   0.2851   0.9418     H
H       0.4102   0.7149   0.4418     H
H       0.4102   0.7149   0.5582     H
C      0.41713  0.18648  0.41907     C
C      0.41713  0.18648  0.58093     C
C      0.41713  0.81352  0.08093     C
C      0.41713  0.81352  0.91907     C
H       0.4211   0.1683   0.1203     H
H       0.4211   0.1683   0.8797     H
H       0.4211   0.8317   0.3797     H
H       0.4211   0.8317   0.6203     H
H       0.4212   0.0956   0.3675     H
H       0.4212   0.0956   0.6325     H
H       0.4212   0.9044   0.1325     H
H       0.4212   0.9044   0.8675     H
C      0.42512   0.2287  0.09001     C
C      0.42512   0.2287  0.90999     C
C      0.42512   0.7713  0.40999     C
C      0.42512   0.7713  0.59001     C
C      0.43482  0.16086  0.39383     C
C      0.43482  0.16086  0.60617     C
C      0.43482  0.83914  0.10617     C
C      0.43482  0.83914  0.89383     C
H       0.4355   0.2185    0.426     H
H       0.4355   0.2185    0.574     H
H       0.4355   0.7815    0.074     H
H       0.4355   0.7815    0.926     H
H        0.461   0.2597   0.3773     H
H        0.461   0.2597   0.6227     H
H        0.461   0.7403   0.1227     H
H        0.461   0.7403   0.8773     H
O      0.47756  0.25161  0.09478     O
O      0.47756  0.25161  0.90522     O
O      0.47756  0.74839  0.40522     O
O      0.47756  0.74839  0.59478     O
O      0.47907  0.18028  0.37778     O
O      0.47907  0.18028  0.62222     O
O      0.47907  0.81972  0.12222     O
O      0.47907  0.81972  0.87778     O
H       0.4803    0.245   0.1364     H
H       0.4803    0.245   0.8636     H
H       0.4803    0.755   0.3636     H
H       0.4803    0.755   0.6364     H
C       0.4946   0.2364  0.37936     C
C       0.4946   0.2364  0.62064     C
C       0.4946   0.7636  0.12064     C
C       0.4946   0.7636  0.87936     C
C       0.5054   0.2364  0.12064     C
C       0.5054   0.2364  0.87936     C
C       0.5054   0.7636  0.37936     C
C       0.5054   0.7636  0.62064     C
H       0.5197    0.245   0.3636     H
H       0.5197    0.245   0.6364     H
H       0.5197    0.755   0.1364     H
H       0.5197    0.755   0.8636     H
O      0.52093  0.18028  0.12222     O
O      0.52093  0.18028  0.87778     O
O      0.52093  0.81972  0.37778     O
O      0.52093  0.81972  0.62222     O
O      0.52244  0.25161  0.40522     O
O      0.52244  0.25161  0.59478     O
O      0.52244  0.74839  0.09478     O
O      0.52244  0.74839  0.90522     O
H        0.539   0.2597   0.1227     H
H        0.539   0.2597   0.8773     H
H        0.539   0.7403   0.3773     H
H        0.539   0.7403   0.6227     H
H       0.5645   0.2185    0.074     H
H       0.5645   0.2185    0.926     H
H       0.5645   0.7815    0.426     H
H       0.5645   0.7815    0.574     H
C      0.56518  0.16086  0.10617     C
C      0.56518  0.16086  0.89383     C
C      0.56518  0.83914  0.39383     C
C      0.56518  0.83914  0.60617     C
C      0.57488   0.2287  0.40999     C
C      0.57488   0.2287  0.59001     C
C      0.57488   0.7713  0.09001     C
C      0.57488   0.7713  0.90999     C
H       0.5788   0.0956   0.1325     H
H       0.5788   0.0956   0.8675     H
H       0.5788   0.9044   0.3675     H
H       0.5788   0.9044   0.6325     H
H       0.5789   0.1683   0.3797     H
H       0.5789   0.1683   0.6203     H
H       0.5789   0.8317   0.1203     H
H       0.5789   0.8317   0.8797     H
C      0.58287  0.18648  0.08093     C
C      0.58287  0.18648  0.91907     C
C      0.58287  0.81352  0.41907     C
C      0.58287  0.81352  0.58093     C
H       0.5898   0.2851   0.4418     H
H       0.5898   0.2851   0.5582     H
H       0.5898   0.7149   0.0582     H
H       0.5898   0.7149   0.9418     H
C      0.59149  0.11296   0.1159     C
C      0.59149  0.11296   0.8841     C
C      0.59149  0.88704   0.3841     C
C      0.59149  0.88704   0.6159     C
C      0.59816  0.18418  0.39505     C
C      0.59816  0.18418  0.60495     C
C      0.59816  0.81582  0.10495     C
C      0.59816  0.81582  0.89505     C
C      0.60517  0.25419  0.43213     C
C      0.60517  0.25419  0.56787     C
C      0.60517  0.74581  0.06787     C
C      0.60517  0.74581  0.93213     C
O      0.62204  0.23241  0.03066     O
O      0.62204  0.23241  0.96934     O
O      0.62204  0.76759  0.46934     O
O      0.62204  0.76759  0.53066     O
C      0.62873  0.16287  0.06639     C
C      0.62873  0.16287  0.93361     C
C      0.62873  0.83713  0.43361     C
C      0.62873  0.83713  0.56639     C
C      0.63699  0.09017  0.10122     C
C      0.63699  0.09017  0.89878     C
C      0.63699  0.90983  0.39878     C
C      0.63699  0.90983  0.60122     C
O       0.6488  0.02035  0.13676     O
O       0.6488  0.02035  0.86324     O
O       0.6488  0.97965  0.36324     O
O       0.6488  0.97965  0.63676     O
Cu     0.64881  0.28307      1.0    Cu
Cu     0.64881  0.71693      0.5    Cu
C      0.65033  0.19185  0.03979     C
C      0.65033  0.19185  0.96021     C
C      0.65033  0.80815  0.46021     C
C      0.65033  0.80815  0.53979     C
O      0.65076  0.09742  0.36581     O
O      0.65076  0.09742  0.63419     O
O      0.65076  0.90258  0.13419     O
O      0.65076  0.90258  0.86581     O
C      0.65134    0.163  0.40327     C
C      0.65134    0.163  0.59673     C
C      0.65134    0.837  0.09673     C
C      0.65134    0.837  0.90327     C
C      0.65546  0.11482  0.07649     C
C      0.65546  0.11482  0.92351     C
C      0.65546  0.88518  0.42351     C
C      0.65546  0.88518  0.57649     C
C      0.65768  0.23359  0.43968     C
C      0.65768  0.23359  0.56032     C
C      0.65768  0.76641  0.06032     C
C      0.65768  0.76641  0.93968     C
C      0.66773  0.04018  0.11393     C
C      0.66773  0.04018  0.88607     C
C      0.66773  0.95982  0.38607     C
C      0.66773  0.95982  0.61393     C
O      0.67457  0.30935  0.47147     O
O      0.67457  0.30935  0.52853     O
O      0.67457  0.69065  0.02853     O
O      0.67457  0.69065  0.97147     O
C      0.67628  0.11423  0.38736     C
C      0.67628  0.11423  0.61264     C
C      0.67628  0.88577  0.11264     C
C      0.67628  0.88577  0.88736     C
C      0.67989  0.18672   0.4257     C
C      0.67989  0.18672   0.5743     C
C      0.67989  0.81328   0.0743     C
C      0.67989  0.81328   0.9257     C
Cu     0.68459  0.03936  0.34095    Cu
Cu     0.68459  0.03936  0.65905    Cu
Cu     0.68459  0.96064  0.15905    Cu
Cu     0.68459  0.96064  0.84095    Cu
H       0.6858   0.0992   0.0666     H
H       0.6858   0.0992   0.9334     H
H       0.6858   0.9008   0.4334     H
H       0.6858   0.9008   0.5666     H
O      0.69065  0.32543  0.02853     O
O      0.69065  0.32543  0.97147     O
O      0.69065  0.67457  0.47147     O
O      0.69065  0.67457  0.52853     O
C      0.69176  0.26238   0.4624     C
C      0.69176  0.26238   0.5376     C
C      0.69176  0.73762   0.0376     C
C      0.69176  0.73762   0.9624     C
O      0.69481  0.17248  0.02984     O
O      0.69481  0.17248  0.97016     O
O      0.69481  0.82752  0.47016     O
O      0.69481  0.82752  0.52984     O
O      0.70993  0.02203  0.10041     O
O      0.70993  0.02203  0.89959     O
O      0.70993  0.97797  0.39959     O
O      0.70993  0.97797  0.60041     O
H       0.7143   0.1713   0.4316     H
H       0.7143   0.1713   0.5684     H
H       0.7143   0.8287   0.0684     H
H       0.7143   0.8287   0.9316     H
H       0.7149   0.4102   0.0582     H
H       0.7149   0.4102   0.9418     H
H       0.7149   0.5898   0.4418     H
H       0.7149   0.5898   0.5582     H
Cu     0.71693  0.35119      0.5    Cu
Cu     0.71693  0.64881      1.0    Cu
O      0.72201  0.09476  0.39714     O
O      0.72201  0.09476  0.60286     O
O      0.72201  0.90524  0.10286     O
O      0.72201  0.90524  0.89714     O
O      0.72909  0.01952  0.17752     O
O      0.72909  0.01952  0.82248     O
O      0.72909  0.98048  0.32248     O
O      0.72909  0.98048  0.67752     O
H        0.731   0.2486    0.265     H
H        0.731   0.2486    0.735     H
H        0.731   0.7514    0.235     H
H        0.731   0.7514    0.765     H
H       0.7338   0.0985   0.2121     H
H       0.7338   0.0985   0.7879     H
H       0.7338   0.9015   0.2879     H
H       0.7338   0.9015   0.7121     H
O      0.73471  0.09775  0.32544     O
O      0.73471  0.09775  0.67456     O
O      0.73471  0.90225  0.17456     O
O      0.73471  0.90225  0.82544     O
O      0.73507  0.23625  0.47079     O
O      0.73507  0.23625  0.52921     O
O      0.73507  0.76375  0.02921     O
O      0.73507  0.76375  0.97079     O
Cu     0.73627  0.21327      1.0    Cu
Cu     0.73627  0.78673      0.5    Cu
C      0.73762  0.30824   0.0376     C
C      0.73762  0.30824   0.9624     C
C      0.73762  0.69176   0.4624     C
C      0.73762  0.69176   0.5376     C
H       0.7403    0.461   0.3773     H
H       0.7403    0.461   0.6227     H
H       0.7403    0.539   0.1227     H
H       0.7403    0.539   0.8773     H
C      0.74581  0.39483  0.06787     C
C      0.74581  0.39483  0.93213     C
C      0.74581  0.60517  0.43213     C
C      0.74581  0.60517  0.56787     C
O      0.74839  0.47756  0.09478     O
O      0.74839  0.47756  0.90522     O
O      0.74839  0.52244  0.40522     O
O      0.74839  0.52244  0.59478     O
O      0.74937  0.18615  0.23897     O
O      0.74937  0.18615  0.76103     O
O      0.74937  0.81385  0.26103     O
O      0.74937  0.81385  0.73897     O
H       0.7514    0.269    0.235     H
H       0.7514    0.269    0.765     H
H       0.7514    0.731    0.265     H
H       0.7514    0.731    0.735     H
H        0.755   0.4803   0.1364     H
H        0.755   0.4803   0.8636     H
H        0.755   0.5197   0.3636     H
H        0.755   0.5197   0.6364     H
C       0.7584   0.2416     0.25     C
C       0.7584   0.2416     0.75     C
C       0.7584   0.7584     0.25     C
C       0.7584   0.7584     0.75     C
C      0.76227   0.1198  0.20346     C
C      0.76227   0.1198  0.79654     C
C      0.76227   0.8802  0.29654     C
C      0.76227   0.8802  0.70346     C
H       0.7627   0.1685   0.2898     H
H       0.7627   0.1685   0.7102     H
H       0.7627   0.8315   0.2102     H
H       0.7627   0.8315   0.7898     H
Cu     0.76273  0.03039  0.38111    Cu
Cu     0.76273  0.03039  0.61889    Cu
Cu     0.76273  0.96961  0.11889    Cu
Cu     0.76273  0.96961  0.88111    Cu
C       0.7636   0.4946  0.37936     C
C       0.7636   0.4946  0.62064     C
C       0.7636   0.5054  0.12064     C
C       0.7636   0.5054  0.87936     C
O      0.76375  0.26493  0.02921     O
O      0.76375  0.26493  0.97079     O
O      0.76375  0.73507  0.47079     O
O      0.76375  0.73507  0.52921     O
C      0.76641  0.34232  0.06032     C
C      0.76641  0.34232  0.93968     C
C      0.76641  0.65768  0.43968     C
C      0.76641  0.65768  0.56032     C
C       0.7674  0.04665  0.16502     C
C       0.7674  0.04665  0.83498     C
C       0.7674  0.95335  0.33498     C
C       0.7674  0.95335  0.66502     C
O      0.76759  0.37796  0.46934     O
O      0.76759  0.37796  0.53066     O
O      0.76759  0.62204  0.03066     O
O      0.76759  0.62204  0.96934     O
C       0.7713  0.42512  0.09001     C
C       0.7713  0.42512  0.90999     C
C       0.7713  0.57488  0.40999     C
C       0.7713  0.57488  0.59001     C
C      0.77861  0.17062  0.21506     C
C      0.77861  0.17062  0.78494     C
C      0.77861  0.82938  0.28494     C
C      0.77861  0.82938  0.71506     C
H       0.7815   0.4355    0.426     H
H       0.7815   0.4355    0.574     H
H       0.7815   0.5645    0.074     H
H       0.7815   0.5645    0.926     H
C      0.78286   0.1077  0.33597     C
C      0.78286   0.1077  0.66403     C
C      0.78286   0.8923  0.16403     C
C      0.78286   0.8923  0.83597     C
Cu     0.78673  0.26373      0.5    Cu
Cu     0.78673  0.73627      1.0    Cu
C      0.78796  0.10006  0.17894     C
C      0.78796  0.10006  0.82106     C
C      0.78796  0.89994  0.32106     C
C      0.78796  0.89994  0.67894     C
O      0.78957   0.0335   0.1418     O
O      0.78957   0.0335   0.8582     O
O      0.78957   0.9665   0.3582     O
O      0.78957   0.9665   0.6418     O
C      0.79732  0.17924  0.29758     C
C      0.79732  0.17924  0.70242     C
C      0.79732  0.82076  0.20242     C
C      0.79732  0.82076  0.79758     C
O      0.80433   0.0834  0.35695     O
O      0.80433   0.0834  0.64305     O
O      0.80433   0.9166  0.14305     O
O      0.80433   0.9166  0.85695     O
C      0.80815  0.34967  0.46021     C
C      0.80815  0.34967  0.53979     C
C      0.80815  0.65033  0.03979     C
C      0.80815  0.65033  0.96021     C
C      0.81328  0.32011   0.0743     C
C      0.81328  0.32011   0.9257     C
C      0.81328  0.67989   0.4257     C
C      0.81328  0.67989   0.5743     C
C      0.81352  0.41713  0.41907     C
C      0.81352  0.41713  0.58093     C
C      0.81352  0.58287  0.08093     C
C      0.81352  0.58287  0.91907     C
O      0.81385  0.25063  0.26103     O
O      0.81385  0.25063  0.73897     O
O      0.81385  0.74937  0.23897     O
O      0.81385  0.74937  0.76103     O
C      0.81582  0.40184  0.10495     C
C      0.81582  0.40184  0.89505     C
C      0.81582  0.59816  0.39505     C
C      0.81582  0.59816  0.60495     C
C      0.81744  0.15316  0.32207     C
C      0.81744  0.15316  0.67793     C
C      0.81744  0.84684  0.17793     C
C      0.81744  0.84684  0.82207     C
O      0.81972  0.47907  0.37778     O
O      0.81972  0.47907  0.62222     O
O      0.81972  0.52093  0.12222     O
O      0.81972  0.52093  0.87778     O
C      0.82076  0.20268  0.20242     C
C      0.82076  0.20268  0.79758     C
C      0.82076  0.79732  0.29758     C
C      0.82076  0.79732  0.70242     C
O      0.82752  0.30519  0.47016     O
O      0.82752  0.30519  0.52984     O
O      0.82752  0.69481  0.02984     O
O      0.82752  0.69481  0.97016     O
H       0.8287   0.2857   0.0684     H
H       0.8287   0.2857   0.9316     H
H       0.8287   0.7143   0.4316     H
H       0.8287   0.7143   0.5684     H
C      0.82938  0.22139  0.28494     C
C      0.82938  0.22139  0.71506     C
C      0.82938  0.77861  0.21506     C
C      0.82938  0.77861  0.78494     C
C      0.83084   0.1314  0.16646     C
C      0.83084   0.1314  0.83354     C
C      0.83084   0.8686  0.33354     C
C      0.83084   0.8686  0.66646     C
H       0.8315   0.2373   0.2102     H
H       0.8315   0.2373   0.7898     H
H       0.8315   0.7627   0.2898     H
H       0.8315   0.7627   0.7102     H
H       0.8317   0.4211   0.1203     H
H       0.8317   0.4211   0.8797     H
H       0.8317   0.5789   0.3797     H
H       0.8317   0.5789   0.6203     H
C        0.837  0.34866  0.09673     C
C        0.837  0.34866  0.90327     C
C        0.837  0.65134  0.40327     C
C        0.837  0.65134  0.59673     C
C      0.83713  0.37127  0.43361     C
C      0.83713  0.37127  0.56639     C
C      0.83713  0.62873  0.06639     C
C      0.83713  0.62873  0.93361     C
C      0.83914  0.43482  0.39383     C
C      0.83914  0.43482  0.60617     C
C      0.83914  0.56518  0.10617     C
C      0.83914  0.56518  0.89383     C
C      0.84684  0.18256  0.17793     C
C      0.84684  0.18256  0.82207     C
C      0.84684  0.81744  0.32207     C
C      0.84684  0.81744  0.67793     C
H       0.8489   0.1178   0.1502     H
H       0.8489   0.1178   0.8498     H
H       0.8489   0.8822   0.3498     H
H       0.8489   0.8822   0.6502     H
C       0.8686  0.16916  0.33354     C
C       0.8686  0.16916  0.66646     C
C       0.8686  0.83084  0.16646     C
C       0.8686  0.83084  0.83354     C
C       0.8802  0.23773  0.29654     C
C       0.8802  0.23773  0.70346     C
C       0.8802  0.76227  0.20346     C
C       0.8802  0.76227  0.79654     C
H       0.8822   0.1511   0.3498     H
H       0.8822   0.1511   0.6502     H
H       0.8822   0.8489   0.1502     H
H       0.8822   0.8489   0.8498     H
C      0.88518  0.34454  0.42351     C
C      0.88518  0.34454  0.57649     C
C      0.88518  0.65546  0.07649     C
C      0.88518  0.65546  0.92351     C
C      0.88577  0.32372  0.11264     C
C      0.88577  0.32372  0.88736     C
C      0.88577  0.67628  0.38736     C
C      0.88577  0.67628  0.61264     C
C      0.88704  0.40851   0.3841     C
C      0.88704  0.40851   0.6159     C
C      0.88704  0.59149   0.1159     C
C      0.88704  0.59149   0.8841     C
C       0.8923  0.21714  0.16403     C
C       0.8923  0.21714  0.83597     C
C       0.8923  0.78286  0.33597     C
C       0.8923  0.78286  0.66403     C
C      0.89994  0.21204  0.32106     C
C      0.89994  0.21204  0.67894     C
C      0.89994  0.78796  0.17894     C
C      0.89994  0.78796  0.82106     C
H       0.9008   0.3142   0.4334     H
H       0.9008   0.3142   0.5666     H
H       0.9008   0.6858   0.0666     H
H       0.9008   0.6858   0.9334     H
H       0.9015   0.2662   0.2879     H
H       0.9015   0.2662   0.7121     H
H       0.9015   0.7338   0.2121     H
H       0.9015   0.7338   0.7879     H
O      0.90225  0.26529  0.17456     O
O      0.90225  0.26529  0.82544     O
O      0.90225  0.73471  0.32544     O
O      0.90225  0.73471  0.67456     O
O      0.90258  0.34924  0.13419     O
O      0.90258  0.34924  0.86581     O
O      0.90258  0.65076  0.36581     O
O      0.90258  0.65076  0.63419     O
H       0.9044   0.4212   0.3675     H
H       0.9044   0.4212   0.6325     H
H       0.9044   0.5788   0.1325     H
H       0.9044   0.5788   0.8675     H
O      0.90524  0.27799  0.10286     O
O      0.90524  0.27799  0.89714     O
O      0.90524  0.72201  0.39714     O
O      0.90524  0.72201  0.60286     O
C      0.90983  0.36301  0.39878     C
C      0.90983  0.36301  0.60122     C
C      0.90983  0.63699  0.10122     C
C      0.90983  0.63699  0.89878     C
O       0.9166  0.19567  0.14305     O
O       0.9166  0.19567  0.85695     O
O       0.9166  0.80433  0.35695     O
O       0.9166  0.80433  0.64305     O
C      0.95335   0.2326  0.33498     C
C      0.95335   0.2326  0.66502     C
C      0.95335   0.7674  0.16502     C
C      0.95335   0.7674  0.83498     C
C      0.95982  0.33227  0.38607     C
C      0.95982  0.33227  0.61393     C
C      0.95982  0.66773  0.11393     C
C      0.95982  0.66773  0.88607     C
Cu     0.96064  0.31541  0.15905    Cu
Cu     0.96064  0.31541  0.84095    Cu
Cu     0.96064  0.68459  0.34095    Cu
Cu     0.96064  0.68459  0.65905    Cu
O       0.9665  0.21043   0.3582     O
O       0.9665  0.21043   0.6418     O
O       0.9665  0.78957   0.1418     O
O       0.9665  0.78957   0.8582     O
Cu     0.96961  0.23727  0.11889    Cu
Cu     0.96961  0.23727  0.88111    Cu
Cu     0.96961  0.76273  0.38111    Cu
Cu     0.96961  0.76273  0.61889    Cu
O      0.97797  0.29007  0.39959     O
O      0.97797  0.29007  0.60041     O
O      0.97797  0.70993  0.10041     O
O      0.97797  0.70993  0.89959     O
O      0.97965   0.3512  0.36324     O
O      0.97965   0.3512  0.63676     O
O      0.97965   0.6488  0.13676     O
O      0.97965   0.6488  0.86324     O
O      0.98048  0.27091  0.32248     O
O      0.98048  0.27091  0.67752     O
O      0.98048  0.72909  0.17752     O
O      0.98048  0.72909  0.82248     O
