data_I
_chemical_name_common  '/home/zhangsd/repos/MofS-CGCNN/ML/data/TSD/clean_cifs/LASMAV_neutral'
_cell_length_a 16.36930
_cell_length_b 24.80300
_cell_length_c 24.80300
_cell_angle_alpha 120.00000
_cell_angle_beta  90.00000
_cell_angle_gamma 90.00000
_space_group_name_H-M_alt      'P 1'


loop_
_space_group_symop_operation_xyz
  'x, y, z' 

loop_
_atom_site_label
_atom_site_fract_x
_atom_site_fract_y
_atom_site_fract_z
_atom_site_type_symbol
C       0.0079   0.0574   0.7857     C
C       0.0079   0.2143   0.2717     C
C       0.0079   0.7283   0.9426     C
C       0.0135   0.2362   0.4811     C
C       0.0135   0.2449   0.7638     C
C       0.0135   0.5189   0.7551     C
C       0.0141   0.0651   0.2953     C
C       0.0141   0.2302   0.9349     C
C       0.0141   0.7047   0.7698     C
H       0.0145   0.0995   0.8143     H
H       0.0145   0.1857   0.2852     H
H       0.0145   0.7148   0.9005     H
C       0.0221   0.4392   0.1248     C
C       0.0221   0.6856   0.5608     C
C       0.0221   0.8752   0.3144     C
H       0.0234   0.1069   0.3237     H
H       0.0234   0.2168   0.8931     H
H       0.0234   0.6763   0.7832     H
H       0.0246   0.2078   0.4943     H
H       0.0246   0.2865   0.7922     H
H       0.0246   0.5057   0.7135     H
H       0.0349   0.4254   0.0834     H
H       0.0349    0.658   0.5746     H
H       0.0349   0.9166    0.342     H
C        0.041   0.1512   0.6701     C
C        0.041   0.3299   0.4811     C
C        0.041   0.5189   0.8488     C
C       0.0486   0.4402   0.2159     C
C       0.0486   0.7757   0.5598     C
C       0.0486   0.7841   0.2243     C
C       0.0553   0.2623   0.2144     C
C       0.0553   0.7856   0.0479     C
C       0.0553   0.9521   0.7377     C
C       0.0602   0.2142   0.7108     C
C       0.0602   0.2892   0.5034     C
C       0.0602   0.4966   0.7858     C
N       0.0621    0.288   0.0395     N
N       0.0621   0.7515    0.712     N
N       0.0621   0.9605   0.2485     N
N       0.0655   0.4176   0.1543     N
N       0.0655   0.7367   0.5824     N
N       0.0655   0.8457   0.2633     N
C       0.0678   0.0183    0.781     C
C       0.0678    0.219   0.2373     C
C       0.0678   0.7627   0.9817     C
H       0.0704   0.1279   0.6335     H
H       0.0704   0.3665   0.4944     H
H       0.0704   0.5056   0.8721     H
C        0.072   0.0212   0.2874     C
C        0.072   0.2662   0.9788     C
C        0.072   0.7126   0.7338     C
H       0.0803   0.4273   0.2385     H
H       0.0803   0.7615   0.1888     H
H       0.0803   0.8112   0.5727     H
H       0.1155   0.0328   0.8043     H
H       0.1155   0.1957   0.2285     H
H       0.1155   0.7715   0.9672     H
O       0.1158   0.3131   0.1668     O
O       0.1158   0.8332   0.1463     O
O       0.1158   0.8537   0.6869     O
C       0.1172   0.2657   0.1705     C
C       0.1172   0.8295   0.0952     C
C       0.1172   0.9048   0.7343     C
H       0.1201   0.0347   0.3102     H
H       0.1201   0.2755   0.9653     H
H       0.1201   0.6898   0.7245     H
H       0.1259   0.0426   0.4285     H
H       0.1259   0.3859   0.9574     H
H       0.1259   0.5715   0.6141     H
H       0.1316   0.1355     0.52     H
H       0.1316   0.3845   0.8645     H
H       0.1316     0.48   0.6155     H
C       0.1326   0.2442   0.6975     C
C       0.1326   0.3025   0.5467     C
C       0.1326   0.4533   0.7558     C
O       0.1343   0.1658    0.036     O
O       0.1343   0.8702   0.8342     O
O       0.1343    0.964   0.1298     O
O       0.1504   0.2113   0.1284     O
O       0.1504   0.8716   0.0829     O
O       0.1504   0.9171   0.7887     O
Co     0.15362  0.34345  0.10763    Co
Co     0.15362  0.76418  0.65655    Co
Co     0.15362  0.89237  0.23582    Co
O       0.1555   0.2581   0.5523     O
O       0.1555   0.2942   0.7419     O
O       0.1555   0.4477   0.7058     O
O       0.1583   0.2181   0.6444     O
O       0.1583   0.3556   0.5737     O
O       0.1583   0.4263   0.7819     O
C        0.176   0.0603   0.4458     C
C        0.176   0.3855   0.9397     C
C        0.176   0.5542   0.6145     C
C       0.1803   0.1166   0.5002     C
C       0.1803   0.3836   0.8834     C
C       0.1803   0.4998   0.6164     C
O       0.1815   0.3789   0.0489     O
O       0.1815     0.67   0.6211     O
O       0.1815   0.9511     0.33     O
C         0.25   0.0303    0.417     C
N         0.25    0.146   0.5264     N
Co        0.25  0.20157  0.08008    Co
Co        0.25  0.24182   0.6008    Co
H         0.25   0.2648   0.0305     H
O         0.25   0.2778   0.0693     O
O         0.25  0.33333  0.66666     O
Co        0.25  0.35898  0.75818    Co
N         0.25   0.3804    0.854     N
C         0.25   0.3827   0.0283     C
C         0.25   0.3867   0.9697     C
O         0.25   0.3988    0.174     O
Co        0.25   0.3992  0.64102    Co
H         0.25   0.4095   0.2124     H
N         0.25   0.4736   0.6196     N
C         0.25    0.583   0.6133     C
C         0.25   0.6456   0.6173     C
H         0.25   0.7657   0.7352     H
O         0.25   0.7752   0.6012     O
H         0.25   0.7876   0.1971     H
O         0.25   0.7915   0.7222     O
H         0.25   0.8029   0.5905     H
O         0.25    0.826   0.2248     O
Co        0.25  0.87851  0.79843    Co
Co        0.25  0.91992  0.12149    Co
O         0.25   0.9307   0.2085     O
H         0.25   0.9695   0.2343     H
C         0.25   0.9717   0.3544     C
O       0.3185   0.3789   0.0489     O
O       0.3185     0.67   0.6211     O
O       0.3185   0.9511     0.33     O
C       0.3197   0.1166   0.5002     C
C       0.3197   0.3836   0.8834     C
C       0.3197   0.4998   0.6164     C
C        0.324   0.0603   0.4458     C
C        0.324   0.3855   0.9397     C
C        0.324   0.5542   0.6145     C
O       0.3417   0.2181   0.6444     O
O       0.3417   0.3556   0.5737     O
O       0.3417   0.4263   0.7819     O
O       0.3445   0.2581   0.5523     O
O       0.3445   0.2942   0.7419     O
O       0.3445   0.4477   0.7058     O
Co     0.34638  0.34345  0.10763    Co
Co     0.34638  0.76418  0.65655    Co
Co     0.34638  0.89237  0.23582    Co
O       0.3496   0.2113   0.1284     O
O       0.3496   0.8716   0.0829     O
O       0.3496   0.9171   0.7887     O
O       0.3657   0.1658    0.036     O
O       0.3657   0.8702   0.8342     O
O       0.3657    0.964   0.1298     O
C       0.3674   0.2442   0.6975     C
C       0.3674   0.3025   0.5467     C
C       0.3674   0.4533   0.7558     C
H       0.3684   0.1355     0.52     H
H       0.3684   0.3845   0.8645     H
H       0.3684     0.48   0.6155     H
H       0.3741   0.0426   0.4285     H
H       0.3741   0.3859   0.9574     H
H       0.3741   0.5715   0.6141     H
H       0.3799   0.0347   0.3102     H
H       0.3799   0.2755   0.9653     H
H       0.3799   0.6898   0.7245     H
C       0.3828   0.2657   0.1705     C
C       0.3828   0.8295   0.0952     C
C       0.3828   0.9048   0.7343     C
O       0.3842   0.3131   0.1668     O
O       0.3842   0.8332   0.1463     O
O       0.3842   0.8537   0.6869     O
H       0.3845   0.0328   0.8043     H
H       0.3845   0.1957   0.2285     H
H       0.3845   0.7715   0.9672     H
H       0.4197   0.4273   0.2385     H
H       0.4197   0.7615   0.1888     H
H       0.4197   0.8112   0.5727     H
C        0.428   0.0212   0.2874     C
C        0.428   0.2662   0.9788     C
C        0.428   0.7126   0.7338     C
H       0.4296   0.1279   0.6335     H
H       0.4296   0.3665   0.4944     H
H       0.4296   0.5056   0.8721     H
C       0.4322   0.0183    0.781     C
C       0.4322    0.219   0.2373     C
C       0.4322   0.7627   0.9817     C
N       0.4345   0.4176   0.1543     N
N       0.4345   0.7367   0.5824     N
N       0.4345   0.8457   0.2633     N
N       0.4379    0.288   0.0395     N
N       0.4379   0.7515    0.712     N
N       0.4379   0.9605   0.2485     N
C       0.4398   0.2142   0.7108     C
C       0.4398   0.2892   0.5034     C
C       0.4398   0.4966   0.7858     C
C       0.4447   0.2623   0.2144     C
C       0.4447   0.7856   0.0479     C
C       0.4447   0.9521   0.7377     C
C       0.4514   0.4402   0.2159     C
C       0.4514   0.7757   0.5598     C
C       0.4514   0.7841   0.2243     C
C        0.459   0.1512   0.6701     C
C        0.459   0.3299   0.4811     C
C        0.459   0.5189   0.8488     C
H       0.4651   0.4254   0.0834     H
H       0.4651    0.658   0.5746     H
H       0.4651   0.9166    0.342     H
H       0.4754   0.2078   0.4943     H
H       0.4754   0.2865   0.7922     H
H       0.4754   0.5057   0.7135     H
H       0.4766   0.1069   0.3237     H
H       0.4766   0.2168   0.8931     H
H       0.4766   0.6763   0.7832     H
C       0.4779   0.4392   0.1248     C
C       0.4779   0.6856   0.5608     C
C       0.4779   0.8752   0.3144     C
H       0.4855   0.0995   0.8143     H
H       0.4855   0.1857   0.2852     H
H       0.4855   0.7148   0.9005     H
C       0.4859   0.0651   0.2953     C
C       0.4859   0.2302   0.9349     C
C       0.4859   0.7047   0.7698     C
C       0.4865   0.2362   0.4811     C
C       0.4865   0.2449   0.7638     C
C       0.4865   0.5189   0.7551     C
C       0.4921   0.0574   0.7857     C
C       0.4921   0.2143   0.2717     C
C       0.4921   0.7283   0.9426     C
C       0.5079   0.2717   0.0574     C
C       0.5079   0.7857   0.7283     C
C       0.5079   0.9426   0.2143     C
C       0.5135   0.4811   0.2449     C
C       0.5135   0.7551   0.2362     C
C       0.5135   0.7638   0.5189     C
C       0.5141   0.2953   0.2302     C
C       0.5141   0.7698   0.0651     C
C       0.5141   0.9349   0.7047     C
H       0.5145   0.2852   0.0995     H
H       0.5145   0.8143   0.7148     H
H       0.5145   0.9005   0.1857     H
C       0.5221   0.1248   0.6856     C
C       0.5221   0.3144   0.4392     C
C       0.5221   0.5608   0.8752     C
H       0.5234   0.3237   0.2168     H
H       0.5234   0.7832   0.1069     H
H       0.5234   0.8931   0.6763     H
H       0.5246   0.4943   0.2865     H
H       0.5246   0.7135   0.2078     H
H       0.5246   0.7922   0.5057     H
H       0.5349   0.0834    0.658     H
H       0.5349    0.342   0.4254     H
H       0.5349   0.5746   0.9166     H
C        0.541   0.4811   0.1512     C
C        0.541   0.6701   0.5189     C
C        0.541   0.8488   0.3299     C
C       0.5486   0.2159   0.7757     C
C       0.5486   0.2243   0.4402     C
C       0.5486   0.5598   0.7841     C
C       0.5553   0.0479   0.2623     C
C       0.5553   0.2144   0.9521     C
C       0.5553   0.7377   0.7856     C
C       0.5602   0.5034   0.2142     C
C       0.5602   0.7108   0.4966     C
C       0.5602   0.7858   0.2892     C
N       0.5621   0.0395   0.7515     N
N       0.5621   0.2485    0.288     N
N       0.5621    0.712   0.9605     N
N       0.5655   0.1543   0.7367     N
N       0.5655   0.2633   0.4176     N
N       0.5655   0.5824   0.8457     N
C       0.5678   0.2373   0.0183     C
C       0.5678    0.781   0.7627     C
C       0.5678   0.9817    0.219     C
H       0.5704   0.4944   0.1279     H
H       0.5704   0.6335   0.5056     H
H       0.5704   0.8721   0.3665     H
C        0.572   0.2874   0.2662     C
C        0.572   0.7338   0.0212     C
C        0.572   0.9788   0.7126     C
H       0.5803   0.1888   0.4273     H
H       0.5803   0.2385   0.8112     H
H       0.5803   0.5727   0.7615     H
H       0.6155   0.2285   0.0328     H
H       0.6155   0.8043   0.7715     H
H       0.6155   0.9672   0.1957     H
O       0.6158   0.1463   0.3131     O
O       0.6158   0.1668   0.8537     O
O       0.6158   0.6869   0.8332     O
C       0.6172   0.0952   0.2657     C
C       0.6172   0.1705   0.9048     C
C       0.6172   0.7343   0.8295     C
H       0.6201   0.3102   0.2755     H
H       0.6201   0.7245   0.0347     H
H       0.6201   0.9653   0.6898     H
H       0.6259   0.4285   0.3859     H
H       0.6259   0.6141   0.0426     H
H       0.6259   0.9574   0.5715     H
H       0.6316     0.52   0.3845     H
H       0.6316   0.6155   0.1355     H
H       0.6316   0.8645     0.48     H
C       0.6326   0.5467   0.2442     C
C       0.6326   0.6975   0.4533     C
C       0.6326   0.7558   0.3025     C
O       0.6343    0.036   0.8702     O
O       0.6343   0.1298   0.1658     O
O       0.6343   0.8342    0.964     O
O       0.6504   0.0829   0.2113     O
O       0.6504   0.1284   0.9171     O
O       0.6504   0.7887   0.8716     O
Co     0.65362  0.10763  0.76418    Co
Co     0.65362  0.23582  0.34345    Co
Co     0.65362  0.65655  0.89237    Co
O       0.6555   0.5523   0.2942     O
O       0.6555   0.7058   0.2581     O
O       0.6555   0.7419   0.4477     O
O       0.6583   0.5737   0.2181     O
O       0.6583   0.6444   0.4263     O
O       0.6583   0.7819   0.3556     O
C        0.676   0.4458   0.3855     C
C        0.676   0.6145   0.0603     C
C        0.676   0.9397   0.5542     C
C       0.6803   0.5002   0.3836     C
C       0.6803   0.6164   0.1166     C
C       0.6803   0.8834   0.4998     C
O       0.6815   0.0489     0.67     O
O       0.6815     0.33   0.3789     O
O       0.6815   0.6211   0.9511     O
C         0.75   0.0283   0.6456     C
H         0.75   0.0305   0.7657     H
O         0.75   0.0693   0.7915     O
Co        0.75  0.08008  0.87851    Co
Co        0.75  0.12149  0.20157    Co
O         0.75    0.174   0.7752     O
H         0.75   0.1971   0.4095     H
O         0.75   0.2085   0.2778     O
H         0.75   0.2124   0.8029     H
O         0.75   0.2248   0.3988     O
H         0.75   0.2343   0.2648     H
C         0.75   0.3544   0.3827     C
C         0.75    0.417   0.3867     C
N         0.75   0.5264   0.3804     N
H         0.75   0.5905   0.7876     H
Co        0.75   0.6008  0.35898    Co
O         0.75   0.6012    0.826     O
C         0.75   0.6133   0.0303     C
C         0.75   0.6173   0.9717     C
N         0.75   0.6196    0.146     N
Co        0.75  0.64102  0.24182    Co
O         0.75  0.66667  0.33334     O
O         0.75   0.7222   0.9307     O
H         0.75   0.7352   0.9695     H
Co        0.75  0.75818   0.3992    Co
Co        0.75  0.79843  0.91992    Co
N         0.75    0.854   0.4736     N
C         0.75   0.9697    0.583     C
O       0.8185   0.0489     0.67     O
O       0.8185     0.33   0.3789     O
O       0.8185   0.6211   0.9511     O
C       0.8197   0.5002   0.3836     C
C       0.8197   0.6164   0.1166     C
C       0.8197   0.8834   0.4998     C
C        0.824   0.4458   0.3855     C
C        0.824   0.6145   0.0603     C
C        0.824   0.9397   0.5542     C
O       0.8417   0.5737   0.2181     O
O       0.8417   0.6444   0.4263     O
O       0.8417   0.7819   0.3556     O
O       0.8445   0.5523   0.2942     O
O       0.8445   0.7058   0.2581     O
O       0.8445   0.7419   0.4477     O
Co     0.84638  0.10763  0.76418    Co
Co     0.84638  0.23582  0.34345    Co
Co     0.84638  0.65655  0.89237    Co
O       0.8496   0.0829   0.2113     O
O       0.8496   0.1284   0.9171     O
O       0.8496   0.7887   0.8716     O
O       0.8657    0.036   0.8702     O
O       0.8657   0.1298   0.1658     O
O       0.8657   0.8342    0.964     O
C       0.8674   0.5467   0.2442     C
C       0.8674   0.6975   0.4533     C
C       0.8674   0.7558   0.3025     C
H       0.8684     0.52   0.3845     H
H       0.8684   0.6155   0.1355     H
H       0.8684   0.8645     0.48     H
H       0.8741   0.4285   0.3859     H
H       0.8741   0.6141   0.0426     H
H       0.8741   0.9574   0.5715     H
H       0.8799   0.3102   0.2755     H
H       0.8799   0.7245   0.0347     H
H       0.8799   0.9653   0.6898     H
C       0.8828   0.0952   0.2657     C
C       0.8828   0.1705   0.9048     C
C       0.8828   0.7343   0.8295     C
O       0.8842   0.1463   0.3131     O
O       0.8842   0.1668   0.8537     O
O       0.8842   0.6869   0.8332     O
H       0.8845   0.2285   0.0328     H
H       0.8845   0.8043   0.7715     H
H       0.8845   0.9672   0.1957     H
H       0.9197   0.1888   0.4273     H
H       0.9197   0.2385   0.8112     H
H       0.9197   0.5727   0.7615     H
C        0.928   0.2874   0.2662     C
C        0.928   0.7338   0.0212     C
C        0.928   0.9788   0.7126     C
H       0.9296   0.4944   0.1279     H
H       0.9296   0.6335   0.5056     H
H       0.9296   0.8721   0.3665     H
C       0.9322   0.2373   0.0183     C
C       0.9322    0.781   0.7627     C
C       0.9322   0.9817    0.219     C
N       0.9345   0.1543   0.7367     N
N       0.9345   0.2633   0.4176     N
N       0.9345   0.5824   0.8457     N
N       0.9379   0.0395   0.7515     N
N       0.9379   0.2485    0.288     N
N       0.9379    0.712   0.9605     N
C       0.9398   0.5034   0.2142     C
C       0.9398   0.7108   0.4966     C
C       0.9398   0.7858   0.2892     C
C       0.9447   0.0479   0.2623     C
C       0.9447   0.2144   0.9521     C
C       0.9447   0.7377   0.7856     C
C       0.9514   0.2159   0.7757     C
C       0.9514   0.2243   0.4402     C
C       0.9514   0.5598   0.7841     C
C        0.959   0.4811   0.1512     C
C        0.959   0.6701   0.5189     C
C        0.959   0.8488   0.3299     C
H       0.9651   0.0834    0.658     H
H       0.9651    0.342   0.4254     H
H       0.9651   0.5746   0.9166     H
H       0.9754   0.4943   0.2865     H
H       0.9754   0.7135   0.2078     H
H       0.9754   0.7922   0.5057     H
H       0.9766   0.3237   0.2168     H
H       0.9766   0.7832   0.1069     H
H       0.9766   0.8931   0.6763     H
C       0.9779   0.1248   0.6856     C
C       0.9779   0.3144   0.4392     C
C       0.9779   0.5608   0.8752     C
H       0.9855   0.2852   0.0995     H
H       0.9855   0.8143   0.7148     H
H       0.9855   0.9005   0.1857     H
C       0.9859   0.2953   0.2302     C
C       0.9859   0.7698   0.0651     C
C       0.9859   0.9349   0.7047     C
C       0.9865   0.4811   0.2449     C
C       0.9865   0.7551   0.2362     C
C       0.9865   0.7638   0.5189     C
C       0.9921   0.2717   0.0574     C
C       0.9921   0.7857   0.7283     C
C       0.9921   0.9426   0.2143     C
