data_I
_chemical_name_common  '/home/zhangsd/repos/MofS-CGCNN/ML/data/TSD/clean_cifs/LAZHUR_clean'
_cell_length_a  9.31370
_cell_length_b 10.40630
_cell_length_c 23.88900
_cell_angle_alpha 91.60300
_cell_angle_beta  90.00000
_cell_angle_gamma 90.00000
_space_group_name_H-M_alt      'P 1'


loop_
_space_group_symop_operation_xyz
  'x, y, z' 

loop_
_atom_site_label
_atom_site_fract_x
_atom_site_fract_y
_atom_site_fract_z
_atom_site_type_symbol
H       0.0009   0.3901   0.7098     H
H       0.0009   0.6099   0.7902     H
O        0.019   0.4321  0.81657     O
O        0.019   0.5679  0.68343     O
O       0.0367   0.0477   0.8179     O
O       0.0367   0.9523   0.6821     O
O       0.0418   0.1489  0.18996     O
O       0.0418   0.8511  0.31004     O
C       0.0537    0.039  0.17094     C
C       0.0537    0.961  0.32906     C
C       0.0627   0.4597  0.19991     C
C       0.0627   0.5403  0.30009     C
H       0.0752   0.3643   0.6177     H
H       0.0752   0.6357   0.8823     H
C       0.1139    0.451  0.85798     C
C       0.1139    0.549  0.64202     C
H       0.1236   0.4299   0.1693     H
H       0.1236   0.5701   0.3307     H
H       0.1306   0.1879   0.3721     H
H       0.1306   0.8121   0.1279     H
C       0.1338    0.435  0.61171     C
C       0.1338    0.565  0.88829     C
Co     0.14072      0.0     0.75    Co
C       0.1542      0.5     0.25     C
C       0.1777   0.0012  0.13519     C
C       0.1777   0.9988  0.36481     C
H       0.1811   0.2676   0.8553     H
H       0.1811   0.7324   0.6447     H
H       0.1881   0.3086   0.2672     H
H       0.1881   0.6914   0.2328     H
C       0.1962   0.1259   0.3828     C
C       0.1962   0.8741   0.1172     C
C       0.1967   0.3481   0.8721     C
C       0.1967   0.6519   0.6279     C
H        0.236   0.2147   0.6739     H
H        0.236   0.7853   0.8261     H
C       0.2413   0.4284  0.57282     C
C       0.2413   0.5716  0.92718     C
C       0.2465   0.3855  0.26518     C
C       0.2465   0.6145  0.23482     C
H       0.2535   0.3508   0.5531     H
H       0.2535   0.6492   0.9469     H
O       0.2642   0.3817  0.40783     O
O       0.2642   0.6183  0.09217     O
H       0.2661   0.1771   0.1319     H
H       0.2661   0.8229   0.3681     H
C       0.2771    0.092  0.11973     C
C       0.2771    0.908  0.38027     C
H       0.2921   0.4009   0.3012     H
H       0.2921   0.5991   0.1988     H
N       0.2941     0.14  0.74343     N
N       0.2941     0.86  0.75657     N
C       0.3026   0.3654   0.9112     C
C       0.3026   0.6346   0.5888     C
C        0.309   0.2145  0.70041     C
C        0.309   0.7855  0.79959     C
C       0.3115   0.1609   0.4166     C
C       0.3115   0.8391   0.0834     C
N       0.3297   0.4758  0.93907     N
N       0.3297   0.5242  0.56093     N
C       0.3308   0.3002  0.43415     C
C       0.3308   0.6998  0.06585     C
O       0.3532   0.3703  0.22187     O
O       0.3532   0.6297  0.27813     O
H       0.3601    0.295   0.9191     H
H       0.3601    0.705   0.5809     H
C       0.3932   0.0573  0.08626     C
C       0.3932   0.9427  0.41374     C
H        0.394   0.0904   0.8118     H
H        0.394   0.9096   0.6882     H
C       0.4016    0.143  0.78113     C
C       0.4016    0.857  0.71887     C
C        0.408   0.0687  0.43235     C
C        0.408   0.9313  0.06765     C
H       0.4091   0.2181   0.3048     H
H       0.4091   0.7819   0.1952     H
O       0.4192   0.3241   0.4729     O
O       0.4192   0.6759   0.0271     O
C       0.4259    0.292  0.69224     C
C       0.4259    0.708  0.80776     C
H       0.4316   0.3424   0.6608     H
H       0.4316   0.6576   0.8392     H
H       0.4607   0.1186   0.0764     H
H       0.4607   0.8814   0.4236     H
C       0.4649   0.2941  0.23152     C
C       0.4649   0.7059  0.26848     C
C       0.4793   0.2182  0.27711     C
C       0.4793   0.7818  0.22289     C
H       0.4841   0.0915   0.4558     H
H       0.4841   0.9085   0.0442     H
Co         0.5      0.5     -0.0    Co
Co         0.5      0.5      0.5    Co
H       0.5159   0.0915   0.9558     H
H       0.5159   0.9085   0.5442     H
C       0.5207   0.2182  0.77711     C
C       0.5207   0.7818  0.72289     C
C       0.5351   0.2941  0.73152     C
C       0.5351   0.7059  0.76848     C
H       0.5393   0.1186   0.5764     H
H       0.5393   0.8814   0.9236     H
H       0.5684   0.3424   0.1608     H
H       0.5684   0.6576   0.3392     H
C       0.5741    0.292  0.19224     C
C       0.5741    0.708  0.30776     C
O       0.5808   0.3241   0.9729     O
O       0.5808   0.6759   0.5271     O
H       0.5909   0.2181   0.8048     H
H       0.5909   0.7819   0.6952     H
C        0.592   0.0687  0.93235     C
C        0.592   0.9313  0.56765     C
C       0.5984    0.143  0.28113     C
C       0.5984    0.857  0.21887     C
H        0.606   0.0904   0.3118     H
H        0.606   0.9096   0.1882     H
C       0.6068   0.0573  0.58626     C
C       0.6068   0.9427  0.91374     C
H       0.6399    0.295   0.4191     H
H       0.6399    0.705   0.0809     H
O       0.6468   0.3703  0.72187     O
O       0.6468   0.6297  0.77813     O
C       0.6692   0.3002  0.93415     C
C       0.6692   0.6998  0.56585     C
N       0.6703   0.4758  0.43907     N
N       0.6703   0.5242  0.06093     N
C       0.6885   0.1609   0.9166     C
C       0.6885   0.8391   0.5834     C
C        0.691   0.2145  0.20041     C
C        0.691   0.7855  0.29959     C
C       0.6974   0.3654   0.4112     C
C       0.6974   0.6346   0.0888     C
N       0.7059     0.14  0.24343     N
N       0.7059     0.86  0.25657     N
H       0.7079   0.4009   0.8012     H
H       0.7079   0.5991   0.6988     H
C       0.7229    0.092  0.61973     C
C       0.7229    0.908  0.88027     C
H       0.7339   0.1771   0.6319     H
H       0.7339   0.8229   0.8681     H
O       0.7358   0.3817  0.90783     O
O       0.7358   0.6183  0.59217     O
H       0.7465   0.3508   0.0531     H
H       0.7465   0.6492   0.4469     H
C       0.7535   0.3855  0.76518     C
C       0.7535   0.6145  0.73482     C
C       0.7587   0.4284  0.07282     C
C       0.7587   0.5716  0.42718     C
H        0.764   0.2147   0.1739     H
H        0.764   0.7853   0.3261     H
C       0.8033   0.3481   0.3721     C
C       0.8033   0.6519   0.1279     C
C       0.8038   0.1259   0.8828     C
C       0.8038   0.8741   0.6172     C
H       0.8119   0.3086   0.7672     H
H       0.8119   0.6914   0.7328     H
H       0.8189   0.2676   0.3553     H
H       0.8189   0.7324   0.1447     H
C       0.8223   0.0012  0.63519     C
C       0.8223   0.9988  0.86481     C
C       0.8458      0.5     0.75     C
Co     0.85928      0.0     0.25    Co
C       0.8662    0.435  0.11171     C
C       0.8662    0.565  0.38829     C
H       0.8694   0.1879   0.8721     H
H       0.8694   0.8121   0.6279     H
H       0.8764   0.4299   0.6693     H
H       0.8764   0.5701   0.8307     H
C       0.8861    0.451  0.35798     C
C       0.8861    0.549  0.14202     C
H       0.9248   0.3643   0.1177     H
H       0.9248   0.6357   0.3823     H
C       0.9373   0.4597  0.69991     C
C       0.9373   0.5403  0.80009     C
C       0.9463    0.039  0.67094     C
C       0.9463    0.961  0.82906     C
O       0.9582   0.1489  0.68996     O
O       0.9582   0.8511  0.81004     O
O       0.9633   0.0477   0.3179     O
O       0.9633   0.9523   0.1821     O
O        0.981   0.4321  0.31657     O
O        0.981   0.5679  0.18343     O
H       0.9991   0.3901   0.2098     H
H       0.9991   0.6099   0.2902     H
