data_I
_chemical_name_common  '/home/zhangsd/repos/MofS-CGCNN/ML/data/TSD/clean_cifs/LAZJIH_clean'
_cell_length_a 16.19360
_cell_length_b 16.19360
_cell_length_c 29.88400
_cell_angle_alpha 90.00000
_cell_angle_beta  90.00000
_cell_angle_gamma 90.00000
_space_group_name_H-M_alt      'P 1'


loop_
_space_group_symop_operation_xyz
  'x, y, z' 

loop_
_atom_site_label
_atom_site_fract_x
_atom_site_fract_y
_atom_site_fract_z
_atom_site_type_symbol
C        0.013   0.0079  0.79035     C
C        0.013   0.4921  0.29035     C
C        0.013   0.5079  0.20965     C
C        0.013   0.9921  0.70965     C
C       0.0549      0.0     0.75     C
C       0.0549      0.5     0.25     C
O      0.05651  0.08923  0.85205     O
O      0.05651  0.41077  0.35205     O
O      0.05651  0.58923  0.14795     O
O      0.05651  0.91077  0.64795     O
C       0.0665   0.0249  0.83104     C
C       0.0665   0.4751  0.33104     C
C       0.0665   0.5249  0.16896     C
C       0.0665   0.9751  0.66896     C
C       0.0734    0.007  0.29037     C
C       0.0734    0.493  0.79037     C
C       0.0734    0.507  0.70963     C
C       0.0734    0.993  0.20963     C
O      0.09303  0.00656  0.13116     O
O      0.09303  0.49344  0.63116     O
O      0.09303  0.50656  0.86884     O
O      0.09303  0.99344  0.36884     O
H       0.1123      0.0     0.75     H
H       0.1123      0.5     0.25     H
C       0.1125      0.0     0.25     C
C       0.1125      0.5     0.75     C
O       0.1212  0.02982  0.66127     O
O       0.1212  0.47018  0.16127     O
O       0.1212  0.52982  0.33873     O
O       0.1212  0.97018  0.83873     O
C      0.12396  0.00849  0.33238     C
C      0.12396  0.49151  0.83238     C
C      0.12396  0.50849  0.66762     C
C      0.12396  0.99151  0.16762     C
O      0.16077  0.19349  0.39795     O
O      0.16077  0.30651  0.89795     O
O      0.16077  0.69349  0.60205     O
O      0.16077  0.80651  0.10205     O
H       0.1699      0.0     0.25     H
H       0.1699      0.5     0.75     H
O          0.2  0.02539  0.32609     O
O          0.2  0.47461  0.82609     O
O          0.2  0.52539  0.67391     O
O          0.2  0.97461  0.17391     O
O      0.22018   0.1288  0.58873     O
O      0.22018   0.3712  0.08873     O
O      0.22018   0.6288  0.41127     O
O      0.22018   0.8712  0.91127     O
Zn     0.22251  0.02749    0.625    Zn
Zn     0.22251  0.47251    0.125    Zn
Zn     0.22251  0.52749    0.375    Zn
Zn     0.22251  0.97251    0.875    Zn
O      0.22461     0.05  0.92391     O
O      0.22461     0.45  0.42391     O
O      0.22461     0.55  0.07609     O
O      0.22461     0.95  0.57609     O
C       0.2251   0.1835  0.41896     C
C       0.2251   0.3165  0.91896     C
C       0.2251   0.6835  0.58104     C
C       0.2251   0.8165  0.08104     C
C      0.24151  0.12604  0.91762     C
C      0.24151  0.37396  0.41762     C
C      0.24151  0.62604  0.08238     C
C      0.24151  0.87396  0.58238     C
C       0.2421    0.237  0.45965     C
C       0.2421    0.263  0.95965     C
C       0.2421    0.737  0.54035     C
C       0.2421    0.763  0.04035     C
C        0.243   0.1766  0.95963     C
C        0.243   0.3234  0.45963     C
C        0.243   0.6766  0.04037     C
C        0.243   0.8234  0.54037     C
O      0.24344  0.15697  0.11884     O
O      0.24344  0.34303  0.61884     O
O      0.24344  0.65697  0.88116     O
O      0.24344  0.84303  0.38116     O
H         0.25   0.0801      0.0     H
C         0.25   0.1375      0.0     C
H         0.25   0.1377      0.5     H
C         0.25   0.1951      0.5     C
C         0.25   0.3049      0.0     C
H         0.25   0.3623      0.0     H
C         0.25   0.3625      0.5     C
H         0.25   0.4199      0.5     H
H         0.25   0.5801      0.0     H
C         0.25   0.6375      0.0     C
H         0.25   0.6377      0.5     H
C         0.25   0.6951      0.5     C
C         0.25   0.8049      0.0     C
H         0.25   0.8623      0.0     H
C         0.25   0.8625      0.5     C
H         0.25   0.9199      0.5     H
O      0.25656  0.15697  0.88116     O
O      0.25656  0.34303  0.38116     O
O      0.25656  0.65697  0.11884     O
O      0.25656  0.84303  0.61884     O
C        0.257   0.1766  0.04037     C
C        0.257   0.3234  0.54037     C
C        0.257   0.6766  0.95963     C
C        0.257   0.8234  0.45963     C
C       0.2579    0.237  0.54035     C
C       0.2579    0.263  0.04035     C
C       0.2579    0.737  0.45965     C
C       0.2579    0.763  0.95965     C
C      0.25849  0.12604  0.08238     C
C      0.25849  0.37396  0.58238     C
C      0.25849  0.62604  0.91762     C
C      0.25849  0.87396  0.41762     C
C       0.2749   0.1835  0.58104     C
C       0.2749   0.3165  0.08104     C
C       0.2749   0.6835  0.41896     C
C       0.2749   0.8165  0.91896     C
O      0.27539     0.05  0.07609     O
O      0.27539     0.45  0.57609     O
O      0.27539     0.55  0.92391     O
O      0.27539     0.95  0.42391     O
Zn     0.27749  0.02749    0.375    Zn
Zn     0.27749  0.47251    0.875    Zn
Zn     0.27749  0.52749    0.625    Zn
Zn     0.27749  0.97251    0.125    Zn
O      0.27982   0.1288  0.41127     O
O      0.27982   0.3712  0.91127     O
O      0.27982   0.6288  0.58873     O
O      0.27982   0.8712  0.08873     O
O          0.3  0.02539  0.67391     O
O          0.3  0.47461  0.17391     O
O          0.3  0.52539  0.32609     O
O          0.3  0.97461  0.82609     O
H       0.3301      0.0     0.75     H
H       0.3301      0.5     0.25     H
O      0.33923  0.19349  0.60205     O
O      0.33923  0.30651  0.10205     O
O      0.33923  0.69349  0.39795     O
O      0.33923  0.80651  0.89795     O
C      0.37604  0.00849  0.66762     C
C      0.37604  0.49151  0.16762     C
C      0.37604  0.50849  0.33238     C
C      0.37604  0.99151  0.83238     C
O       0.3788  0.02982  0.33873     O
O       0.3788  0.47018  0.83873     O
O       0.3788  0.52982  0.66127     O
O       0.3788  0.97018  0.16127     O
C       0.3875      0.0     0.75     C
C       0.3875      0.5     0.25     C
H       0.3877      0.0     0.25     H
H       0.3877      0.5     0.75     H
O      0.40697  0.00656  0.86884     O
O      0.40697  0.49344  0.36884     O
O      0.40697  0.50656  0.13116     O
O      0.40697  0.99344  0.63116     O
C       0.4266    0.007  0.70963     C
C       0.4266    0.493  0.20963     C
C       0.4266    0.507  0.29037     C
C       0.4266    0.993  0.79037     C
C       0.4335   0.0249  0.16896     C
C       0.4335   0.4751  0.66896     C
C       0.4335   0.5249  0.83104     C
C       0.4335   0.9751  0.33104     C
O      0.44349  0.08923  0.14795     O
O      0.44349  0.41077  0.64795     O
O      0.44349  0.58923  0.85205     O
O      0.44349  0.91077  0.35205     O
C       0.4451      0.0     0.25     C
C       0.4451      0.5     0.75     C
C        0.487   0.0079  0.20965     C
C        0.487   0.4921  0.70965     C
C        0.487   0.5079  0.79035     C
C        0.487   0.9921  0.29035     C
C        0.513   0.0079  0.70965     C
C        0.513   0.4921  0.20965     C
C        0.513   0.5079  0.29035     C
C        0.513   0.9921  0.79035     C
C       0.5549      0.0     0.75     C
C       0.5549      0.5     0.25     C
O      0.55651  0.08923  0.64795     O
O      0.55651  0.41077  0.14795     O
O      0.55651  0.58923  0.35205     O
O      0.55651  0.91077  0.85205     O
C       0.5665   0.0249  0.66896     C
C       0.5665   0.4751  0.16896     C
C       0.5665   0.5249  0.33104     C
C       0.5665   0.9751  0.83104     C
C       0.5734    0.007  0.20963     C
C       0.5734    0.493  0.70963     C
C       0.5734    0.507  0.79037     C
C       0.5734    0.993  0.29037     C
O      0.59303  0.00656  0.36884     O
O      0.59303  0.49344  0.86884     O
O      0.59303  0.50656  0.63116     O
O      0.59303  0.99344  0.13116     O
H       0.6123      0.0     0.75     H
H       0.6123      0.5     0.25     H
C       0.6125      0.0     0.25     C
C       0.6125      0.5     0.75     C
O       0.6212  0.02982  0.83873     O
O       0.6212  0.47018  0.33873     O
O       0.6212  0.52982  0.16127     O
O       0.6212  0.97018  0.66127     O
C      0.62396  0.00849  0.16762     C
C      0.62396  0.49151  0.66762     C
C      0.62396  0.50849  0.83238     C
C      0.62396  0.99151  0.33238     C
O      0.66077  0.19349  0.10205     O
O      0.66077  0.30651  0.60205     O
O      0.66077  0.69349  0.89795     O
O      0.66077  0.80651  0.39795     O
H       0.6699      0.0     0.25     H
H       0.6699      0.5     0.75     H
O          0.7  0.02539  0.17391     O
O          0.7  0.47461  0.67391     O
O          0.7  0.52539  0.82609     O
O          0.7  0.97461  0.32609     O
O      0.72018   0.1288  0.91127     O
O      0.72018   0.3712  0.41127     O
O      0.72018   0.6288  0.08873     O
O      0.72018   0.8712  0.58873     O
Zn     0.72251  0.02749    0.875    Zn
Zn     0.72251  0.47251    0.375    Zn
Zn     0.72251  0.52749    0.125    Zn
Zn     0.72251  0.97251    0.625    Zn
O      0.72461     0.05  0.57609     O
O      0.72461     0.45  0.07609     O
O      0.72461     0.55  0.42391     O
O      0.72461     0.95  0.92391     O
C       0.7251   0.1835  0.08104     C
C       0.7251   0.3165  0.58104     C
C       0.7251   0.6835  0.91896     C
C       0.7251   0.8165  0.41896     C
C      0.74151  0.12604  0.58238     C
C      0.74151  0.37396  0.08238     C
C      0.74151  0.62604  0.41762     C
C      0.74151  0.87396  0.91762     C
C       0.7421    0.237  0.04035     C
C       0.7421    0.263  0.54035     C
C       0.7421    0.737  0.95965     C
C       0.7421    0.763  0.45965     C
C        0.743   0.1766  0.54037     C
C        0.743   0.3234  0.04037     C
C        0.743   0.6766  0.45963     C
C        0.743   0.8234  0.95963     C
O      0.74344  0.15697  0.38116     O
O      0.74344  0.34303  0.88116     O
O      0.74344  0.65697  0.61884     O
O      0.74344  0.84303  0.11884     O
H         0.75   0.0801      0.5     H
C         0.75   0.1375      0.5     C
H         0.75   0.1377      0.0     H
C         0.75   0.1951      0.0     C
C         0.75   0.3049      0.5     C
H         0.75   0.3623      0.5     H
C         0.75   0.3625      0.0     C
H         0.75   0.4199      0.0     H
H         0.75   0.5801      0.5     H
C         0.75   0.6375      0.5     C
H         0.75   0.6377      0.0     H
C         0.75   0.6951      0.0     C
C         0.75   0.8049      0.5     C
H         0.75   0.8623      0.5     H
C         0.75   0.8625      0.0     C
H         0.75   0.9199      0.0     H
O      0.75656  0.15697  0.61884     O
O      0.75656  0.34303  0.11884     O
O      0.75656  0.65697  0.38116     O
O      0.75656  0.84303  0.88116     O
C        0.757   0.1766  0.45963     C
C        0.757   0.3234  0.95963     C
C        0.757   0.6766  0.54037     C
C        0.757   0.8234  0.04037     C
C       0.7579    0.237  0.95965     C
C       0.7579    0.263  0.45965     C
C       0.7579    0.737  0.04035     C
C       0.7579    0.763  0.54035     C
C      0.75849  0.12604  0.41762     C
C      0.75849  0.37396  0.91762     C
C      0.75849  0.62604  0.58238     C
C      0.75849  0.87396  0.08238     C
C       0.7749   0.1835  0.91896     C
C       0.7749   0.3165  0.41896     C
C       0.7749   0.6835  0.08104     C
C       0.7749   0.8165  0.58104     C
O      0.77539     0.05  0.42391     O
O      0.77539     0.45  0.92391     O
O      0.77539     0.55  0.57609     O
O      0.77539     0.95  0.07609     O
Zn     0.77749  0.02749    0.125    Zn
Zn     0.77749  0.47251    0.625    Zn
Zn     0.77749  0.52749    0.875    Zn
Zn     0.77749  0.97251    0.375    Zn
O      0.77982   0.1288  0.08873     O
O      0.77982   0.3712  0.58873     O
O      0.77982   0.6288  0.91127     O
O      0.77982   0.8712  0.41127     O
O          0.8  0.02539  0.82609     O
O          0.8  0.47461  0.32609     O
O          0.8  0.52539  0.17391     O
O          0.8  0.97461  0.67391     O
H       0.8301      0.0     0.75     H
H       0.8301      0.5     0.25     H
O      0.83923  0.19349  0.89795     O
O      0.83923  0.30651  0.39795     O
O      0.83923  0.69349  0.10205     O
O      0.83923  0.80651  0.60205     O
C      0.87604  0.00849  0.83238     C
C      0.87604  0.49151  0.33238     C
C      0.87604  0.50849  0.16762     C
C      0.87604  0.99151  0.66762     C
O       0.8788  0.02982  0.16127     O
O       0.8788  0.47018  0.66127     O
O       0.8788  0.52982  0.83873     O
O       0.8788  0.97018  0.33873     O
C       0.8875      0.0     0.75     C
C       0.8875      0.5     0.25     C
H       0.8877      0.0     0.25     H
H       0.8877      0.5     0.75     H
O      0.90697  0.00656  0.63116     O
O      0.90697  0.49344  0.13116     O
O      0.90697  0.50656  0.36884     O
O      0.90697  0.99344  0.86884     O
C       0.9266    0.007  0.79037     C
C       0.9266    0.493  0.29037     C
C       0.9266    0.507  0.20963     C
C       0.9266    0.993  0.70963     C
C       0.9335   0.0249  0.33104     C
C       0.9335   0.4751  0.83104     C
C       0.9335   0.5249  0.66896     C
C       0.9335   0.9751  0.16896     C
O      0.94349  0.08923  0.35205     O
O      0.94349  0.41077  0.85205     O
O      0.94349  0.58923  0.64795     O
O      0.94349  0.91077  0.14795     O
C       0.9451      0.0     0.25     C
C       0.9451      0.5     0.75     C
C        0.987   0.0079  0.29035     C
C        0.987   0.4921  0.79035     C
C        0.987   0.5079  0.70965     C
C        0.987   0.9921  0.20965     C
