data_I
_chemical_name_common  '/home/zhangsd/repos/MofS-CGCNN/ML/data/TSD/clean_cifs/LAZJAZ_SL'
_cell_length_a  9.00560
_cell_length_b 10.72630
_cell_length_c 12.98990
_cell_angle_alpha 104.04700
_cell_angle_beta  90.00000
_cell_angle_gamma 90.00000
_space_group_name_H-M_alt      'P 1'


loop_
_space_group_symop_operation_xyz
  'x, y, z' 

loop_
_atom_site_label
_atom_site_fract_x
_atom_site_fract_y
_atom_site_fract_z
_atom_site_type_symbol
C       0.0125   0.2687   0.9475     C
C       0.0125   0.7313   0.0525     C
O       0.0139   0.1721   0.5402     O
O       0.0139   0.8279   0.4598     O
C       0.0183   0.2116   0.0303     C
C       0.0183   0.7884   0.9697     C
O       0.0294     0.35   0.3527     O
O       0.0294     0.65   0.6473     O
H      0.04992  0.74251  0.70593     H
C       0.0683   0.4275   0.6329     C
C       0.0683   0.5725   0.3671     C
H        0.089   0.2576   0.8979     H
H        0.089   0.7424   0.1021     H
C       0.1041   0.1914   0.6168     C
C       0.1041   0.8086   0.3832     C
C       0.1047   0.4451   0.3235     C
C       0.1047   0.5549   0.6765     C
O       0.1289   0.1367   0.0487     O
O       0.1289   0.8633   0.9513     O
C       0.1454   0.3308   0.6637     C
C       0.1454   0.6692   0.3363     C
O       0.1535   0.1091   0.6546     O
O       0.1535   0.8909   0.3454     O
H       0.2003   0.0709   0.9017     H
H       0.2003   0.9291   0.0983     H
C       0.2159   0.4178   0.2491     C
C       0.2159   0.5822   0.7509     C
H       0.2377   0.3324   0.2174     H
H       0.2377   0.6676   0.7826     H
C       0.2433   0.1032   0.9715     C
C       0.2433   0.8968   0.0285     C
C       0.2591    0.361   0.7361     C
C       0.2591    0.639   0.2639     C
C       0.2957   0.4876   0.7798     C
C       0.2957   0.5124   0.2202     C
H       0.3026   0.1784   0.9703     H
H       0.3026   0.8216   0.0297     H
H       0.3115   0.2957   0.7557     H
H       0.3115   0.7043   0.2443     H
C        0.341     -0.0     -0.0     C
H       0.3773   0.1081   0.1534     H
H       0.3773   0.8919   0.8466     H
C       0.4217   0.4765   0.1433     C
C       0.4217   0.5235   0.8567     C
C       0.4376   0.0589   0.0958     C
C       0.4376   0.9411   0.9042     C
O        0.444   0.3649   0.0987     O
O        0.444   0.6351   0.9013     O
O       0.5035   0.4332    0.872     O
O       0.5035   0.5668    0.128     O
O       0.5062   0.0455   0.8742     O
O       0.5062   0.9545   0.1258     O
H       0.5117   0.1153   0.0773     H
H       0.5117   0.8847   0.9227     H
C       0.5963   0.0253   0.7904     C
C       0.5963   0.9747   0.2096     C
H       0.6028     0.17   0.2563     H
H       0.6028     0.83   0.7437     H
Zn     0.61926      0.5      1.0    Zn
H       0.6195   0.2125   0.7987     H
H       0.6195   0.7875   0.2013     H
C       0.6408   0.0949   0.2698     C
C       0.6408   0.9051   0.7302     C
C       0.6487   0.1308   0.7616     C
C       0.6487   0.8692   0.2384     C
H       0.7077   0.3192    0.134     H
H       0.7077   0.6808    0.866     H
C       0.7422   0.0993   0.3494     C
C       0.7422   0.9007   0.6506     C
C       0.7432   0.1164   0.6791     C
C       0.7432   0.8836   0.3209     C
H       0.7745   0.1899   0.6593     H
H       0.7745   0.8101   0.3407     H
H       0.7758   0.1795   0.3868     H
H       0.7758   0.8205   0.6132     H
N       0.7795   0.3644   0.0062     N
N       0.7795   0.6356   0.9938     N
C       0.7857   0.3068   0.0857     C
C       0.7857   0.6932   0.9143     C
N       0.7948   0.0024   0.6238     N
N       0.7948   0.9976   0.3762     N
H       0.8879    0.381   0.8817     H
H       0.8879    0.619   0.1183     H
C       0.8914   0.3431   0.9389     C
C       0.8914   0.6569   0.0611     C
H       0.9003   0.1912   0.1561     H
H       0.9003   0.8088   0.8439     H
C       0.9011   0.2304   0.0996     C
C       0.9011   0.7696   0.9004     C
Zn     0.93446     -0.0      0.5    Zn
H      0.96771  0.39052   0.4273     H
H       0.9924    0.407   0.5831     H
H       0.9924    0.593   0.4169     H
