data_I
_chemical_name_common  '/home/zhangsd/repos/MofS-CGCNN/ML/data/TSD/clean_cifs/LECFEG_clean'
_cell_length_a 22.33260
_cell_length_b 22.33260
_cell_length_c 22.33260
_cell_angle_alpha 109.47100
_cell_angle_beta  109.47100
_cell_angle_gamma 109.47100
_space_group_name_H-M_alt      'P 1'


loop_
_space_group_symop_operation_xyz
  'x, y, z' 

loop_
_atom_site_label
_atom_site_fract_x
_atom_site_fract_y
_atom_site_fract_z
_atom_site_type_symbol
H          0.0      0.0   0.4836     H
O          0.0      0.0  0.52074     O
Se         0.0      0.0   0.6688    Se
O          0.0      0.0  0.74238     O
N          0.0  0.22468  0.61082     N
C          0.0  0.29573  0.63507     C
H          0.0   0.2992    0.727     H
H          0.0   0.3062   0.5476     H
C          0.0  0.32371  0.69949     C
C          0.0  0.32814  0.59206     C
C          0.0  0.39034   0.7233     C
O          0.0  0.39167  0.83273     O
C          0.0  0.39305  0.61595     C
O          0.0  0.40397  0.51315     O
C          0.0   0.4232   0.7942     C
C          0.0  0.42628  0.68332     C
C          0.0  0.43424  0.57336     C
Cu         0.0  0.44843  0.44843    Cu
H          0.0   0.4714   0.6998     H
H          0.0   0.4836     -0.0     H
O          0.0  0.48445  0.81483     O
O          0.0   0.4927  0.59996     O
O          0.0  0.51315  0.40397     O
Cu         0.0  0.51319  0.90763    Cu
O          0.0  0.52074      0.0     O
H          0.0   0.5476   0.3062     H
Cu         0.0  0.55157  0.55157    Cu
C          0.0  0.57336  0.43424     C
C          0.0  0.59206  0.32814     C
O          0.0  0.59996   0.4927     O
N          0.0  0.61082  0.22468     N
C          0.0  0.61595  0.39305     C
O          0.0  0.61984  0.92724     O
C          0.0  0.63507  0.29573     C
Se         0.0   0.6688      0.0    Se
C          0.0  0.68332  0.42628     C
C          0.0  0.69949  0.32371     C
H          0.0   0.6998   0.4714     H
C          0.0   0.7233  0.39034     C
H          0.0    0.727   0.2992     H
O          0.0  0.74238      0.0     O
C          0.0   0.7942   0.4232     C
O          0.0  0.81483  0.48445     O
O          0.0  0.83273  0.39167     O
Cu         0.0  0.90763  0.51319    Cu
O          0.0  0.92724  0.61984     O
N      0.03711   0.1462  0.59855     N
N      0.03711  0.59855   0.1462     N
C      0.06033  0.21679  0.63066     C
C      0.06033  0.63066  0.21679     C
O      0.07276  0.07276   0.6926     O
O      0.07276   0.6926  0.07276     O
Cu     0.09237  0.09237  0.60556    Cu
Cu     0.09237  0.60556  0.09237    Cu
O      0.10726   0.5073   0.5073     O
N      0.10909  0.56144  0.96289     N
N      0.10909  0.96289  0.56144     N
O      0.10918  0.59603  0.59603     O
H       0.1099   0.2552   0.6619     H
H       0.1099   0.6619   0.2552     H
C      0.13912  0.56576  0.56576     C
H       0.1453    0.552   0.8901     H
H       0.1453   0.8901    0.552     H
N       0.1462  0.03711  0.59855     N
N       0.1462  0.59855  0.03711     N
C      0.15646  0.57033  0.93967     C
C      0.15646  0.93967  0.57033     C
O      0.16727  0.16727  0.55894     O
O      0.16727  0.55894  0.16727     O
O      0.18517  0.18517  0.66962     O
O      0.18517  0.66962  0.18517     O
C       0.2058   0.2058    0.629     C
C       0.2058    0.629   0.2058     C
C      0.21679  0.06033  0.63066     C
C      0.21679  0.63066  0.06033     C
C       0.2229  0.60695  0.60695     C
N      0.22468      0.0  0.61082     N
N      0.22468  0.61082      0.0     N
H       0.2284   0.5286   0.5286     H
H       0.2414   0.6938   0.6938     H
H       0.2552   0.1099   0.6619     H
H       0.2552   0.6619   0.1099     H
C      0.25704  0.57372  0.57372     C
O      0.25762  0.25762  0.25762     O
C      0.26392  0.67186  0.67186     C
H        0.273    0.273   0.5722     H
H        0.273   0.5722    0.273     H
C       0.2767   0.2767  0.66704     C
C       0.2767  0.66704   0.2767     C
C      0.29573      0.0  0.63507     C
C      0.29573  0.63507      1.0     C
H       0.2992      0.0    0.727     H
H       0.2992    0.727      0.0     H
H       0.3002   0.3002   0.7716     H
H       0.3002   0.7716   0.3002     H
C      0.30051  0.30051  0.62422     C
C      0.30051  0.62422  0.30051     C
H       0.3062      0.0   0.5476     H
H       0.3062   0.5476      0.0     H
O       0.3074  0.38016  0.38016     O
C      0.31668  0.31668  0.74296     C
C      0.31668  0.74296  0.31668     C
C      0.32371      0.0  0.69949     C
C      0.32371  0.69949      1.0     C
C      0.32814      0.0  0.59206     C
C      0.32814  0.59206     -0.0     C
O      0.33038  0.51555  0.51555     O
Se      0.3312   0.3312   0.3312    Se
C      0.33296  0.60966  0.60966     C
H       0.3381    0.448   0.5933     H
H       0.3381   0.5933    0.448     H
C      0.33934  0.70427  0.70427     C
C      0.36493  0.36493  0.66066     C
C      0.36493  0.66066  0.36493     C
C      0.36934  0.42967  0.58613     C
C      0.36934  0.58613  0.42967     C
C        0.371   0.5768   0.5768     C
C      0.37578  0.67629  0.67629     C
O      0.38016   0.3074  0.38016     O
O      0.38016  0.38016   0.3074     O
C      0.38405  0.38405   0.7771     C
C      0.38405   0.7771  0.38405     C
N      0.38614  0.77532  0.77532     N
N      0.38918  0.38918  0.61386     N
N      0.38918  0.61386  0.38918     N
C      0.39034      0.0   0.7233     C
C      0.39034   0.7233     -0.0     C
O      0.39167  0.83273      0.0     O
O      0.39167      1.0  0.83273     O
C      0.39305     -0.0  0.61595     C
C      0.39305  0.61595     -0.0     C
Cu     0.39444  0.48681  0.48681    Cu
O      0.40004  0.40004  0.89274     O
O      0.40004  0.89274  0.40004     O
N      0.40145  0.43856  0.54765     N
N      0.40145  0.54765  0.43856     N
O      0.40397      0.0  0.51315     O
O      0.40397  0.51315      0.0     O
H       0.4067   0.7448   0.8547     H
H       0.4067   0.8547   0.7448     H
C      0.40794  0.40794  0.73608     C
C      0.40794  0.73608  0.40794     C
C      0.41387  0.78321  0.84354     C
C      0.41387  0.84354  0.78321     C
C       0.4232      0.0   0.7942     C
C       0.4232   0.7942      0.0     C
C      0.42628      0.0  0.68332     C
C      0.42628  0.68332     -0.0     C
C      0.42664  0.42664  0.86088     C
C      0.42664  0.86088  0.42664     C
H       0.4278   0.7008   0.7008     H
C      0.42967  0.36934  0.58613     C
C      0.42967  0.58613  0.36934     C
C      0.43424      0.0  0.57336     C
C      0.43424  0.57336      0.0     C
N      0.43856  0.40145  0.54765     N
N      0.43856  0.54765  0.40145     N
O      0.44106  0.60833  0.60833     O
H        0.448   0.3381   0.5933     H
H        0.448   0.5933   0.3381     H
Cu     0.44843      0.0  0.44843    Cu
Cu     0.44843  0.44843      0.0    Cu
N      0.45235   0.8538  0.89091     N
N      0.45235  0.89091   0.8538     N
H       0.4524   0.4524   0.7586     H
H       0.4524   0.7586   0.4524     H
H       0.4714      0.0   0.6998     H
H       0.4714   0.6998      1.0     H
O      0.47926  0.47926  0.47926     O
H       0.4836      0.0      0.0     H
O      0.48445      0.0  0.81483     O
O      0.48445  0.81483      0.0     O
Cu     0.48681  0.39444  0.48681    Cu
Cu     0.48681  0.48681  0.39444    Cu
O      0.48685  0.48685  0.89082     O
O      0.48685  0.89082  0.48685     O
O       0.4927      0.0  0.59996     O
O       0.4927  0.59996      0.0     O
O       0.5073  0.10726   0.5073     O
O       0.5073   0.5073  0.10726     O
O      0.51315      0.0  0.40397     O
O      0.51315  0.40397      1.0     O
Cu     0.51319      0.0  0.90763    Cu
Cu     0.51319  0.90763     -0.0    Cu
O      0.51555  0.33038  0.51555     O
O      0.51555  0.51555  0.33038     O
H       0.5164   0.5164   0.5164     H
O      0.52074      0.0      0.0     O
H       0.5286   0.2284   0.5286     H
H       0.5286   0.5286   0.2284     H
H       0.5476      0.0   0.3062     H
H       0.5476   0.3062     -0.0     H
N      0.54765  0.40145  0.43856     N
N      0.54765  0.43856  0.40145     N
Cu     0.55157      0.0  0.55157    Cu
Cu     0.55157  0.55157      0.0    Cu
H        0.552   0.1453   0.8901     H
H        0.552   0.8901   0.1453     H
O      0.55894  0.16727  0.16727     O
N      0.56144  0.10909  0.96289     N
N      0.56144  0.96289  0.10909     N
C      0.56576  0.13912  0.56576     C
C      0.56576  0.56576  0.13912     C
C      0.57033  0.15646  0.93967     C
C      0.57033  0.93967  0.15646     C
H       0.5722    0.273    0.273     H
C      0.57336      0.0  0.43424     C
C      0.57336  0.43424      0.0     C
C      0.57372  0.25704  0.57372     C
C      0.57372  0.57372  0.25704     C
C       0.5768    0.371   0.5768     C
C       0.5768   0.5768    0.371     C
C      0.58613  0.36934  0.42967     C
C      0.58613  0.42967  0.36934     C
C      0.59206      0.0  0.32814     C
C      0.59206  0.32814      0.0     C
H       0.5933   0.3381    0.448     H
H       0.5933    0.448   0.3381     H
O      0.59603  0.10918  0.59603     O
O      0.59603  0.59603  0.10918     O
N      0.59855  0.03711   0.1462     N
N      0.59855   0.1462  0.03711     N
O      0.59996      0.0   0.4927     O
O      0.59996   0.4927     -0.0     O
Cu     0.60556  0.09237  0.09237    Cu
C      0.60695   0.2229  0.60695     C
C      0.60695  0.60695   0.2229     C
O      0.60833  0.44106  0.60833     O
O      0.60833  0.60833  0.44106     O
C      0.60966  0.33296  0.60966     C
C      0.60966  0.60966  0.33296     C
N      0.61082      0.0  0.22468     N
N      0.61082  0.22468      1.0     N
N      0.61386  0.38918  0.38918     N
C      0.61595      0.0  0.39305     C
C      0.61595  0.39305      0.0     C
O      0.61984      0.0  0.92724     O
O      0.61984  0.92724      0.0     O
C      0.62422  0.30051  0.30051     C
C        0.629   0.2058   0.2058     C
C      0.63066  0.06033  0.21679     C
C      0.63066  0.21679  0.06033     C
C      0.63507      0.0  0.29573     C
C      0.63507  0.29573     -0.0     C
C      0.66066  0.36493  0.36493     C
H       0.6619   0.1099   0.2552     H
H       0.6619   0.2552   0.1099     H
C      0.66704   0.2767   0.2767     C
Se      0.6688      0.0      0.0    Se
O      0.66962  0.18517  0.18517     O
C      0.67186  0.26392  0.67186     C
C      0.67186  0.67186  0.26392     C
C      0.67629  0.37578  0.67629     C
C      0.67629  0.67629  0.37578     C
C      0.68332      0.0  0.42628     C
C      0.68332  0.42628      0.0     C
O       0.6926  0.07276  0.07276     O
H       0.6938   0.2414   0.6938     H
H       0.6938   0.6938   0.2414     H
C      0.69949      0.0  0.32371     C
C      0.69949  0.32371      0.0     C
H       0.6998   0.4714      0.0     H
H       0.6998      1.0   0.4714     H
H       0.7008   0.4278   0.7008     H
H       0.7008   0.7008   0.4278     H
C      0.70427  0.33934  0.70427     C
C      0.70427  0.70427  0.33934     C
C       0.7233      0.0  0.39034     C
C       0.7233  0.39034      0.0     C
H        0.727      0.0   0.2992     H
H        0.727   0.2992     -0.0     H
C      0.73608  0.40794  0.40794     C
O      0.74238      0.0      0.0     O
C      0.74296  0.31668  0.31668     C
H       0.7448   0.4067   0.8547     H
H       0.7448   0.8547   0.4067     H
H       0.7586   0.4524   0.4524     H
H       0.7716   0.3002   0.3002     H
N      0.77532  0.38614  0.77532     N
N      0.77532  0.77532  0.38614     N
C       0.7771  0.38405  0.38405     C
C      0.78321  0.41387  0.84354     C
C      0.78321  0.84354  0.41387     C
C       0.7942      0.0   0.4232     C
C       0.7942   0.4232      0.0     C
O      0.81483      0.0  0.48445     O
O      0.81483  0.48445      0.0     O
O      0.83273      0.0  0.39167     O
O      0.83273  0.39167      1.0     O
C      0.84354  0.41387  0.78321     C
C      0.84354  0.78321  0.41387     C
N       0.8538  0.45235  0.89091     N
N       0.8538  0.89091  0.45235     N
H       0.8547   0.4067   0.7448     H
H       0.8547   0.7448   0.4067     H
C      0.86088  0.42664  0.42664     C
H       0.8901   0.1453    0.552     H
H       0.8901    0.552   0.1453     H
O      0.89082  0.48685  0.48685     O
N      0.89091  0.45235   0.8538     N
N      0.89091   0.8538  0.45235     N
O      0.89274  0.40004  0.40004     O
Cu     0.90763      0.0  0.51319    Cu
Cu     0.90763  0.51319     -0.0    Cu
O      0.92724      0.0  0.61984     O
O      0.92724  0.61984      0.0     O
C      0.93967  0.15646  0.57033     C
C      0.93967  0.57033  0.15646     C
N      0.96289  0.10909  0.56144     N
N      0.96289  0.56144  0.10909     N
