data_I
_chemical_name_common  '/home/zhangsd/repos/MofS-CGCNN/ML/data/TSD/clean_cifs/LEPLEZ02_clean'
_cell_length_a 17.15000
_cell_length_b 12.28400
_cell_length_c 11.14400
_cell_angle_alpha 90.00000
_cell_angle_beta  127.54900
_cell_angle_gamma 90.00000
_space_group_name_H-M_alt      'P 1'


loop_
_space_group_symop_operation_xyz
  'x, y, z' 

loop_
_atom_site_label
_atom_site_fract_x
_atom_site_fract_y
_atom_site_fract_z
_atom_site_type_symbol
C          0.0   0.1251     0.75     C
C          0.0   0.8749     0.25     C
H        0.029    0.074    0.711     H
H        0.029    0.926    0.211     H
O        0.051   0.2575   0.9411     O
O        0.051   0.7425   0.4411     O
H        0.054    0.167    0.185     H
H        0.054    0.833    0.685     H
C       0.0757    0.201   0.8758     C
C       0.0757    0.799   0.3758     C
C       0.1189   0.1716   0.2793     C
C       0.1189   0.8284   0.7793     C
H        0.119    0.126    0.364     H
H        0.119    0.874    0.864     H
O       0.1287   0.3156    0.428     O
O       0.1287   0.6844    0.928     O
C       0.1398   0.2889   0.3321     C
C       0.1398   0.7111   0.8321     C
O       0.1595   0.2096   0.9083     O
O       0.1595   0.7904   0.4083     O
O       0.1648   0.3555   0.2745     O
O       0.1648   0.6445   0.7745     O
C       0.1878   0.1161   0.2569     C
C       0.1878   0.8839   0.7569     C
O       0.2004   0.0164   0.2849     O
O       0.2004   0.9836   0.7849     O
Sm     0.21681  0.35192  0.12023    Sm
Sm     0.21681  0.64808  0.62023    Sm
O        0.226   0.1683   0.2084     O
O        0.226   0.8317   0.7084     O
O        0.274   0.3317   0.7916     O
O        0.274   0.6683   0.2916     O
Sm     0.28319  0.14808  0.87977    Sm
Sm     0.28319  0.85192  0.37977    Sm
O       0.2996   0.4836   0.7151     O
O       0.2996   0.5164   0.2151     O
C       0.3122   0.3839   0.7431     C
C       0.3122   0.6161   0.2431     C
O       0.3352   0.1445   0.7255     O
O       0.3352   0.8555   0.2255     O
O       0.3405   0.2904   0.0917     O
O       0.3405   0.7096   0.5917     O
C       0.3602   0.2111   0.6679     C
C       0.3602   0.7889   0.1679     C
O       0.3713   0.1844    0.572     O
O       0.3713   0.8156    0.072     O
H        0.381    0.374    0.636     H
H        0.381    0.626    0.136     H
C       0.3811   0.3284   0.7207     C
C       0.3811   0.6716   0.2207     C
C       0.4243    0.299   0.1242     C
C       0.4243    0.701   0.6242     C
H        0.446    0.333    0.815     H
H        0.446    0.667    0.315     H
O        0.449   0.2425   0.0589     O
O        0.449   0.7575   0.5589     O
H        0.471    0.426    0.289     H
H        0.471    0.574    0.789     H
C          0.5   0.3749     0.25     C
C          0.5   0.6251     0.75     C
H        0.529    0.426    0.211     H
H        0.529    0.574    0.711     H
O        0.551   0.2425   0.4411     O
O        0.551   0.7575   0.9411     O
H        0.554    0.333    0.685     H
H        0.554    0.667    0.185     H
C       0.5757    0.299   0.3758     C
C       0.5757    0.701   0.8758     C
C       0.6189   0.3284   0.7793     C
C       0.6189   0.6716   0.2793     C
H        0.619    0.374    0.864     H
H        0.619    0.626    0.364     H
O       0.6287   0.1844    0.928     O
O       0.6287   0.8156    0.428     O
C       0.6398   0.2111   0.8321     C
C       0.6398   0.7889   0.3321     C
O       0.6595   0.2904   0.4083     O
O       0.6595   0.7096   0.9083     O
O       0.6648   0.1445   0.7745     O
O       0.6648   0.8555   0.2745     O
C       0.6878   0.3839   0.7569     C
C       0.6878   0.6161   0.2569     C
O       0.7004   0.4836   0.7849     O
O       0.7004   0.5164   0.2849     O
Sm     0.71681  0.14808  0.62023    Sm
Sm     0.71681  0.85192  0.12023    Sm
O        0.726   0.3317   0.7084     O
O        0.726   0.6683   0.2084     O
O        0.774   0.1683   0.2916     O
O        0.774   0.8317   0.7916     O
Sm     0.78319  0.35192  0.37977    Sm
Sm     0.78319  0.64808  0.87977    Sm
O       0.7996   0.0164   0.2151     O
O       0.7996   0.9836   0.7151     O
C       0.8122   0.1161   0.2431     C
C       0.8122   0.8839   0.7431     C
O       0.8352   0.3555   0.2255     O
O       0.8352   0.6445   0.7255     O
O       0.8405   0.2096   0.5917     O
O       0.8405   0.7904   0.0917     O
C       0.8602   0.2889   0.1679     C
C       0.8602   0.7111   0.6679     C
O       0.8713   0.3156    0.072     O
O       0.8713   0.6844    0.572     O
H        0.881    0.126    0.136     H
H        0.881    0.874    0.636     H
C       0.8811   0.1716   0.2207     C
C       0.8811   0.8284   0.7207     C
C       0.9243    0.201   0.6242     C
C       0.9243    0.799   0.1242     C
H        0.946    0.167    0.315     H
H        0.946    0.833    0.815     H
O        0.949   0.2575   0.5589     O
O        0.949   0.7425   0.0589     O
H        0.971    0.074    0.789     H
H        0.971    0.926    0.289     H
