data_I
_chemical_name_common  '/home/zhangsd/repos/MofS-CGCNN/ML/data/TSD/clean_cifs/LEVLEF_clean'
_cell_length_a 30.47870
_cell_length_b 30.47870
_cell_length_c 30.47870
_cell_angle_alpha 109.47100
_cell_angle_beta  109.47100
_cell_angle_gamma 109.47100
_space_group_name_H-M_alt      'P 1'


loop_
_space_group_symop_operation_xyz
  'x, y, z' 

loop_
_atom_site_label
_atom_site_fract_x
_atom_site_fract_y
_atom_site_fract_z
_atom_site_type_symbol
C          0.0    0.139   0.6616     C
O          0.0   0.1928   0.5038     O
Mg         0.0    0.243   0.5695    Mg
C          0.0  0.25744  0.78434     C
H          0.0   0.3674   0.8858     H
O          0.0  0.36771  0.71069     O
Mg         0.0    0.446   0.2154    Mg
O          0.0   0.4962   0.8072     O
O          0.0   0.5038   0.1928     O
Mg         0.0    0.554   0.7846    Mg
Mg         0.0   0.5695    0.243    Mg
O          0.0  0.63229  0.28931     O
H          0.0   0.6326   0.1142     H
C          0.0   0.6616    0.139     C
C          0.0  0.74256  0.21566     C
C          0.0  0.78434  0.25744     C
Mg         0.0   0.7846    0.554    Mg
O          0.0   0.8072   0.4962     O
C          0.0    0.861   0.3384     C
H          0.0   0.8858   0.3674     H
C      0.04902  0.18133  0.70697     C
C      0.04902  0.34205  0.86769     C
C      0.04902  0.70697  0.18133     C
C      0.04902  0.86769  0.34205     C
C       0.0501   0.3305   0.6838     C
C       0.0501   0.3663   0.7196     C
C       0.0501   0.6838   0.3305     C
C       0.0501   0.7196   0.3663     C
C      0.05022   0.2218   0.7458     C
C      0.05022  0.30442  0.82842     C
C      0.05022   0.7458   0.2218     C
C      0.05022  0.82842  0.30442     C
H       0.0541   0.3743    0.616     H
H       0.0541   0.4381   0.6798     H
H       0.0541    0.616   0.3743     H
H       0.0541   0.6798   0.4381     H
O      0.05713  0.29564  0.49321     O
O      0.05713  0.49321  0.29564     O
O      0.05713  0.56392  0.76149     O
O      0.05713  0.76149  0.56392     O
O      0.05896  0.19631  0.44671     O
O      0.05896  0.44671  0.19631     O
O      0.05896  0.61225  0.86265     O
O      0.05896  0.86265  0.61225     O
H       0.0639   0.3114   0.7001     H
H       0.0639   0.3638   0.7525     H
H       0.0639   0.7001   0.3114     H
H       0.0639   0.7525   0.3638     H
O      0.06568   0.3087  0.57402     O
O      0.06568  0.49166  0.75698     O
O      0.06568  0.57402   0.3087     O
O      0.06568  0.75698  0.49166     O
C       0.0727   0.3245   0.5428     C
C       0.0727   0.5299   0.7482     C
C       0.0727   0.5428   0.3245     C
C       0.0727   0.7482   0.5299     C
O      0.07425  0.17204  0.51117     O
O      0.07425  0.51117  0.17204     O
O      0.07425  0.56308  0.90221     O
O      0.07425  0.90221  0.56308     O
H       0.0767   0.3491   0.6752     H
H       0.0767   0.4015   0.7276     H
H       0.0767   0.6752   0.3491     H
H       0.0767   0.7276   0.4015     H
C      0.07815  0.41105   0.6295     C
C      0.07815  0.44865   0.6671     C
C      0.07815   0.6295  0.41105     C
C      0.07815   0.6671  0.44865     C
C       0.0863  0.18416  0.47606     C
C       0.0863  0.47606  0.18416     C
C       0.0863  0.61024  0.90214     C
C       0.0863  0.90214  0.61024     C
O      0.09779  0.17204  0.66087     O
O      0.09779  0.43692  0.92575     O
O      0.09779  0.66087  0.17204     O
O      0.09779  0.92575  0.43692     O
C      0.09786  0.18416   0.7081     C
C      0.09786  0.38976   0.9137     C
C      0.09786   0.7081  0.18416     C
C      0.09786   0.9137  0.38976     C
C      0.09909  0.26879  0.79268     C
C      0.09909  0.30641   0.8303     C
C      0.09909  0.79268  0.26879     C
C      0.09909   0.8303  0.30641     C
C       0.1117   0.3841    0.566     C
C       0.1117   0.5457   0.7276     C
C       0.1117    0.566   0.3841     C
C       0.1117   0.7276   0.5457     C
C      0.11322  0.42382   0.6084     C
C      0.11322  0.50482   0.6894     C
C      0.11322   0.6084  0.42382     C
C      0.11322   0.6894  0.50482     C
H       0.1142      0.0   0.6326     H
H       0.1142   0.1142   0.4816     H
H       0.1142   0.4816   0.1142     H
H       0.1142   0.6326     -0.0     H
C      0.13231  0.18133  0.47436     C
C      0.13231  0.47436  0.18133     C
C      0.13231  0.65795  0.95098     C
C      0.13231  0.95098  0.65795     C
H       0.1326   0.2727   0.7965     H
H       0.1326   0.3361   0.8599     H
H       0.1326   0.7965   0.2727     H
H       0.1326   0.8599   0.3361     H
O      0.13735  0.19631   0.7496     O
O      0.13735  0.38775  0.94104     O
O      0.13735   0.7496  0.19631     O
O      0.13735  0.94104  0.38775     O
C        0.139      0.0   0.6616     C
C        0.139    0.139   0.4774     C
C        0.139   0.4774    0.139     C
C        0.139   0.6616      0.0     C
H       0.1401   0.2727   0.4762     H
H       0.1401   0.4762   0.2727     H
H       0.1401   0.6639   0.8674     H
H       0.1401   0.8674   0.6639     H
H       0.1439   0.3732   0.5171     H
H       0.1439   0.5171   0.3732     H
H       0.1439   0.6268   0.7707     H
H       0.1439   0.7707   0.6268     H
C       0.1456   0.4001   0.5457     C
C       0.1456   0.5457   0.4001     C
C       0.1456   0.5999   0.7455     C
C       0.1456   0.7455   0.5999     C
C       0.1486   0.4802   0.6288     C
C       0.1486   0.5198   0.6684     C
C       0.1486   0.6288   0.4802     C
C       0.1486   0.6684   0.5198     C
C       0.1697  0.26879  0.47611     C
C       0.1697  0.47611  0.26879     C
C       0.1697  0.69359  0.90091     C
C       0.1697  0.90091  0.69359     C
C      0.17158   0.2218    0.476     C
C      0.17158    0.476   0.2218     C
C      0.17158  0.69558  0.94978     C
C      0.17158  0.94978  0.69558     C
O      0.17204  0.07425  0.51117     O
O      0.17204  0.09779  0.66087     O
O      0.17204  0.51117  0.07425     O
O      0.17204  0.66087  0.09779     O
C      0.18133  0.04902  0.70697     C
C      0.18133  0.13231  0.47436     C
C      0.18133  0.47436  0.13231     C
C      0.18133  0.70697  0.04902     C
C       0.1819   0.4543    0.566     C
C       0.1819    0.566   0.4543     C
C       0.1819   0.6159   0.7276     C
C       0.1819   0.7276   0.6159     C
C      0.18416   0.0863  0.47606     C
C      0.18416  0.09786   0.7081     C
C      0.18416  0.47606   0.0863     C
C      0.18416   0.7081  0.09786     C
C      0.18458  0.49518   0.6084     C
C      0.18458  0.57618   0.6894     C
C      0.18458   0.6084  0.49518     C
C      0.18458   0.6894  0.57618     C
O       0.1928      0.0   0.5038     O
O       0.1928   0.1928    0.689     O
O       0.1928   0.5038      1.0     O
O       0.1928    0.689   0.1928     O
O      0.19631  0.05896  0.44671     O
O      0.19631  0.13735   0.7496     O
O      0.19631  0.44671  0.05896     O
O      0.19631   0.7496  0.13735     O
O      0.19757  0.43608  0.49321     O
O      0.19757  0.49321  0.43608     O
O      0.19757  0.70436  0.76149     O
O      0.19757  0.76149  0.70436     O
H       0.2035   0.3361   0.4762     H
H       0.2035   0.4762   0.3361     H
H       0.2035   0.7273   0.8674     H
H       0.2035   0.8674   0.7273     H
C      0.20732  0.30641  0.47611     C
C      0.20732  0.47611  0.30641     C
C      0.20732  0.73121  0.90091     C
C      0.20732  0.90091  0.73121     C
Mg      0.2154      0.0    0.446    Mg
Mg      0.2154   0.2154   0.7694    Mg
Mg      0.2154    0.446     -0.0    Mg
Mg      0.2154   0.7694   0.2154    Mg
C      0.21566      0.0  0.74256     C
C      0.21566  0.21566   0.4731     C
C      0.21566   0.4731  0.21566     C
C      0.21566  0.74256      0.0     C
C       0.2183   0.4701   0.5428     C
C       0.2183   0.5428   0.4701     C
C       0.2183   0.6755   0.7482     C
C       0.2183   0.7482   0.6755     C
C      0.21845  0.55135   0.6295     C
C      0.21845  0.58895   0.6671     C
C      0.21845   0.6295  0.55135     C
C      0.21845   0.6671  0.58895     C
C       0.2218  0.05022   0.7458     C
C       0.2218  0.17158    0.476     C
C       0.2218    0.476  0.17158     C
C       0.2218   0.7458  0.05022     C
H       0.2293   0.3732   0.8561     H
H       0.2293   0.8561   0.3732     H
Mg      0.2306    0.446    0.446    Mg
Mg      0.2306   0.7846   0.7846    Mg
O      0.23851  0.29564  0.80243     O
O      0.23851  0.43608  0.94287     O
O      0.23851  0.80243  0.29564     O
O      0.23851  0.94287  0.43608     O
H       0.2417   0.5619    0.616     H
H       0.2417    0.616   0.5619     H
H       0.2417   0.6257   0.6798     H
H       0.2417   0.6798   0.6257     H
Mg       0.243      0.0   0.5695    Mg
Mg       0.243    0.243   0.6735    Mg
Mg       0.243   0.5695      1.0    Mg
Mg       0.243   0.6735    0.243    Mg
O      0.24302   0.3087  0.73468     O
O      0.24302  0.50834  0.93432     O
O      0.24302  0.73468   0.3087     O
O      0.24302  0.93432  0.50834     O
H       0.2475   0.3114   0.6113     H
H       0.2475   0.6113   0.3114     H
H       0.2475   0.6362   0.9361     H
H       0.2475   0.9361   0.6362     H
O       0.2504  0.38775  0.44671     O
O       0.2504  0.44671  0.38775     O
O       0.2504  0.80369  0.86265     O
O       0.2504  0.86265  0.80369     O
C       0.2518   0.3245   0.7817     C
C       0.2518   0.4701   0.9273     C
C       0.2518   0.7817   0.3245     C
C       0.2518   0.9273   0.4701     C
C       0.2542  0.30442    0.476     C
C       0.2542    0.476  0.30442     C
C       0.2542   0.7782  0.94978     C
C       0.2542  0.94978   0.7782     C
C       0.2545   0.4001   0.8544     C
C       0.2545   0.8544   0.4001     C
C      0.25744      0.0  0.78434     C
C      0.25744  0.25744   0.4731     C
C      0.25744   0.4731  0.25744     C
C      0.25744  0.78434     -0.0     C
O      0.26532  0.50834  0.57402     O
O      0.26532  0.57402  0.50834     O
O      0.26532   0.6913  0.75698     O
O      0.26532  0.75698   0.6913     O
C      0.26879  0.09909  0.79268     C
C      0.26879   0.1697  0.47611     C
C      0.26879  0.47611   0.1697     C
C      0.26879  0.79268  0.09909     C
H       0.2724   0.3491   0.6739     H
C       0.2724   0.3841   0.8181     C
C       0.2724   0.4543   0.8883     C
H       0.2724   0.5985   0.9233     H
H       0.2724   0.6739   0.3491     H
C       0.2724   0.8181   0.3841     C
C       0.2724   0.8883   0.4543     C
H       0.2724   0.9233   0.5985     H
H       0.2727   0.1326   0.7965     H
H       0.2727   0.1401   0.4762     H
H       0.2727   0.4762   0.1401     H
H       0.2727   0.7965   0.1326     H
C       0.2804   0.3305   0.6467     C
C       0.2804   0.6337   0.9499     C
C       0.2804   0.6467   0.3305     C
C       0.2804   0.9499   0.6337     C
O      0.28931      0.0  0.63229     O
O      0.28931  0.28931  0.65702     O
O      0.28931  0.63229      1.0     O
O      0.28931  0.65702  0.28931     O
C       0.2919  0.38976  0.47606     C
C       0.2919  0.47606  0.38976     C
C       0.2919  0.81584  0.90214     C
C       0.2919  0.90214  0.81584     C
C      0.29303  0.34205  0.47436     C
C      0.29303  0.47436  0.34205     C
C      0.29303  0.81867  0.95098     C
C      0.29303  0.95098  0.81867     C
O      0.29564  0.05713  0.49321     O
O      0.29564  0.23851  0.80243     O
O      0.29564  0.49321  0.05713     O
O      0.29564  0.80243  0.23851     O
H       0.2999   0.3638   0.6113     H
H       0.2999   0.6113   0.3638     H
H       0.2999   0.6886   0.9361     H
H       0.2999   0.9361   0.6886     H
C      0.30442  0.05022  0.82842     C
C      0.30442   0.2542    0.476     C
C      0.30442    0.476   0.2542     C
C      0.30442  0.82842  0.05022     C
C      0.30641  0.09909   0.8303     C
C      0.30641  0.20732  0.47611     C
C      0.30641  0.47611  0.20732     C
C      0.30641   0.8303  0.09909     C
O       0.3087  0.06568  0.57402     O
O       0.3087  0.24302  0.73468     O
O       0.3087  0.57402  0.06568     O
O       0.3087  0.73468  0.24302     O
C       0.3106  0.42382  0.81542     C
C       0.3106  0.49518  0.88678     C
C       0.3106  0.81542  0.42382     C
C       0.3106  0.88678  0.49518     C
O        0.311   0.5038   0.5038     O
O        0.311   0.8072   0.8072     O
H       0.3114   0.0639   0.7001     H
H       0.3114   0.2475   0.6113     H
H       0.3114   0.6113   0.2475     H
H       0.3114   0.7001   0.0639     H
C       0.3162   0.3663   0.6467     C
C       0.3162   0.6467   0.3663     C
C       0.3162   0.6695   0.9499     C
C       0.3162   0.9499   0.6695     C
H       0.3202   0.3743   0.7583     H
H       0.3202   0.5619   0.9459     H
H       0.3202   0.7583   0.3743     H
H       0.3202   0.9459   0.5619     H
C       0.3245   0.0727   0.5428     C
C       0.3245   0.2518   0.7817     C
C       0.3245   0.5428   0.0727     C
C       0.3245   0.7817   0.2518     C
H       0.3248   0.4015   0.6739     H
H       0.3248   0.6509   0.9233     H
H       0.3248   0.6739   0.4015     H
H       0.3248   0.9233   0.6509     H
H       0.3261   0.5985   0.6752     H
H       0.3261   0.6509   0.7276     H
H       0.3261   0.6752   0.5985     H
H       0.3261   0.7276   0.6509     H
Mg      0.3265   0.5695   0.5695    Mg
Mg      0.3265    0.757    0.757    Mg
C       0.3305   0.0501   0.6838     C
C       0.3305   0.2804   0.6467     C
C       0.3305   0.6467   0.2804     C
C       0.3305   0.6838   0.0501     C
C       0.3316   0.4802   0.8514     C
C       0.3316   0.8514   0.4802     C
C       0.3329  0.41105  0.78155     C
C       0.3329  0.55135  0.92185     C
C       0.3329  0.78155  0.41105     C
C       0.3329  0.92185  0.55135     C
H       0.3361   0.1326   0.8599     H
H       0.3361   0.2035   0.4762     H
H       0.3361   0.4762   0.2035     H
H       0.3361   0.8599   0.1326     H
C       0.3384     -0.0    0.861     C
C       0.3384   0.3384   0.4774     C
C       0.3384   0.4774   0.3384     C
C       0.3384    0.861      0.0     C
O      0.33913  0.43692  0.51117     O
O      0.33913  0.51117  0.43692     O
O      0.33913  0.82796  0.90221     O
O      0.33913  0.90221  0.82796     O
C      0.34205  0.04902  0.86769     C
C      0.34205  0.29303  0.47436     C
C      0.34205  0.47436  0.29303     C
C      0.34205  0.86769  0.04902     C
O      0.34298  0.63229  0.63229     O
O      0.34298  0.71069  0.71069     O
H       0.3491   0.0767   0.6752     H
H       0.3491   0.2724   0.6739     H
H       0.3491   0.6739   0.2724     H
H       0.3491   0.6752   0.0767     H
C       0.3533   0.6337   0.6838     C
C       0.3533   0.6695   0.7196     C
C       0.3533   0.6838   0.6337     C
C       0.3533   0.7196   0.6695     C
H       0.3638   0.0639   0.7525     H
H       0.3638   0.2999   0.6113     H
H       0.3638   0.6113   0.2999     H
H       0.3638   0.7525   0.0639     H
C       0.3663   0.0501   0.7196     C
C       0.3663   0.3162   0.6467     C
C       0.3663   0.6467   0.3162     C
C       0.3663   0.7196   0.0501     C
H       0.3674      0.0   0.8858     H
H       0.3674   0.3674   0.4816     H
H       0.3674   0.4816   0.3674     H
H       0.3674   0.8858      1.0     H
O      0.36771      0.0  0.71069     O
O      0.36771  0.36771  0.65702     O
O      0.36771  0.65702  0.36771     O
O      0.36771  0.71069      1.0     O
C       0.3705  0.44865  0.78155     C
C       0.3705  0.58895  0.92185     C
C       0.3705  0.78155  0.44865     C
C       0.3705  0.92185  0.58895     C
C       0.3712   0.5198   0.8514     C
C       0.3712   0.8514   0.5198     C
H       0.3732   0.1439   0.5171     H
H       0.3732   0.2293   0.8561     H
H       0.3732   0.5171   0.1439     H
H       0.3732   0.8561   0.2293     H
H       0.3743   0.0541    0.616     H
H       0.3743   0.3202   0.7583     H
H       0.3743    0.616   0.0541     H
H       0.3743   0.7583   0.3202     H
H        0.384   0.4381   0.7583     H
H        0.384   0.6257   0.9459     H
H        0.384   0.7583   0.4381     H
H        0.384   0.9459   0.6257     H
C       0.3841   0.1117    0.566     C
C       0.3841   0.2724   0.8181     C
C       0.3841    0.566   0.1117     C
C       0.3841   0.8181   0.2724     C
O      0.38775  0.13735  0.94104     O
O      0.38775   0.2504  0.44671     O
O      0.38775  0.44671   0.2504     O
O      0.38775  0.94104  0.13735     O
H       0.3887   0.6362   0.7001     H
H       0.3887   0.6886   0.7525     H
H       0.3887   0.7001   0.6362     H
H       0.3887   0.7525   0.6886     H
C      0.38976  0.09786   0.9137     C
C      0.38976   0.2919  0.47606     C
C      0.38976  0.47606   0.2919     C
C      0.38976   0.9137  0.09786     C
C       0.3916  0.50482  0.81542     C
C       0.3916  0.57618  0.88678     C
C       0.3916  0.81542  0.50482     C
C       0.3916  0.88678  0.57618     C
C       0.4001   0.1456   0.5457     C
C       0.4001   0.2545   0.8544     C
C       0.4001   0.5457   0.1456     C
C       0.4001   0.8544   0.2545     C
H       0.4015   0.0767   0.7276     H
H       0.4015   0.3248   0.6739     H
H       0.4015   0.6739   0.3248     H
H       0.4015   0.7276   0.0767     H
C      0.41105  0.07815   0.6295     C
C      0.41105   0.3329  0.78155     C
C      0.41105   0.6295  0.07815     C
C      0.41105  0.78155   0.3329     C
C      0.42382  0.11322   0.6084     C
C      0.42382   0.3106  0.81542     C
C      0.42382   0.6084  0.11322     C
C      0.42382  0.81542   0.3106     C
O      0.42598  0.49166  0.73468     O
O      0.42598   0.6913  0.93432     O
O      0.42598  0.73468  0.49166     O
O      0.42598  0.93432   0.6913     O
Mg      0.4305      0.0    0.757    Mg
Mg      0.4305   0.4305   0.6735    Mg
Mg      0.4305   0.6735   0.4305    Mg
Mg      0.4305    0.757      1.0    Mg
C        0.434   0.5457   0.8181     C
C        0.434   0.6159   0.8883     C
C        0.434   0.8181   0.5457     C
C        0.434   0.8883   0.6159     C
O      0.43608  0.19757  0.49321     O
O      0.43608  0.23851  0.94287     O
O      0.43608  0.49321  0.19757     O
O      0.43608  0.94287  0.23851     O
O      0.43692  0.09779  0.92575     O
O      0.43692  0.33913  0.51117     O
O      0.43692  0.51117  0.33913     O
O      0.43692  0.92575  0.09779     O
H       0.4381   0.0541   0.6798     H
H       0.4381    0.384   0.7583     H
H       0.4381   0.6798   0.0541     H
H       0.4381   0.7583    0.384     H
Mg       0.446      0.0   0.2154    Mg
Mg       0.446   0.2154      0.0    Mg
Mg       0.446   0.2306    0.446    Mg
Mg       0.446    0.446   0.2306    Mg
O      0.44671  0.05896  0.19631     O
O      0.44671  0.19631  0.05896     O
O      0.44671   0.2504  0.38775     O
O      0.44671  0.38775   0.2504     O
C      0.44865  0.07815   0.6671     C
C      0.44865   0.3705  0.78155     C
C      0.44865   0.6671  0.07815     C
C      0.44865  0.78155   0.3705     C
C       0.4543   0.1819    0.566     C
C       0.4543   0.2724   0.8883     C
C       0.4543    0.566   0.1819     C
C       0.4543   0.5999   0.8544     C
C       0.4543   0.8544   0.5999     C
C       0.4543   0.8883   0.2724     C
C       0.4572   0.5299   0.7817     C
C       0.4572   0.6755   0.9273     C
C       0.4572   0.7817   0.5299     C
C       0.4572   0.9273   0.6755     C
C       0.4701   0.2183   0.5428     C
C       0.4701   0.2518   0.9273     C
C       0.4701   0.5428   0.2183     C
C       0.4701   0.9273   0.2518     C
C       0.4731  0.21566  0.21566     C
C       0.4731  0.25744  0.25744     C
C      0.47436  0.13231  0.18133     C
C      0.47436  0.18133  0.13231     C
C      0.47436  0.29303  0.34205     C
C      0.47436  0.34205  0.29303     C
C        0.476  0.17158   0.2218     C
C        0.476   0.2218  0.17158     C
C        0.476   0.2542  0.30442     C
C        0.476  0.30442   0.2542     C
C      0.47606   0.0863  0.18416     C
C      0.47606  0.18416   0.0863     C
C      0.47606   0.2919  0.38976     C
C      0.47606  0.38976   0.2919     C
C      0.47611   0.1697  0.26879     C
C      0.47611  0.20732  0.30641     C
C      0.47611  0.26879   0.1697     C
C      0.47611  0.30641  0.20732     C
H       0.4762   0.1401   0.2727     H
H       0.4762   0.2035   0.3361     H
H       0.4762   0.2727   0.1401     H
H       0.4762   0.3361   0.2035     H
C       0.4774    0.139    0.139     C
C       0.4774   0.3384   0.3384     C
C       0.4802   0.1486   0.6288     C
C       0.4802   0.3316   0.8514     C
C       0.4802   0.6288   0.1486     C
C       0.4802   0.8514   0.3316     C
H       0.4816   0.1142   0.1142     H
H       0.4816   0.3674   0.3674     H
H       0.4829   0.6268   0.8561     H
H       0.4829   0.8561   0.6268     H
O      0.48883  0.56308  0.66087     O
O      0.48883  0.66087  0.56308     O
O      0.48883  0.82796  0.92575     O
O      0.48883  0.92575  0.82796     O
O      0.49166  0.06568  0.75698     O
O      0.49166  0.42598  0.73468     O
O      0.49166  0.73468  0.42598     O
O      0.49166  0.75698  0.06568     O
O      0.49321  0.05713  0.29564     O
O      0.49321  0.19757  0.43608     O
O      0.49321  0.29564  0.05713     O
O      0.49321  0.43608  0.19757     O
C      0.49518  0.18458   0.6084     C
C      0.49518   0.3106  0.88678     C
C      0.49518   0.6084  0.18458     C
C      0.49518  0.88678   0.3106     C
O       0.4962      0.0   0.8072     O
O       0.4962   0.4962    0.689     O
O       0.4962    0.689   0.4962     O
O       0.4962   0.8072     -0.0     O
O       0.5038      0.0   0.1928     O
O       0.5038   0.1928      1.0     O
O       0.5038    0.311   0.5038     O
O       0.5038   0.5038    0.311     O
C      0.50482  0.11322   0.6894     C
C      0.50482   0.3916  0.81542     C
C      0.50482   0.6894  0.11322     C
C      0.50482  0.81542   0.3916     C
O      0.50679  0.56392  0.80243     O
O      0.50679  0.70436  0.94287     O
O      0.50679  0.80243  0.56392     O
O      0.50679  0.94287  0.70436     O
O      0.50834  0.24302  0.93432     O
O      0.50834  0.26532  0.57402     O
O      0.50834  0.57402  0.26532     O
O      0.50834  0.93432  0.24302     O
O      0.51117  0.07425  0.17204     O
O      0.51117  0.17204  0.07425     O
O      0.51117  0.33913  0.43692     O
O      0.51117  0.43692  0.33913     O
H       0.5171   0.1439   0.3732     H
H       0.5171   0.3732   0.1439     H
H       0.5184   0.6326   0.6326     H
H       0.5184   0.8858   0.8858     H
C       0.5198   0.1486   0.6684     C
C       0.5198   0.3712   0.8514     C
C       0.5198   0.6684   0.1486     C
C       0.5198   0.8514   0.3712     C
C       0.5226   0.6616   0.6616     C
C       0.5226    0.861    0.861     C
H       0.5238   0.6639   0.7965     H
H       0.5238   0.7273   0.8599     H
H       0.5238   0.7965   0.6639     H
H       0.5238   0.8599   0.7273     H
C      0.52389  0.69359  0.79268     C
C      0.52389  0.73121   0.8303     C
C      0.52389  0.79268  0.69359     C
C      0.52389   0.8303  0.73121     C
C      0.52394  0.61024   0.7081     C
C      0.52394   0.7081  0.61024     C
C      0.52394  0.81584   0.9137     C
C      0.52394   0.9137  0.81584     C
C        0.524  0.69558   0.7458     C
C        0.524   0.7458  0.69558     C
C        0.524   0.7782  0.82842     C
C        0.524  0.82842   0.7782     C
C      0.52564  0.65795  0.70697     C
C      0.52564  0.70697  0.65795     C
C      0.52564  0.81867  0.86769     C
C      0.52564  0.86769  0.81867     C
C       0.5269  0.74256  0.74256     C
C       0.5269  0.78434  0.78434     C
C       0.5299   0.0727   0.7482     C
C       0.5299   0.4572   0.7817     C
C       0.5299   0.7482   0.0727     C
C       0.5299   0.7817   0.4572     C
C       0.5428   0.0727   0.3245     C
C       0.5428   0.2183   0.4701     C
C       0.5428   0.3245   0.0727     C
C       0.5428   0.4701   0.2183     C
C       0.5457   0.1117   0.7276     C
C       0.5457   0.1456   0.4001     C
C       0.5457   0.4001   0.1456     C
C       0.5457    0.434   0.8181     C
C       0.5457   0.7276   0.1117     C
C       0.5457   0.8181    0.434     C
C      0.55135  0.21845   0.6295     C
C      0.55135   0.3329  0.92185     C
C      0.55135   0.6295  0.21845     C
C      0.55135  0.92185   0.3329     C
O      0.55329  0.61225   0.7496     O
O      0.55329   0.7496  0.61225     O
O      0.55329  0.80369  0.94104     O
O      0.55329  0.94104  0.80369     O
Mg       0.554      0.0   0.7846    Mg
Mg       0.554    0.554   0.7694    Mg
Mg       0.554   0.7694    0.554    Mg
Mg       0.554   0.7846      1.0    Mg
H       0.5619   0.2417    0.616     H
H       0.5619   0.3202   0.9459     H
H       0.5619    0.616   0.2417     H
H       0.5619   0.9459   0.3202     H
O      0.56308  0.07425  0.90221     O
O      0.56308  0.48883  0.66087     O
O      0.56308  0.66087  0.48883     O
O      0.56308  0.90221  0.07425     O
O      0.56392  0.05713  0.76149     O
O      0.56392  0.50679  0.80243     O
O      0.56392  0.76149  0.05713     O
O      0.56392  0.80243  0.50679     O
C        0.566   0.1117   0.3841     C
C        0.566   0.1819   0.4543     C
C        0.566   0.3841   0.1117     C
C        0.566   0.4543   0.1819     C
Mg      0.5695      0.0    0.243    Mg
Mg      0.5695    0.243      0.0    Mg
Mg      0.5695   0.3265   0.5695    Mg
Mg      0.5695   0.5695   0.3265    Mg
O      0.57402  0.06568   0.3087     O
O      0.57402  0.26532  0.50834     O
O      0.57402   0.3087  0.06568     O
O      0.57402  0.50834  0.26532     O
C      0.57618  0.18458   0.6894     C
C      0.57618   0.3916  0.88678     C
C      0.57618   0.6894  0.18458     C
C      0.57618  0.88678   0.3916     C
C      0.58895  0.21845   0.6671     C
C      0.58895   0.3705  0.92185     C
C      0.58895   0.6671  0.21845     C
C      0.58895  0.92185   0.3705     C
H       0.5985   0.2724   0.9233     H
H       0.5985   0.3261   0.6752     H
H       0.5985   0.6752   0.3261     H
H       0.5985   0.9233   0.2724     H
C       0.5999   0.1456   0.7455     C
C       0.5999   0.4543   0.8544     C
C       0.5999   0.7455   0.1456     C
C       0.5999   0.8544   0.4543     C
C       0.6084  0.11322  0.42382     C
C       0.6084  0.18458  0.49518     C
C       0.6084  0.42382  0.11322     C
C       0.6084  0.49518  0.18458     C
C      0.61024   0.0863  0.90214     C
C      0.61024  0.52394   0.7081     C
C      0.61024   0.7081  0.52394     C
C      0.61024  0.90214   0.0863     C
H       0.6113   0.2475   0.3114     H
H       0.6113   0.2999   0.3638     H
H       0.6113   0.3114   0.2475     H
H       0.6113   0.3638   0.2999     H
O      0.61225  0.05896  0.86265     O
O      0.61225  0.55329   0.7496     O
O      0.61225   0.7496  0.55329     O
O      0.61225  0.86265  0.05896     O
C       0.6159   0.1819   0.7276     C
C       0.6159    0.434   0.8883     C
C       0.6159   0.7276   0.1819     C
C       0.6159   0.8883    0.434     C
H        0.616   0.0541   0.3743     H
H        0.616   0.2417   0.5619     H
H        0.616   0.3743   0.0541     H
H        0.616   0.5619   0.2417     H
H       0.6257   0.2417   0.6798     H
H       0.6257    0.384   0.9459     H
H       0.6257   0.6798   0.2417     H
H       0.6257   0.9459    0.384     H
H       0.6268   0.1439   0.7707     H
H       0.6268   0.4829   0.8561     H
H       0.6268   0.7707   0.1439     H
H       0.6268   0.8561   0.4829     H
C       0.6288   0.1486   0.4802     C
C       0.6288   0.4802   0.1486     C
C       0.6295  0.07815  0.41105     C
C       0.6295  0.21845  0.55135     C
C       0.6295  0.41105  0.07815     C
C       0.6295  0.55135  0.21845     C
O      0.63229      0.0  0.28931     O
O      0.63229  0.28931     -0.0     O
O      0.63229  0.34298  0.63229     O
O      0.63229  0.63229  0.34298     O
H       0.6326      0.0   0.1142     H
H       0.6326   0.1142      1.0     H
H       0.6326   0.5184   0.6326     H
H       0.6326   0.6326   0.5184     H
C       0.6337   0.2804   0.9499     C
C       0.6337   0.3533   0.6838     C
C       0.6337   0.6838   0.3533     C
C       0.6337   0.9499   0.2804     C
H       0.6362   0.2475   0.9361     H
H       0.6362   0.3887   0.7001     H
H       0.6362   0.7001   0.3887     H
H       0.6362   0.9361   0.2475     H
C       0.6467   0.2804   0.3305     C
C       0.6467   0.3162   0.3663     C
C       0.6467   0.3305   0.2804     C
C       0.6467   0.3663   0.3162     C
H       0.6509   0.3248   0.9233     H
H       0.6509   0.3261   0.7276     H
H       0.6509   0.7276   0.3261     H
H       0.6509   0.9233   0.3248     H
O      0.65702  0.28931  0.28931     O
O      0.65702  0.36771  0.36771     O
C      0.65795  0.13231  0.95098     C
C      0.65795  0.52564  0.70697     C
C      0.65795  0.70697  0.52564     C
C      0.65795  0.95098  0.13231     C
O      0.66087  0.09779  0.17204     O
O      0.66087  0.17204  0.09779     O
O      0.66087  0.48883  0.56308     O
O      0.66087  0.56308  0.48883     O
C       0.6616    0.139      1.0     C
C       0.6616   0.5226   0.6616     C
C       0.6616   0.6616   0.5226     C
C       0.6616      1.0    0.139     C
H       0.6639   0.1401   0.8674     H
H       0.6639   0.5238   0.7965     H
H       0.6639   0.7965   0.5238     H
H       0.6639   0.8674   0.1401     H
C       0.6671  0.07815  0.44865     C
C       0.6671  0.21845  0.58895     C
C       0.6671  0.44865  0.07815     C
C       0.6671  0.58895  0.21845     C
C       0.6684   0.1486   0.5198     C
C       0.6684   0.5198   0.1486     C
C       0.6695   0.3162   0.9499     C
C       0.6695   0.3533   0.7196     C
C       0.6695   0.7196   0.3533     C
C       0.6695   0.9499   0.3162     C
Mg      0.6735    0.243    0.243    Mg
Mg      0.6735   0.4305   0.4305    Mg
H       0.6739   0.2724   0.3491     H
H       0.6739   0.3248   0.4015     H
H       0.6739   0.3491   0.2724     H
H       0.6739   0.4015   0.3248     H
H       0.6752   0.0767   0.3491     H
H       0.6752   0.3261   0.5985     H
H       0.6752   0.3491   0.0767     H
H       0.6752   0.5985   0.3261     H
C       0.6755   0.2183   0.7482     C
C       0.6755   0.4572   0.9273     C
C       0.6755   0.7482   0.2183     C
C       0.6755   0.9273   0.4572     C
H       0.6798   0.0541   0.4381     H
H       0.6798   0.2417   0.6257     H
H       0.6798   0.4381   0.0541     H
H       0.6798   0.6257   0.2417     H
C       0.6838   0.0501   0.3305     C
C       0.6838   0.3305   0.0501     C
C       0.6838   0.3533   0.6337     C
C       0.6838   0.6337   0.3533     C
H       0.6886   0.2999   0.9361     H
H       0.6886   0.3887   0.7525     H
H       0.6886   0.7525   0.3887     H
H       0.6886   0.9361   0.2999     H
O        0.689   0.1928   0.1928     O
O        0.689   0.4962   0.4962     O
C       0.6894  0.11322  0.50482     C
C       0.6894  0.18458  0.57618     C
C       0.6894  0.50482  0.11322     C
C       0.6894  0.57618  0.18458     C
O       0.6913  0.26532  0.75698     O
O       0.6913  0.42598  0.93432     O
O       0.6913  0.75698  0.26532     O
O       0.6913  0.93432  0.42598     O
C      0.69359   0.1697  0.90091     C
C      0.69359  0.52389  0.79268     C
C      0.69359  0.79268  0.52389     C
C      0.69359  0.90091   0.1697     C
C      0.69558  0.17158  0.94978     C
C      0.69558    0.524   0.7458     C
C      0.69558   0.7458    0.524     C
C      0.69558  0.94978  0.17158     C
H       0.7001   0.0639   0.3114     H
H       0.7001   0.3114   0.0639     H
H       0.7001   0.3887   0.6362     H
H       0.7001   0.6362   0.3887     H
O      0.70436  0.19757  0.76149     O
O      0.70436  0.50679  0.94287     O
O      0.70436  0.76149  0.19757     O
O      0.70436  0.94287  0.50679     O
C      0.70697  0.04902  0.18133     C
C      0.70697  0.18133  0.04902     C
C      0.70697  0.52564  0.65795     C
C      0.70697  0.65795  0.52564     C
C       0.7081  0.09786  0.18416     C
C       0.7081  0.18416  0.09786     C
C       0.7081  0.52394  0.61024     C
C       0.7081  0.61024  0.52394     C
O      0.71069      0.0  0.36771     O
O      0.71069  0.34298  0.71069     O
O      0.71069  0.36771     -0.0     O
O      0.71069  0.71069  0.34298     O
C       0.7196   0.0501   0.3663     C
C       0.7196   0.3533   0.6695     C
C       0.7196   0.3663   0.0501     C
C       0.7196   0.6695   0.3533     C
H       0.7273   0.2035   0.8674     H
H       0.7273   0.5238   0.8599     H
H       0.7273   0.8599   0.5238     H
H       0.7273   0.8674   0.2035     H
H       0.7276   0.0767   0.4015     H
C       0.7276   0.1117   0.5457     C
C       0.7276   0.1819   0.6159     C
H       0.7276   0.3261   0.6509     H
H       0.7276   0.4015   0.0767     H
C       0.7276   0.5457   0.1117     C
C       0.7276   0.6159   0.1819     C
H       0.7276   0.6509   0.3261     H
C      0.73121  0.20732  0.90091     C
C      0.73121  0.52389   0.8303     C
C      0.73121   0.8303  0.52389     C
C      0.73121  0.90091  0.20732     C
O      0.73468  0.24302   0.3087     O
O      0.73468   0.3087  0.24302     O
O      0.73468  0.42598  0.49166     O
O      0.73468  0.49166  0.42598     O
C      0.74256      0.0  0.21566     C
C      0.74256  0.21566      0.0     C
C      0.74256   0.5269  0.74256     C
C      0.74256  0.74256   0.5269     C
C       0.7455   0.1456   0.5999     C
C       0.7455   0.5999   0.1456     C
C       0.7458  0.05022   0.2218     C
C       0.7458   0.2218  0.05022     C
C       0.7458    0.524  0.69558     C
C       0.7458  0.69558    0.524     C
C       0.7482   0.0727   0.5299     C
C       0.7482   0.2183   0.6755     C
C       0.7482   0.5299   0.0727     C
C       0.7482   0.6755   0.2183     C
O       0.7496  0.13735  0.19631     O
O       0.7496  0.19631  0.13735     O
O       0.7496  0.55329  0.61225     O
O       0.7496  0.61225  0.55329     O
H       0.7525   0.0639   0.3638     H
H       0.7525   0.3638   0.0639     H
H       0.7525   0.3887   0.6886     H
H       0.7525   0.6886   0.3887     H
O      0.75698  0.06568  0.49166     O
O      0.75698  0.26532   0.6913     O
O      0.75698  0.49166  0.06568     O
O      0.75698   0.6913  0.26532     O
Mg       0.757      0.0   0.4305    Mg
Mg       0.757   0.3265    0.757    Mg
Mg       0.757   0.4305      1.0    Mg
Mg       0.757    0.757   0.3265    Mg
H       0.7583   0.3202   0.3743     H
H       0.7583   0.3743   0.3202     H
H       0.7583    0.384   0.4381     H
H       0.7583   0.4381    0.384     H
O      0.76149  0.05713  0.56392     O
O      0.76149  0.19757  0.70436     O
O      0.76149  0.56392  0.05713     O
O      0.76149  0.70436  0.19757     O
Mg      0.7694   0.2154   0.2154    Mg
Mg      0.7694    0.554    0.554    Mg
H       0.7707   0.1439   0.6268     H
H       0.7707   0.6268   0.1439     H
C       0.7782   0.2542  0.94978     C
C       0.7782    0.524  0.82842     C
C       0.7782  0.82842    0.524     C
C       0.7782  0.94978   0.2542     C
C      0.78155   0.3329  0.41105     C
C      0.78155   0.3705  0.44865     C
C      0.78155  0.41105   0.3329     C
C      0.78155  0.44865   0.3705     C
C       0.7817   0.2518   0.3245     C
C       0.7817   0.3245   0.2518     C
C       0.7817   0.4572   0.5299     C
C       0.7817   0.5299   0.4572     C
C      0.78434      0.0  0.25744     C
C      0.78434  0.25744     -0.0     C
C      0.78434   0.5269  0.78434     C
C      0.78434  0.78434   0.5269     C
Mg      0.7846      0.0    0.554    Mg
Mg      0.7846   0.2306   0.7846    Mg
Mg      0.7846    0.554     -0.0    Mg
Mg      0.7846   0.7846   0.2306    Mg
C      0.79268  0.09909  0.26879     C
C      0.79268  0.26879  0.09909     C
C      0.79268  0.52389  0.69359     C
C      0.79268  0.69359  0.52389     C
H       0.7965   0.1326   0.2727     H
H       0.7965   0.2727   0.1326     H
H       0.7965   0.5238   0.6639     H
H       0.7965   0.6639   0.5238     H
O      0.80243  0.23851  0.29564     O
O      0.80243  0.29564  0.23851     O
O      0.80243  0.50679  0.56392     O
O      0.80243  0.56392  0.50679     O
O      0.80369   0.2504  0.86265     O
O      0.80369  0.55329  0.94104     O
O      0.80369  0.86265   0.2504     O
O      0.80369  0.94104  0.55329     O
O       0.8072      0.0   0.4962     O
O       0.8072    0.311   0.8072     O
O       0.8072   0.4962      1.0     O
O       0.8072   0.8072    0.311     O
C      0.81542   0.3106  0.42382     C
C      0.81542   0.3916  0.50482     C
C      0.81542  0.42382   0.3106     C
C      0.81542  0.50482   0.3916     C
C      0.81584   0.2919  0.90214     C
C      0.81584  0.52394   0.9137     C
C      0.81584  0.90214   0.2919     C
C      0.81584   0.9137  0.52394     C
C       0.8181   0.2724   0.3841     C
C       0.8181   0.3841   0.2724     C
C       0.8181    0.434   0.5457     C
C       0.8181   0.5457    0.434     C
C      0.81867  0.29303  0.95098     C
C      0.81867  0.52564  0.86769     C
C      0.81867  0.86769  0.52564     C
C      0.81867  0.95098  0.29303     C
O      0.82796  0.33913  0.90221     O
O      0.82796  0.48883  0.92575     O
O      0.82796  0.90221  0.33913     O
O      0.82796  0.92575  0.48883     O
C      0.82842  0.05022  0.30442     C
C      0.82842  0.30442  0.05022     C
C      0.82842    0.524   0.7782     C
C      0.82842   0.7782    0.524     C
C       0.8303  0.09909  0.30641     C
C       0.8303  0.30641  0.09909     C
C       0.8303  0.52389  0.73121     C
C       0.8303  0.73121  0.52389     C
C       0.8514   0.3316   0.4802     C
C       0.8514   0.3712   0.5198     C
C       0.8514   0.4802   0.3316     C
C       0.8514   0.5198   0.3712     C
C       0.8544   0.2545   0.4001     C
C       0.8544   0.4001   0.2545     C
C       0.8544   0.4543   0.5999     C
C       0.8544   0.5999   0.4543     C
H       0.8561   0.2293   0.3732     H
H       0.8561   0.3732   0.2293     H
H       0.8561   0.4829   0.6268     H
H       0.8561   0.6268   0.4829     H
H       0.8599   0.1326   0.3361     H
H       0.8599   0.3361   0.1326     H
H       0.8599   0.5238   0.7273     H
H       0.8599   0.7273   0.5238     H
C        0.861      0.0   0.3384     C
C        0.861   0.3384     -0.0     C
C        0.861   0.5226    0.861     C
C        0.861    0.861   0.5226     C
O      0.86265  0.05896  0.61225     O
O      0.86265   0.2504  0.80369     O
O      0.86265  0.61225  0.05896     O
O      0.86265  0.80369   0.2504     O
H       0.8674   0.1401   0.6639     H
H       0.8674   0.2035   0.7273     H
H       0.8674   0.6639   0.1401     H
H       0.8674   0.7273   0.2035     H
C      0.86769  0.04902  0.34205     C
C      0.86769  0.34205  0.04902     C
C      0.86769  0.52564  0.81867     C
C      0.86769  0.81867  0.52564     C
H       0.8858      0.0   0.3674     H
H       0.8858   0.3674     -0.0     H
H       0.8858   0.5184   0.8858     H
H       0.8858   0.8858   0.5184     H
C      0.88678   0.3106  0.49518     C
C      0.88678   0.3916  0.57618     C
C      0.88678  0.49518   0.3106     C
C      0.88678  0.57618   0.3916     C
C       0.8883   0.2724   0.4543     C
C       0.8883    0.434   0.6159     C
C       0.8883   0.4543   0.2724     C
C       0.8883   0.6159    0.434     C
C      0.90091   0.1697  0.69359     C
C      0.90091  0.20732  0.73121     C
C      0.90091  0.69359   0.1697     C
C      0.90091  0.73121  0.20732     C
C      0.90214   0.0863  0.61024     C
C      0.90214   0.2919  0.81584     C
C      0.90214  0.61024   0.0863     C
C      0.90214  0.81584   0.2919     C
O      0.90221  0.07425  0.56308     O
O      0.90221  0.33913  0.82796     O
O      0.90221  0.56308  0.07425     O
O      0.90221  0.82796  0.33913     O
C       0.9137  0.09786  0.38976     C
C       0.9137  0.38976  0.09786     C
C       0.9137  0.52394  0.81584     C
C       0.9137  0.81584  0.52394     C
C      0.92185   0.3329  0.55135     C
C      0.92185   0.3705  0.58895     C
C      0.92185  0.55135   0.3329     C
C      0.92185  0.58895   0.3705     C
H       0.9233   0.2724   0.5985     H
H       0.9233   0.3248   0.6509     H
H       0.9233   0.5985   0.2724     H
H       0.9233   0.6509   0.3248     H
O      0.92575  0.09779  0.43692     O
O      0.92575  0.43692  0.09779     O
O      0.92575  0.48883  0.82796     O
O      0.92575  0.82796  0.48883     O
C       0.9273   0.2518   0.4701     C
C       0.9273   0.4572   0.6755     C
C       0.9273   0.4701   0.2518     C
C       0.9273   0.6755   0.4572     C
O      0.93432  0.24302  0.50834     O
O      0.93432  0.42598   0.6913     O
O      0.93432  0.50834  0.24302     O
O      0.93432   0.6913  0.42598     O
H       0.9361   0.2475   0.6362     H
H       0.9361   0.2999   0.6886     H
H       0.9361   0.6362   0.2475     H
H       0.9361   0.6886   0.2999     H
O      0.94104  0.13735  0.38775     O
O      0.94104  0.38775  0.13735     O
O      0.94104  0.55329  0.80369     O
O      0.94104  0.80369  0.55329     O
O      0.94287  0.23851  0.43608     O
O      0.94287  0.43608  0.23851     O
O      0.94287  0.50679  0.70436     O
O      0.94287  0.70436  0.50679     O
H       0.9459   0.3202   0.5619     H
H       0.9459    0.384   0.6257     H
H       0.9459   0.5619   0.3202     H
H       0.9459   0.6257    0.384     H
C      0.94978  0.17158  0.69558     C
C      0.94978   0.2542   0.7782     C
C      0.94978  0.69558  0.17158     C
C      0.94978   0.7782   0.2542     C
C       0.9499   0.2804   0.6337     C
C       0.9499   0.3162   0.6695     C
C       0.9499   0.6337   0.2804     C
C       0.9499   0.6695   0.3162     C
C      0.95098  0.13231  0.65795     C
C      0.95098  0.29303  0.81867     C
C      0.95098  0.65795  0.13231     C
C      0.95098  0.81867  0.29303     C
H          1.0   0.1142   0.6326     H
Mg         1.0   0.2154    0.446    Mg
C          1.0  0.21566  0.74256     C
O          1.0  0.28931  0.63229     O
C          1.0   0.3384    0.861     C
Mg         1.0   0.4305    0.757    Mg
O          1.0  0.71069  0.36771     O
Mg         1.0    0.757   0.4305    Mg
