data_I
_chemical_name_common  '/home/zhangsd/repos/MofS-CGCNN/ML/data/TSD/clean_cifs/LEYRAK_clean'
_cell_length_a 30.74640
_cell_length_b 15.68550
_cell_length_c 22.07140
_cell_angle_alpha 90.00000
_cell_angle_beta  133.21000
_cell_angle_gamma 90.00000
_space_group_name_H-M_alt      'P 1'


loop_
_space_group_symop_operation_xyz
  'x, y, z' 

loop_
_atom_site_label
_atom_site_fract_x
_atom_site_fract_y
_atom_site_fract_z
_atom_site_type_symbol
H       0.0116   0.1364   0.9609     H
H       0.0116   0.8636   0.4609     H
O      0.02017   0.2831   0.6125     O
O      0.02017   0.7169   0.1125     O
C       0.0346   0.2902     0.93     C
C       0.0346   0.7098     0.43     C
C       0.0532   0.1449   0.9953     C
C       0.0532   0.8551   0.4953     C
O       0.0591   0.3549   0.9305     O
O       0.0591   0.6451   0.4305     O
C       0.0745   0.2184    0.988     C
C       0.0745   0.7816    0.488     C
H       0.0799   0.0327   0.0581     H
H       0.0799   0.9673   0.5581     H
C       0.0935   0.0842   0.0532     C
C       0.0935   0.9158   0.5532     C
Ce      0.1106  0.36283  0.67213    Ce
Ce      0.1106  0.63717  0.17213    Ce
O       0.1228   0.3835   0.7951     O
O       0.1228   0.6165   0.2951     O
N       0.1333   0.2326   0.0359     N
N       0.1333   0.7674   0.5359     N
O       0.1341    0.474   0.6175     O
O       0.1341    0.526   0.1175     O
C       0.1495    0.446   0.8455     C
C       0.1495    0.554   0.3455     C
C       0.1539   0.0998   0.1041     C
C       0.1539   0.9002   0.6041     C
O       0.1576   0.4536   0.9084     O
O       0.1576   0.5464   0.4084     O
N        0.162   0.4976   0.2576     N
N        0.162   0.5024   0.7576     N
C       0.1634   0.4584   0.1547     C
C       0.1634   0.5416   0.6547     C
Ce     0.16878  0.37107  0.01371    Ce
Ce     0.16878  0.62893  0.51371    Ce
C       0.1718   0.1745   0.0928     C
C       0.1718   0.8255   0.5928     C
O       0.1746   0.4026   0.1271     O
O       0.1746   0.5974   0.6271     O
C       0.1752   0.4871   0.3291     C
C       0.1752   0.5129   0.8291     C
H       0.1826   0.0601   0.1458     H
H       0.1826   0.9399   0.6458     H
C       0.1846   0.4445   0.2386     C
C       0.1846   0.5555   0.7386     C
C       0.2123   0.4235   0.3833     C
C       0.2123   0.5765   0.8833     C
H       0.2196   0.4156   0.4323     H
H       0.2196   0.5844   0.9323     H
O       0.2242    0.349   0.7944     O
O       0.2242    0.651   0.2944     O
C       0.2255   0.3815   0.2928     C
C       0.2255   0.6185   0.7928     C
H       0.2333   0.1723   0.5942     H
H       0.2333   0.8277   0.0942     H
C       0.2368   0.1989   0.1465     C
C       0.2368   0.8011   0.6465     C
C       0.2394   0.3705   0.3672     C
C       0.2394   0.6295   0.8672     C
H       0.2435   0.3469   0.2796     H
H       0.2435   0.6531   0.7796     H
O      0.24669   0.2658   0.1266     O
O      0.24669   0.7342   0.6266     O
O      0.25331   0.2342   0.8734     O
O      0.25331   0.7658   0.3734     O
H       0.2565   0.1531   0.7204     H
H       0.2565   0.8469   0.2204     H
C       0.2606   0.1295   0.6328     C
C       0.2606   0.8705   0.1328     C
C       0.2632   0.3011   0.8535     C
C       0.2632   0.6989   0.3535     C
H       0.2667   0.3277   0.4058     H
H       0.2667   0.6723   0.9058     H
C       0.2745   0.1185   0.7072     C
C       0.2745   0.8815   0.2072     C
O       0.2758    0.151   0.2056     O
O       0.2758    0.849   0.7056     O
H       0.2804   0.0844   0.5677     H
H       0.2804   0.9156   0.0677     H
C       0.2877   0.0765   0.6167     C
C       0.2877   0.9235   0.1167     C
C       0.3154   0.0555   0.7614     C
C       0.3154   0.9445   0.2614     C
H       0.3174   0.4399   0.8542     H
H       0.3174   0.5601   0.3542     H
C       0.3248   0.0129   0.6709     C
C       0.3248   0.9871   0.1709     C
O       0.3254   0.0974   0.8729     O
O       0.3254   0.9026   0.3729     O
C       0.3282   0.3255   0.9072     C
C       0.3282   0.6745   0.4072     C
Ce     0.33122  0.12893  0.98629    Ce
Ce     0.33122  0.87107  0.48629    Ce
C       0.3366   0.0416   0.8453     C
C       0.3366   0.9584   0.3453     C
N        0.338   0.0024   0.7424     N
N        0.338   0.9976   0.2424     N
O       0.3424   0.0464   0.0916     O
O       0.3424   0.9536   0.5916     O
C       0.3461   0.4002   0.8959     C
C       0.3461   0.5998   0.3959     C
C       0.3505    0.054   0.1545     C
C       0.3505    0.946   0.6545     C
O       0.3659    0.026   0.3825     O
O       0.3659    0.974   0.8825     O
N       0.3667   0.2674   0.9641     N
N       0.3667   0.7326   0.4641     N
O       0.3772   0.1165   0.2049     O
O       0.3772   0.8835   0.7049     O
Ce      0.3894  0.13717  0.32787    Ce
Ce      0.3894  0.86283  0.82787    Ce
C       0.4065   0.4158   0.9468     C
C       0.4065   0.5842   0.4468     C
H       0.4201   0.4673   0.9419     H
H       0.4201   0.5327   0.4419     H
C       0.4255   0.2816    0.012     C
C       0.4255   0.7184    0.512     C
O       0.4409   0.1451   0.0695     O
O       0.4409   0.8549   0.5695     O
C       0.4468   0.3551   0.0047     C
C       0.4468   0.6449   0.5047     C
C       0.4654   0.2098     0.07     C
C       0.4654   0.7902     0.57     C
O      0.47983   0.2169   0.3875     O
O      0.47983   0.7831   0.8875     O
H       0.4884   0.3636   0.0391     H
H       0.4884   0.6364   0.5391     H
H       0.5116   0.3636   0.4609     H
H       0.5116   0.6364   0.9609     H
O      0.52017   0.2169   0.1125     O
O      0.52017   0.7831   0.6125     O
C       0.5346   0.2098     0.43     C
C       0.5346   0.7902     0.93     C
C       0.5532   0.3551   0.4953     C
C       0.5532   0.6449   0.9953     C
O       0.5591   0.1451   0.4305     O
O       0.5591   0.8549   0.9305     O
C       0.5745   0.2816    0.488     C
C       0.5745   0.7184    0.988     C
H       0.5799   0.4673   0.5581     H
H       0.5799   0.5327   0.0581     H
C       0.5935   0.4158   0.5532     C
C       0.5935   0.5842   0.0532     C
Ce      0.6106  0.13717  0.17213    Ce
Ce      0.6106  0.86283  0.67213    Ce
O       0.6228   0.1165   0.2951     O
O       0.6228   0.8835   0.7951     O
N       0.6333   0.2674   0.5359     N
N       0.6333   0.7326   0.0359     N
O       0.6341    0.026   0.1175     O
O       0.6341    0.974   0.6175     O
C       0.6495    0.054   0.3455     C
C       0.6495    0.946   0.8455     C
C       0.6539   0.4002   0.6041     C
C       0.6539   0.5998   0.1041     C
O       0.6576   0.0464   0.4084     O
O       0.6576   0.9536   0.9084     O
N        0.662   0.0024   0.7576     N
N        0.662   0.9976   0.2576     N
C       0.6634   0.0416   0.6547     C
C       0.6634   0.9584   0.1547     C
Ce     0.66878  0.12893  0.51371    Ce
Ce     0.66878  0.87107  0.01371    Ce
C       0.6718   0.3255   0.5928     C
C       0.6718   0.6745   0.0928     C
O       0.6746   0.0974   0.6271     O
O       0.6746   0.9026   0.1271     O
C       0.6752   0.0129   0.8291     C
C       0.6752   0.9871   0.3291     C
H       0.6826   0.4399   0.6458     H
H       0.6826   0.5601   0.1458     H
C       0.6846   0.0555   0.7386     C
C       0.6846   0.9445   0.2386     C
C       0.7123   0.0765   0.8833     C
C       0.7123   0.9235   0.3833     C
H       0.7196   0.0844   0.9323     H
H       0.7196   0.9156   0.4323     H
O       0.7242    0.151   0.2944     O
O       0.7242    0.849   0.7944     O
C       0.7255   0.1185   0.7928     C
C       0.7255   0.8815   0.2928     C
H       0.7333   0.3277   0.0942     H
H       0.7333   0.6723   0.5942     H
C       0.7368   0.3011   0.6465     C
C       0.7368   0.6989   0.1465     C
C       0.7394   0.1295   0.8672     C
C       0.7394   0.8705   0.3672     C
H       0.7435   0.1531   0.7796     H
H       0.7435   0.8469   0.2796     H
O      0.74669   0.2342   0.6266     O
O      0.74669   0.7658   0.1266     O
O      0.75331   0.2658   0.3734     O
O      0.75331   0.7342   0.8734     O
H       0.7565   0.3469   0.2204     H
H       0.7565   0.6531   0.7204     H
C       0.7606   0.3705   0.1328     C
C       0.7606   0.6295   0.6328     C
C       0.7632   0.1989   0.3535     C
C       0.7632   0.8011   0.8535     C
H       0.7667   0.1723   0.9058     H
H       0.7667   0.8277   0.4058     H
C       0.7745   0.3815   0.2072     C
C       0.7745   0.6185   0.7072     C
O       0.7758    0.349   0.7056     O
O       0.7758    0.651   0.2056     O
H       0.7804   0.4156   0.0677     H
H       0.7804   0.5844   0.5677     H
C       0.7877   0.4235   0.1167     C
C       0.7877   0.5765   0.6167     C
C       0.8154   0.4445   0.2614     C
C       0.8154   0.5555   0.7614     C
H       0.8174   0.0601   0.3542     H
H       0.8174   0.9399   0.8542     H
C       0.8248   0.4871   0.1709     C
C       0.8248   0.5129   0.6709     C
O       0.8254   0.4026   0.3729     O
O       0.8254   0.5974   0.8729     O
C       0.8282   0.1745   0.4072     C
C       0.8282   0.8255   0.9072     C
Ce     0.83122  0.37107  0.48629    Ce
Ce     0.83122  0.62893  0.98629    Ce
C       0.8366   0.4584   0.3453     C
C       0.8366   0.5416   0.8453     C
N        0.838   0.4976   0.2424     N
N        0.838   0.5024   0.7424     N
O       0.8424   0.4536   0.5916     O
O       0.8424   0.5464   0.0916     O
C       0.8461   0.0998   0.3959     C
C       0.8461   0.9002   0.8959     C
C       0.8505    0.446   0.6545     C
C       0.8505    0.554   0.1545     C
O       0.8659    0.474   0.8825     O
O       0.8659    0.526   0.3825     O
N       0.8667   0.2326   0.4641     N
N       0.8667   0.7674   0.9641     N
O       0.8772   0.3835   0.7049     O
O       0.8772   0.6165   0.2049     O
Ce      0.8894  0.36283  0.82787    Ce
Ce      0.8894  0.63717  0.32787    Ce
C       0.9065   0.0842   0.4468     C
C       0.9065   0.9158   0.9468     C
H       0.9201   0.0327   0.4419     H
H       0.9201   0.9673   0.9419     H
C       0.9255   0.2184    0.512     C
C       0.9255   0.7816    0.012     C
O       0.9409   0.3549   0.5695     O
O       0.9409   0.6451   0.0695     O
C       0.9468   0.1449   0.5047     C
C       0.9468   0.8551   0.0047     C
C       0.9654   0.2902     0.57     C
C       0.9654   0.7098     0.07     C
O      0.97983   0.2831   0.8875     O
O      0.97983   0.7169   0.3875     O
H       0.9884   0.1364   0.5391     H
H       0.9884   0.8636   0.0391     H
