data_I
_chemical_name_common  '/home/zhangsd/repos/MofS-CGCNN/ML/data/TSD/clean_cifs/LIKGUJ_clean'
_cell_length_a 29.83070
_cell_length_b 29.83070
_cell_length_c 29.83070
_cell_angle_alpha 90.00000
_cell_angle_beta  90.00000
_cell_angle_gamma 90.00000
_space_group_name_H-M_alt      'P 1'


loop_
_space_group_symop_operation_xyz
  'x, y, z' 

loop_
_atom_site_label
_atom_site_fract_x
_atom_site_fract_y
_atom_site_fract_z
_atom_site_type_symbol
Cu         0.0  0.19385  0.19385    Cu
Cu         0.0  0.19385  0.80615    Cu
Cu         0.0     0.25     0.25    Cu
Cu         0.0     0.25     0.75    Cu
Cu         0.0  0.30615  0.30615    Cu
Cu         0.0  0.30615  0.69385    Cu
Cu         0.0  0.69385  0.30615    Cu
Cu         0.0  0.69385  0.69385    Cu
Cu         0.0     0.75     0.25    Cu
Cu         0.0     0.75     0.75    Cu
Cu         0.0  0.80615  0.19385    Cu
Cu         0.0  0.80615  0.80615    Cu
O       0.0404   0.1688    0.228     O
O       0.0404   0.1688    0.772     O
O       0.0404    0.228   0.1688     O
O       0.0404    0.228   0.8312     O
O       0.0404    0.272   0.3312     O
O       0.0404    0.272   0.6688     O
O       0.0404   0.3312    0.272     O
O       0.0404   0.3312    0.728     O
O       0.0404   0.6688    0.272     O
O       0.0404   0.6688    0.728     O
O       0.0404    0.728   0.3312     O
O       0.0404    0.728   0.6688     O
O       0.0404    0.772   0.1688     O
O       0.0404    0.772   0.8312     O
O       0.0404   0.8312    0.228     O
O       0.0404   0.8312    0.772     O
O       0.0437   0.2193   0.2807     O
O       0.0437   0.2193   0.7193     O
O       0.0437   0.2807   0.2193     O
O       0.0437   0.2807   0.7807     O
O       0.0437   0.7193   0.2193     O
O       0.0437   0.7193   0.7807     O
O       0.0437   0.7807   0.2807     O
O       0.0437   0.7807   0.7193     O
C       0.0626   0.1813   0.2685     C
C       0.0626   0.1813   0.7315     C
C       0.0626   0.2315   0.3187     C
C       0.0626   0.2315   0.6813     C
C       0.0626   0.2685   0.1813     C
C       0.0626   0.2685   0.8187     C
C       0.0626   0.3187   0.2315     C
C       0.0626   0.3187   0.7685     C
C       0.0626   0.6813   0.2315     C
C       0.0626   0.6813   0.7685     C
C       0.0626   0.7315   0.1813     C
C       0.0626   0.7315   0.8187     C
C       0.0626   0.7685   0.3187     C
C       0.0626   0.7685   0.6813     C
C       0.0626   0.8187   0.2685     C
C       0.0626   0.8187   0.7315     C
C       0.1013   0.1584   0.2879     C
C       0.1013   0.1584   0.7121     C
C       0.1013   0.2121   0.3416     C
C       0.1013   0.2121   0.6584     C
C       0.1013   0.2879   0.1584     C
C       0.1013   0.2879   0.8416     C
C       0.1013   0.3416   0.2121     C
C       0.1013   0.3416   0.7879     C
C       0.1013   0.6584   0.2121     C
C       0.1013   0.6584   0.7879     C
C       0.1013   0.7121   0.1584     C
C       0.1013   0.7121   0.8416     C
C       0.1013   0.7879   0.3416     C
C       0.1013   0.7879   0.6584     C
C       0.1013   0.8416   0.2879     C
C       0.1013   0.8416   0.7121     C
C       0.1168   0.1752   0.3248     C
C       0.1168   0.1752   0.6752     C
C       0.1168   0.3248   0.1752     C
C       0.1168   0.3248   0.8248     C
C       0.1168   0.6752   0.1752     C
C       0.1168   0.6752   0.8248     C
C       0.1168   0.8248   0.3248     C
C       0.1168   0.8248   0.6752     C
C       0.1235   0.1235    0.264     C
C       0.1235   0.1235    0.736     C
C       0.1235    0.236   0.3765     C
C       0.1235    0.236   0.6235     C
C       0.1235    0.264   0.1235     C
C       0.1235    0.264   0.8765     C
C       0.1235   0.3765    0.236     C
C       0.1235   0.3765    0.764     C
C       0.1235   0.6235    0.236     C
C       0.1235   0.6235    0.764     C
C       0.1235    0.736   0.1235     C
C       0.1235    0.736   0.8765     C
C       0.1235    0.764   0.3765     C
C       0.1235    0.764   0.6235     C
C       0.1235   0.8765    0.264     C
C       0.1235   0.8765    0.736     C
C       0.1578   0.1578   0.3422     C
C       0.1578   0.1578   0.6578     C
C       0.1578   0.3422   0.1578     C
C       0.1578   0.3422   0.8422     C
C       0.1578   0.6578   0.1578     C
C       0.1578   0.6578   0.8422     C
C       0.1578   0.8422   0.3422     C
C       0.1578   0.8422   0.6578     C
C       0.1584   0.1013   0.2879     C
C       0.1584   0.1013   0.7121     C
C       0.1584   0.2121   0.3987     C
C       0.1584   0.2121   0.6013     C
C       0.1584   0.2879   0.1013     C
C       0.1584   0.2879   0.8987     C
C       0.1584   0.3987   0.2121     C
C       0.1584   0.3987   0.7879     C
C       0.1584   0.6013   0.2121     C
C       0.1584   0.6013   0.7879     C
C       0.1584   0.7121   0.1013     C
C       0.1584   0.7121   0.8987     C
C       0.1584   0.7879   0.3987     C
C       0.1584   0.7879   0.6013     C
C       0.1584   0.8987   0.2879     C
C       0.1584   0.8987   0.7121     C
O       0.1688   0.0404    0.228     O
O       0.1688   0.0404    0.772     O
O       0.1688    0.228   0.0404     O
O       0.1688    0.228   0.9596     O
O       0.1688    0.272   0.4596     O
O       0.1688    0.272   0.5404     O
O       0.1688   0.4596    0.272     O
O       0.1688   0.4596    0.728     O
O       0.1688   0.5404    0.272     O
O       0.1688   0.5404    0.728     O
O       0.1688    0.728   0.4596     O
O       0.1688    0.728   0.5404     O
O       0.1688    0.772   0.0404     O
O       0.1688    0.772   0.9596     O
O       0.1688   0.9596    0.228     O
O       0.1688   0.9596    0.772     O
C       0.1752   0.1168   0.3248     C
C       0.1752   0.1168   0.6752     C
C       0.1752   0.1752   0.3832     C
C       0.1752   0.1752   0.6168     C
C       0.1752   0.3248   0.1168     C
C       0.1752   0.3248   0.8832     C
C       0.1752   0.3832   0.1752     C
C       0.1752   0.3832   0.8248     C
C       0.1752   0.6168   0.1752     C
C       0.1752   0.6168   0.8248     C
C       0.1752   0.6752   0.1168     C
C       0.1752   0.6752   0.8832     C
C       0.1752   0.8248   0.3832     C
C       0.1752   0.8248   0.6168     C
C       0.1752   0.8832   0.3248     C
C       0.1752   0.8832   0.6752     C
C       0.1813   0.0626   0.2685     C
C       0.1813   0.0626   0.7315     C
C       0.1813   0.2315   0.4374     C
C       0.1813   0.2315   0.5626     C
C       0.1813   0.2685   0.0626     C
C       0.1813   0.2685   0.9374     C
C       0.1813   0.4374   0.2315     C
C       0.1813   0.4374   0.7685     C
C       0.1813   0.5626   0.2315     C
C       0.1813   0.5626   0.7685     C
C       0.1813   0.7315   0.0626     C
C       0.1813   0.7315   0.9374     C
C       0.1813   0.7685   0.4374     C
C       0.1813   0.7685   0.5626     C
C       0.1813   0.9374   0.2685     C
C       0.1813   0.9374   0.7315     C
Cu     0.19385      0.0  0.19385    Cu
Cu     0.19385      0.0  0.80615    Cu
Cu     0.19385  0.19385      0.0    Cu
Cu     0.19385  0.30615      0.5    Cu
Cu     0.19385      0.5  0.30615    Cu
Cu     0.19385      0.5  0.69385    Cu
Cu     0.19385  0.69385      0.5    Cu
Cu     0.19385  0.80615      0.0    Cu
C       0.2121   0.1013   0.3416     C
C       0.2121   0.1013   0.6584     C
C       0.2121   0.1584   0.3987     C
C       0.2121   0.1584   0.6013     C
C       0.2121   0.3416   0.1013     C
C       0.2121   0.3416   0.8987     C
C       0.2121   0.3987   0.1584     C
C       0.2121   0.3987   0.8416     C
C       0.2121   0.6013   0.1584     C
C       0.2121   0.6013   0.8416     C
C       0.2121   0.6584   0.1013     C
C       0.2121   0.6584   0.8987     C
C       0.2121   0.8416   0.3987     C
C       0.2121   0.8416   0.6013     C
C       0.2121   0.8987   0.3416     C
C       0.2121   0.8987   0.6584     C
O       0.2193   0.0437   0.2807     O
O       0.2193   0.0437   0.7193     O
O       0.2193   0.2193   0.4563     O
O       0.2193   0.2193   0.5437     O
O       0.2193   0.2807   0.0437     O
O       0.2193   0.2807   0.9563     O
O       0.2193   0.4563   0.2193     O
O       0.2193   0.4563   0.7807     O
O       0.2193   0.5437   0.2193     O
O       0.2193   0.5437   0.7807     O
O       0.2193   0.7193   0.0437     O
O       0.2193   0.7193   0.9563     O
O       0.2193   0.7807   0.4563     O
O       0.2193   0.7807   0.5437     O
O       0.2193   0.9563   0.2807     O
O       0.2193   0.9563   0.7193     O
O        0.228   0.0404   0.1688     O
O        0.228   0.0404   0.8312     O
O        0.228   0.1688   0.0404     O
O        0.228   0.1688   0.9596     O
O        0.228   0.3312   0.4596     O
O        0.228   0.3312   0.5404     O
O        0.228   0.4596   0.3312     O
O        0.228   0.4596   0.6688     O
O        0.228   0.5404   0.3312     O
O        0.228   0.5404   0.6688     O
O        0.228   0.6688   0.4596     O
O        0.228   0.6688   0.5404     O
O        0.228   0.8312   0.0404     O
O        0.228   0.8312   0.9596     O
O        0.228   0.9596   0.1688     O
O        0.228   0.9596   0.8312     O
C       0.2315   0.0626   0.3187     C
C       0.2315   0.0626   0.6813     C
C       0.2315   0.1813   0.4374     C
C       0.2315   0.1813   0.5626     C
C       0.2315   0.3187   0.0626     C
C       0.2315   0.3187   0.9374     C
C       0.2315   0.4374   0.1813     C
C       0.2315   0.4374   0.8187     C
C       0.2315   0.5626   0.1813     C
C       0.2315   0.5626   0.8187     C
C       0.2315   0.6813   0.0626     C
C       0.2315   0.6813   0.9374     C
C       0.2315   0.8187   0.4374     C
C       0.2315   0.8187   0.5626     C
C       0.2315   0.9374   0.3187     C
C       0.2315   0.9374   0.6813     C
C        0.236   0.1235   0.3765     C
C        0.236   0.1235   0.6235     C
C        0.236   0.3765   0.1235     C
C        0.236   0.3765   0.8765     C
C        0.236   0.6235   0.1235     C
C        0.236   0.6235   0.8765     C
C        0.236   0.8765   0.3765     C
C        0.236   0.8765   0.6235     C
Cu        0.25      0.0     0.25    Cu
Cu        0.25      0.0     0.75    Cu
Cu        0.25     0.25      0.0    Cu
Cu        0.25     0.25      0.5    Cu
Cu        0.25      0.5     0.25    Cu
Cu        0.25      0.5     0.75    Cu
Cu        0.25     0.75      0.0    Cu
Cu        0.25     0.75      0.5    Cu
C        0.264   0.1235   0.1235     C
C        0.264   0.1235   0.8765     C
C        0.264   0.3765   0.3765     C
C        0.264   0.3765   0.6235     C
C        0.264   0.6235   0.3765     C
C        0.264   0.6235   0.6235     C
C        0.264   0.8765   0.1235     C
C        0.264   0.8765   0.8765     C
C       0.2685   0.0626   0.1813     C
C       0.2685   0.0626   0.8187     C
C       0.2685   0.1813   0.0626     C
C       0.2685   0.1813   0.9374     C
C       0.2685   0.3187   0.4374     C
C       0.2685   0.3187   0.5626     C
C       0.2685   0.4374   0.3187     C
C       0.2685   0.4374   0.6813     C
C       0.2685   0.5626   0.3187     C
C       0.2685   0.5626   0.6813     C
C       0.2685   0.6813   0.4374     C
C       0.2685   0.6813   0.5626     C
C       0.2685   0.8187   0.0626     C
C       0.2685   0.8187   0.9374     C
C       0.2685   0.9374   0.1813     C
C       0.2685   0.9374   0.8187     C
O        0.272   0.0404   0.3312     O
O        0.272   0.0404   0.6688     O
O        0.272   0.1688   0.4596     O
O        0.272   0.1688   0.5404     O
O        0.272   0.3312   0.0404     O
O        0.272   0.3312   0.9596     O
O        0.272   0.4596   0.1688     O
O        0.272   0.4596   0.8312     O
O        0.272   0.5404   0.1688     O
O        0.272   0.5404   0.8312     O
O        0.272   0.6688   0.0404     O
O        0.272   0.6688   0.9596     O
O        0.272   0.8312   0.4596     O
O        0.272   0.8312   0.5404     O
O        0.272   0.9596   0.3312     O
O        0.272   0.9596   0.6688     O
O       0.2807   0.0437   0.2193     O
O       0.2807   0.0437   0.7807     O
O       0.2807   0.2193   0.0437     O
O       0.2807   0.2193   0.9563     O
O       0.2807   0.2807   0.4563     O
O       0.2807   0.2807   0.5437     O
O       0.2807   0.4563   0.2807     O
O       0.2807   0.4563   0.7193     O
O       0.2807   0.5437   0.2807     O
O       0.2807   0.5437   0.7193     O
O       0.2807   0.7193   0.4563     O
O       0.2807   0.7193   0.5437     O
O       0.2807   0.7807   0.0437     O
O       0.2807   0.7807   0.9563     O
O       0.2807   0.9563   0.2193     O
O       0.2807   0.9563   0.7807     O
C       0.2879   0.1013   0.1584     C
C       0.2879   0.1013   0.8416     C
C       0.2879   0.1584   0.1013     C
C       0.2879   0.1584   0.8987     C
C       0.2879   0.3416   0.3987     C
C       0.2879   0.3416   0.6013     C
C       0.2879   0.3987   0.3416     C
C       0.2879   0.3987   0.6584     C
C       0.2879   0.6013   0.3416     C
C       0.2879   0.6013   0.6584     C
C       0.2879   0.6584   0.3987     C
C       0.2879   0.6584   0.6013     C
C       0.2879   0.8416   0.1013     C
C       0.2879   0.8416   0.8987     C
C       0.2879   0.8987   0.1584     C
C       0.2879   0.8987   0.8416     C
Cu     0.30615      0.0  0.30615    Cu
Cu     0.30615      0.0  0.69385    Cu
Cu     0.30615  0.19385      0.5    Cu
Cu     0.30615  0.30615      0.0    Cu
Cu     0.30615      0.5  0.19385    Cu
Cu     0.30615      0.5  0.80615    Cu
Cu     0.30615  0.69385      0.0    Cu
Cu     0.30615  0.80615      0.5    Cu
C       0.3187   0.0626   0.2315     C
C       0.3187   0.0626   0.7685     C
C       0.3187   0.2315   0.0626     C
C       0.3187   0.2315   0.9374     C
C       0.3187   0.2685   0.4374     C
C       0.3187   0.2685   0.5626     C
C       0.3187   0.4374   0.2685     C
C       0.3187   0.4374   0.7315     C
C       0.3187   0.5626   0.2685     C
C       0.3187   0.5626   0.7315     C
C       0.3187   0.7315   0.4374     C
C       0.3187   0.7315   0.5626     C
C       0.3187   0.7685   0.0626     C
C       0.3187   0.7685   0.9374     C
C       0.3187   0.9374   0.2315     C
C       0.3187   0.9374   0.7685     C
C       0.3248   0.1168   0.1752     C
C       0.3248   0.1168   0.8248     C
C       0.3248   0.1752   0.1168     C
C       0.3248   0.1752   0.8832     C
C       0.3248   0.3248   0.3832     C
C       0.3248   0.3248   0.6168     C
C       0.3248   0.3832   0.3248     C
C       0.3248   0.3832   0.6752     C
C       0.3248   0.6168   0.3248     C
C       0.3248   0.6168   0.6752     C
C       0.3248   0.6752   0.3832     C
C       0.3248   0.6752   0.6168     C
C       0.3248   0.8248   0.1168     C
C       0.3248   0.8248   0.8832     C
C       0.3248   0.8832   0.1752     C
C       0.3248   0.8832   0.8248     C
O       0.3312   0.0404    0.272     O
O       0.3312   0.0404    0.728     O
O       0.3312    0.228   0.4596     O
O       0.3312    0.228   0.5404     O
O       0.3312    0.272   0.0404     O
O       0.3312    0.272   0.9596     O
O       0.3312   0.4596    0.228     O
O       0.3312   0.4596    0.772     O
O       0.3312   0.5404    0.228     O
O       0.3312   0.5404    0.772     O
O       0.3312    0.728   0.0404     O
O       0.3312    0.728   0.9596     O
O       0.3312    0.772   0.4596     O
O       0.3312    0.772   0.5404     O
O       0.3312   0.9596    0.272     O
O       0.3312   0.9596    0.728     O
C       0.3416   0.1013   0.2121     C
C       0.3416   0.1013   0.7879     C
C       0.3416   0.2121   0.1013     C
C       0.3416   0.2121   0.8987     C
C       0.3416   0.2879   0.3987     C
C       0.3416   0.2879   0.6013     C
C       0.3416   0.3987   0.2879     C
C       0.3416   0.3987   0.7121     C
C       0.3416   0.6013   0.2879     C
C       0.3416   0.6013   0.7121     C
C       0.3416   0.7121   0.3987     C
C       0.3416   0.7121   0.6013     C
C       0.3416   0.7879   0.1013     C
C       0.3416   0.7879   0.8987     C
C       0.3416   0.8987   0.2121     C
C       0.3416   0.8987   0.7879     C
C       0.3422   0.1578   0.1578     C
C       0.3422   0.1578   0.8422     C
C       0.3422   0.3422   0.3422     C
C       0.3422   0.3422   0.6578     C
C       0.3422   0.6578   0.3422     C
C       0.3422   0.6578   0.6578     C
C       0.3422   0.8422   0.1578     C
C       0.3422   0.8422   0.8422     C
C       0.3765   0.1235    0.236     C
C       0.3765   0.1235    0.764     C
C       0.3765    0.236   0.1235     C
C       0.3765    0.236   0.8765     C
C       0.3765    0.264   0.3765     C
C       0.3765    0.264   0.6235     C
C       0.3765   0.3765    0.264     C
C       0.3765   0.3765    0.736     C
C       0.3765   0.6235    0.264     C
C       0.3765   0.6235    0.736     C
C       0.3765    0.736   0.3765     C
C       0.3765    0.736   0.6235     C
C       0.3765    0.764   0.1235     C
C       0.3765    0.764   0.8765     C
C       0.3765   0.8765    0.236     C
C       0.3765   0.8765    0.764     C
C       0.3832   0.1752   0.1752     C
C       0.3832   0.1752   0.8248     C
C       0.3832   0.3248   0.3248     C
C       0.3832   0.3248   0.6752     C
C       0.3832   0.6752   0.3248     C
C       0.3832   0.6752   0.6752     C
C       0.3832   0.8248   0.1752     C
C       0.3832   0.8248   0.8248     C
C       0.3987   0.1584   0.2121     C
C       0.3987   0.1584   0.7879     C
C       0.3987   0.2121   0.1584     C
C       0.3987   0.2121   0.8416     C
C       0.3987   0.2879   0.3416     C
C       0.3987   0.2879   0.6584     C
C       0.3987   0.3416   0.2879     C
C       0.3987   0.3416   0.7121     C
C       0.3987   0.6584   0.2879     C
C       0.3987   0.6584   0.7121     C
C       0.3987   0.7121   0.3416     C
C       0.3987   0.7121   0.6584     C
C       0.3987   0.7879   0.1584     C
C       0.3987   0.7879   0.8416     C
C       0.3987   0.8416   0.2121     C
C       0.3987   0.8416   0.7879     C
C       0.4374   0.1813   0.2315     C
C       0.4374   0.1813   0.7685     C
C       0.4374   0.2315   0.1813     C
C       0.4374   0.2315   0.8187     C
C       0.4374   0.2685   0.3187     C
C       0.4374   0.2685   0.6813     C
C       0.4374   0.3187   0.2685     C
C       0.4374   0.3187   0.7315     C
C       0.4374   0.6813   0.2685     C
C       0.4374   0.6813   0.7315     C
C       0.4374   0.7315   0.3187     C
C       0.4374   0.7315   0.6813     C
C       0.4374   0.7685   0.1813     C
C       0.4374   0.7685   0.8187     C
C       0.4374   0.8187   0.2315     C
C       0.4374   0.8187   0.7685     C
O       0.4563   0.2193   0.2193     O
O       0.4563   0.2193   0.7807     O
O       0.4563   0.2807   0.2807     O
O       0.4563   0.2807   0.7193     O
O       0.4563   0.7193   0.2807     O
O       0.4563   0.7193   0.7193     O
O       0.4563   0.7807   0.2193     O
O       0.4563   0.7807   0.7807     O
O       0.4596   0.1688    0.272     O
O       0.4596   0.1688    0.728     O
O       0.4596    0.228   0.3312     O
O       0.4596    0.228   0.6688     O
O       0.4596    0.272   0.1688     O
O       0.4596    0.272   0.8312     O
O       0.4596   0.3312    0.228     O
O       0.4596   0.3312    0.772     O
O       0.4596   0.6688    0.228     O
O       0.4596   0.6688    0.772     O
O       0.4596    0.728   0.1688     O
O       0.4596    0.728   0.8312     O
O       0.4596    0.772   0.3312     O
O       0.4596    0.772   0.6688     O
O       0.4596   0.8312    0.272     O
O       0.4596   0.8312    0.728     O
Cu         0.5  0.19385  0.30615    Cu
Cu         0.5  0.19385  0.69385    Cu
Cu         0.5     0.25     0.25    Cu
Cu         0.5     0.25     0.75    Cu
Cu         0.5  0.30615  0.19385    Cu
Cu         0.5  0.30615  0.80615    Cu
Cu         0.5  0.69385  0.19385    Cu
Cu         0.5  0.69385  0.80615    Cu
Cu         0.5     0.75     0.25    Cu
Cu         0.5     0.75     0.75    Cu
Cu         0.5  0.80615  0.30615    Cu
Cu         0.5  0.80615  0.69385    Cu
O       0.5404   0.1688    0.272     O
O       0.5404   0.1688    0.728     O
O       0.5404    0.228   0.3312     O
O       0.5404    0.228   0.6688     O
O       0.5404    0.272   0.1688     O
O       0.5404    0.272   0.8312     O
O       0.5404   0.3312    0.228     O
O       0.5404   0.3312    0.772     O
O       0.5404   0.6688    0.228     O
O       0.5404   0.6688    0.772     O
O       0.5404    0.728   0.1688     O
O       0.5404    0.728   0.8312     O
O       0.5404    0.772   0.3312     O
O       0.5404    0.772   0.6688     O
O       0.5404   0.8312    0.272     O
O       0.5404   0.8312    0.728     O
O       0.5437   0.2193   0.2193     O
O       0.5437   0.2193   0.7807     O
O       0.5437   0.2807   0.2807     O
O       0.5437   0.2807   0.7193     O
O       0.5437   0.7193   0.2807     O
O       0.5437   0.7193   0.7193     O
O       0.5437   0.7807   0.2193     O
O       0.5437   0.7807   0.7807     O
C       0.5626   0.1813   0.2315     C
C       0.5626   0.1813   0.7685     C
C       0.5626   0.2315   0.1813     C
C       0.5626   0.2315   0.8187     C
C       0.5626   0.2685   0.3187     C
C       0.5626   0.2685   0.6813     C
C       0.5626   0.3187   0.2685     C
C       0.5626   0.3187   0.7315     C
C       0.5626   0.6813   0.2685     C
C       0.5626   0.6813   0.7315     C
C       0.5626   0.7315   0.3187     C
C       0.5626   0.7315   0.6813     C
C       0.5626   0.7685   0.1813     C
C       0.5626   0.7685   0.8187     C
C       0.5626   0.8187   0.2315     C
C       0.5626   0.8187   0.7685     C
C       0.6013   0.1584   0.2121     C
C       0.6013   0.1584   0.7879     C
C       0.6013   0.2121   0.1584     C
C       0.6013   0.2121   0.8416     C
C       0.6013   0.2879   0.3416     C
C       0.6013   0.2879   0.6584     C
C       0.6013   0.3416   0.2879     C
C       0.6013   0.3416   0.7121     C
C       0.6013   0.6584   0.2879     C
C       0.6013   0.6584   0.7121     C
C       0.6013   0.7121   0.3416     C
C       0.6013   0.7121   0.6584     C
C       0.6013   0.7879   0.1584     C
C       0.6013   0.7879   0.8416     C
C       0.6013   0.8416   0.2121     C
C       0.6013   0.8416   0.7879     C
C       0.6168   0.1752   0.1752     C
C       0.6168   0.1752   0.8248     C
C       0.6168   0.3248   0.3248     C
C       0.6168   0.3248   0.6752     C
C       0.6168   0.6752   0.3248     C
C       0.6168   0.6752   0.6752     C
C       0.6168   0.8248   0.1752     C
C       0.6168   0.8248   0.8248     C
C       0.6235   0.1235    0.236     C
C       0.6235   0.1235    0.764     C
C       0.6235    0.236   0.1235     C
C       0.6235    0.236   0.8765     C
C       0.6235    0.264   0.3765     C
C       0.6235    0.264   0.6235     C
C       0.6235   0.3765    0.264     C
C       0.6235   0.3765    0.736     C
C       0.6235   0.6235    0.264     C
C       0.6235   0.6235    0.736     C
C       0.6235    0.736   0.3765     C
C       0.6235    0.736   0.6235     C
C       0.6235    0.764   0.1235     C
C       0.6235    0.764   0.8765     C
C       0.6235   0.8765    0.236     C
C       0.6235   0.8765    0.764     C
C       0.6578   0.1578   0.1578     C
C       0.6578   0.1578   0.8422     C
C       0.6578   0.3422   0.3422     C
C       0.6578   0.3422   0.6578     C
C       0.6578   0.6578   0.3422     C
C       0.6578   0.6578   0.6578     C
C       0.6578   0.8422   0.1578     C
C       0.6578   0.8422   0.8422     C
C       0.6584   0.1013   0.2121     C
C       0.6584   0.1013   0.7879     C
C       0.6584   0.2121   0.1013     C
C       0.6584   0.2121   0.8987     C
C       0.6584   0.2879   0.3987     C
C       0.6584   0.2879   0.6013     C
C       0.6584   0.3987   0.2879     C
C       0.6584   0.3987   0.7121     C
C       0.6584   0.6013   0.2879     C
C       0.6584   0.6013   0.7121     C
C       0.6584   0.7121   0.3987     C
C       0.6584   0.7121   0.6013     C
C       0.6584   0.7879   0.1013     C
C       0.6584   0.7879   0.8987     C
C       0.6584   0.8987   0.2121     C
C       0.6584   0.8987   0.7879     C
O       0.6688   0.0404    0.272     O
O       0.6688   0.0404    0.728     O
O       0.6688    0.228   0.4596     O
O       0.6688    0.228   0.5404     O
O       0.6688    0.272   0.0404     O
O       0.6688    0.272   0.9596     O
O       0.6688   0.4596    0.228     O
O       0.6688   0.4596    0.772     O
O       0.6688   0.5404    0.228     O
O       0.6688   0.5404    0.772     O
O       0.6688    0.728   0.0404     O
O       0.6688    0.728   0.9596     O
O       0.6688    0.772   0.4596     O
O       0.6688    0.772   0.5404     O
O       0.6688   0.9596    0.272     O
O       0.6688   0.9596    0.728     O
C       0.6752   0.1168   0.1752     C
C       0.6752   0.1168   0.8248     C
C       0.6752   0.1752   0.1168     C
C       0.6752   0.1752   0.8832     C
C       0.6752   0.3248   0.3832     C
C       0.6752   0.3248   0.6168     C
C       0.6752   0.3832   0.3248     C
C       0.6752   0.3832   0.6752     C
C       0.6752   0.6168   0.3248     C
C       0.6752   0.6168   0.6752     C
C       0.6752   0.6752   0.3832     C
C       0.6752   0.6752   0.6168     C
C       0.6752   0.8248   0.1168     C
C       0.6752   0.8248   0.8832     C
C       0.6752   0.8832   0.1752     C
C       0.6752   0.8832   0.8248     C
C       0.6813   0.0626   0.2315     C
C       0.6813   0.0626   0.7685     C
C       0.6813   0.2315   0.0626     C
C       0.6813   0.2315   0.9374     C
C       0.6813   0.2685   0.4374     C
C       0.6813   0.2685   0.5626     C
C       0.6813   0.4374   0.2685     C
C       0.6813   0.4374   0.7315     C
C       0.6813   0.5626   0.2685     C
C       0.6813   0.5626   0.7315     C
C       0.6813   0.7315   0.4374     C
C       0.6813   0.7315   0.5626     C
C       0.6813   0.7685   0.0626     C
C       0.6813   0.7685   0.9374     C
C       0.6813   0.9374   0.2315     C
C       0.6813   0.9374   0.7685     C
Cu     0.69385      0.0  0.30615    Cu
Cu     0.69385      0.0  0.69385    Cu
Cu     0.69385  0.19385      0.5    Cu
Cu     0.69385  0.30615      0.0    Cu
Cu     0.69385      0.5  0.19385    Cu
Cu     0.69385      0.5  0.80615    Cu
Cu     0.69385  0.69385      0.0    Cu
Cu     0.69385  0.80615      0.5    Cu
C       0.7121   0.1013   0.1584     C
C       0.7121   0.1013   0.8416     C
C       0.7121   0.1584   0.1013     C
C       0.7121   0.1584   0.8987     C
C       0.7121   0.3416   0.3987     C
C       0.7121   0.3416   0.6013     C
C       0.7121   0.3987   0.3416     C
C       0.7121   0.3987   0.6584     C
C       0.7121   0.6013   0.3416     C
C       0.7121   0.6013   0.6584     C
C       0.7121   0.6584   0.3987     C
C       0.7121   0.6584   0.6013     C
C       0.7121   0.8416   0.1013     C
C       0.7121   0.8416   0.8987     C
C       0.7121   0.8987   0.1584     C
C       0.7121   0.8987   0.8416     C
O       0.7193   0.0437   0.2193     O
O       0.7193   0.0437   0.7807     O
O       0.7193   0.2193   0.0437     O
O       0.7193   0.2193   0.9563     O
O       0.7193   0.2807   0.4563     O
O       0.7193   0.2807   0.5437     O
O       0.7193   0.4563   0.2807     O
O       0.7193   0.4563   0.7193     O
O       0.7193   0.5437   0.2807     O
O       0.7193   0.5437   0.7193     O
O       0.7193   0.7193   0.4563     O
O       0.7193   0.7193   0.5437     O
O       0.7193   0.7807   0.0437     O
O       0.7193   0.7807   0.9563     O
O       0.7193   0.9563   0.2193     O
O       0.7193   0.9563   0.7807     O
O        0.728   0.0404   0.3312     O
O        0.728   0.0404   0.6688     O
O        0.728   0.1688   0.4596     O
O        0.728   0.1688   0.5404     O
O        0.728   0.3312   0.0404     O
O        0.728   0.3312   0.9596     O
O        0.728   0.4596   0.1688     O
O        0.728   0.4596   0.8312     O
O        0.728   0.5404   0.1688     O
O        0.728   0.5404   0.8312     O
O        0.728   0.6688   0.0404     O
O        0.728   0.6688   0.9596     O
O        0.728   0.8312   0.4596     O
O        0.728   0.8312   0.5404     O
O        0.728   0.9596   0.3312     O
O        0.728   0.9596   0.6688     O
C       0.7315   0.0626   0.1813     C
C       0.7315   0.0626   0.8187     C
C       0.7315   0.1813   0.0626     C
C       0.7315   0.1813   0.9374     C
C       0.7315   0.3187   0.4374     C
C       0.7315   0.3187   0.5626     C
C       0.7315   0.4374   0.3187     C
C       0.7315   0.4374   0.6813     C
C       0.7315   0.5626   0.3187     C
C       0.7315   0.5626   0.6813     C
C       0.7315   0.6813   0.4374     C
C       0.7315   0.6813   0.5626     C
C       0.7315   0.8187   0.0626     C
C       0.7315   0.8187   0.9374     C
C       0.7315   0.9374   0.1813     C
C       0.7315   0.9374   0.8187     C
C        0.736   0.1235   0.1235     C
C        0.736   0.1235   0.8765     C
C        0.736   0.3765   0.3765     C
C        0.736   0.3765   0.6235     C
C        0.736   0.6235   0.3765     C
C        0.736   0.6235   0.6235     C
C        0.736   0.8765   0.1235     C
C        0.736   0.8765   0.8765     C
Cu        0.75      0.0     0.25    Cu
Cu        0.75      0.0     0.75    Cu
Cu        0.75     0.25      0.0    Cu
Cu        0.75     0.25      0.5    Cu
Cu        0.75      0.5     0.25    Cu
Cu        0.75      0.5     0.75    Cu
Cu        0.75     0.75      0.0    Cu
Cu        0.75     0.75      0.5    Cu
C        0.764   0.1235   0.3765     C
C        0.764   0.1235   0.6235     C
C        0.764   0.3765   0.1235     C
C        0.764   0.3765   0.8765     C
C        0.764   0.6235   0.1235     C
C        0.764   0.6235   0.8765     C
C        0.764   0.8765   0.3765     C
C        0.764   0.8765   0.6235     C
C       0.7685   0.0626   0.3187     C
C       0.7685   0.0626   0.6813     C
C       0.7685   0.1813   0.4374     C
C       0.7685   0.1813   0.5626     C
C       0.7685   0.3187   0.0626     C
C       0.7685   0.3187   0.9374     C
C       0.7685   0.4374   0.1813     C
C       0.7685   0.4374   0.8187     C
C       0.7685   0.5626   0.1813     C
C       0.7685   0.5626   0.8187     C
C       0.7685   0.6813   0.0626     C
C       0.7685   0.6813   0.9374     C
C       0.7685   0.8187   0.4374     C
C       0.7685   0.8187   0.5626     C
C       0.7685   0.9374   0.3187     C
C       0.7685   0.9374   0.6813     C
O        0.772   0.0404   0.1688     O
O        0.772   0.0404   0.8312     O
O        0.772   0.1688   0.0404     O
O        0.772   0.1688   0.9596     O
O        0.772   0.3312   0.4596     O
O        0.772   0.3312   0.5404     O
O        0.772   0.4596   0.3312     O
O        0.772   0.4596   0.6688     O
O        0.772   0.5404   0.3312     O
O        0.772   0.5404   0.6688     O
O        0.772   0.6688   0.4596     O
O        0.772   0.6688   0.5404     O
O        0.772   0.8312   0.0404     O
O        0.772   0.8312   0.9596     O
O        0.772   0.9596   0.1688     O
O        0.772   0.9596   0.8312     O
O       0.7807   0.0437   0.2807     O
O       0.7807   0.0437   0.7193     O
O       0.7807   0.2193   0.4563     O
O       0.7807   0.2193   0.5437     O
O       0.7807   0.2807   0.0437     O
O       0.7807   0.2807   0.9563     O
O       0.7807   0.4563   0.2193     O
O       0.7807   0.4563   0.7807     O
O       0.7807   0.5437   0.2193     O
O       0.7807   0.5437   0.7807     O
O       0.7807   0.7193   0.0437     O
O       0.7807   0.7193   0.9563     O
O       0.7807   0.7807   0.4563     O
O       0.7807   0.7807   0.5437     O
O       0.7807   0.9563   0.2807     O
O       0.7807   0.9563   0.7193     O
C       0.7879   0.1013   0.3416     C
C       0.7879   0.1013   0.6584     C
C       0.7879   0.1584   0.3987     C
C       0.7879   0.1584   0.6013     C
C       0.7879   0.3416   0.1013     C
C       0.7879   0.3416   0.8987     C
C       0.7879   0.3987   0.1584     C
C       0.7879   0.3987   0.8416     C
C       0.7879   0.6013   0.1584     C
C       0.7879   0.6013   0.8416     C
C       0.7879   0.6584   0.1013     C
C       0.7879   0.6584   0.8987     C
C       0.7879   0.8416   0.3987     C
C       0.7879   0.8416   0.6013     C
C       0.7879   0.8987   0.3416     C
C       0.7879   0.8987   0.6584     C
Cu     0.80615      0.0  0.19385    Cu
Cu     0.80615      0.0  0.80615    Cu
Cu     0.80615  0.19385      0.0    Cu
Cu     0.80615  0.30615      0.5    Cu
Cu     0.80615      0.5  0.30615    Cu
Cu     0.80615      0.5  0.69385    Cu
Cu     0.80615  0.69385      0.5    Cu
Cu     0.80615  0.80615      0.0    Cu
C       0.8187   0.0626   0.2685     C
C       0.8187   0.0626   0.7315     C
C       0.8187   0.2315   0.4374     C
C       0.8187   0.2315   0.5626     C
C       0.8187   0.2685   0.0626     C
C       0.8187   0.2685   0.9374     C
C       0.8187   0.4374   0.2315     C
C       0.8187   0.4374   0.7685     C
C       0.8187   0.5626   0.2315     C
C       0.8187   0.5626   0.7685     C
C       0.8187   0.7315   0.0626     C
C       0.8187   0.7315   0.9374     C
C       0.8187   0.7685   0.4374     C
C       0.8187   0.7685   0.5626     C
C       0.8187   0.9374   0.2685     C
C       0.8187   0.9374   0.7315     C
C       0.8248   0.1168   0.3248     C
C       0.8248   0.1168   0.6752     C
C       0.8248   0.1752   0.3832     C
C       0.8248   0.1752   0.6168     C
C       0.8248   0.3248   0.1168     C
C       0.8248   0.3248   0.8832     C
C       0.8248   0.3832   0.1752     C
C       0.8248   0.3832   0.8248     C
C       0.8248   0.6168   0.1752     C
C       0.8248   0.6168   0.8248     C
C       0.8248   0.6752   0.1168     C
C       0.8248   0.6752   0.8832     C
C       0.8248   0.8248   0.3832     C
C       0.8248   0.8248   0.6168     C
C       0.8248   0.8832   0.3248     C
C       0.8248   0.8832   0.6752     C
O       0.8312   0.0404    0.228     O
O       0.8312   0.0404    0.772     O
O       0.8312    0.228   0.0404     O
O       0.8312    0.228   0.9596     O
O       0.8312    0.272   0.4596     O
O       0.8312    0.272   0.5404     O
O       0.8312   0.4596    0.272     O
O       0.8312   0.4596    0.728     O
O       0.8312   0.5404    0.272     O
O       0.8312   0.5404    0.728     O
O       0.8312    0.728   0.4596     O
O       0.8312    0.728   0.5404     O
O       0.8312    0.772   0.0404     O
O       0.8312    0.772   0.9596     O
O       0.8312   0.9596    0.228     O
O       0.8312   0.9596    0.772     O
C       0.8416   0.1013   0.2879     C
C       0.8416   0.1013   0.7121     C
C       0.8416   0.2121   0.3987     C
C       0.8416   0.2121   0.6013     C
C       0.8416   0.2879   0.1013     C
C       0.8416   0.2879   0.8987     C
C       0.8416   0.3987   0.2121     C
C       0.8416   0.3987   0.7879     C
C       0.8416   0.6013   0.2121     C
C       0.8416   0.6013   0.7879     C
C       0.8416   0.7121   0.1013     C
C       0.8416   0.7121   0.8987     C
C       0.8416   0.7879   0.3987     C
C       0.8416   0.7879   0.6013     C
C       0.8416   0.8987   0.2879     C
C       0.8416   0.8987   0.7121     C
C       0.8422   0.1578   0.3422     C
C       0.8422   0.1578   0.6578     C
C       0.8422   0.3422   0.1578     C
C       0.8422   0.3422   0.8422     C
C       0.8422   0.6578   0.1578     C
C       0.8422   0.6578   0.8422     C
C       0.8422   0.8422   0.3422     C
C       0.8422   0.8422   0.6578     C
C       0.8765   0.1235    0.264     C
C       0.8765   0.1235    0.736     C
C       0.8765    0.236   0.3765     C
C       0.8765    0.236   0.6235     C
C       0.8765    0.264   0.1235     C
C       0.8765    0.264   0.8765     C
C       0.8765   0.3765    0.236     C
C       0.8765   0.3765    0.764     C
C       0.8765   0.6235    0.236     C
C       0.8765   0.6235    0.764     C
C       0.8765    0.736   0.1235     C
C       0.8765    0.736   0.8765     C
C       0.8765    0.764   0.3765     C
C       0.8765    0.764   0.6235     C
C       0.8765   0.8765    0.264     C
C       0.8765   0.8765    0.736     C
C       0.8832   0.1752   0.3248     C
C       0.8832   0.1752   0.6752     C
C       0.8832   0.3248   0.1752     C
C       0.8832   0.3248   0.8248     C
C       0.8832   0.6752   0.1752     C
C       0.8832   0.6752   0.8248     C
C       0.8832   0.8248   0.3248     C
C       0.8832   0.8248   0.6752     C
C       0.8987   0.1584   0.2879     C
C       0.8987   0.1584   0.7121     C
C       0.8987   0.2121   0.3416     C
C       0.8987   0.2121   0.6584     C
C       0.8987   0.2879   0.1584     C
C       0.8987   0.2879   0.8416     C
C       0.8987   0.3416   0.2121     C
C       0.8987   0.3416   0.7879     C
C       0.8987   0.6584   0.2121     C
C       0.8987   0.6584   0.7879     C
C       0.8987   0.7121   0.1584     C
C       0.8987   0.7121   0.8416     C
C       0.8987   0.7879   0.3416     C
C       0.8987   0.7879   0.6584     C
C       0.8987   0.8416   0.2879     C
C       0.8987   0.8416   0.7121     C
C       0.9374   0.1813   0.2685     C
C       0.9374   0.1813   0.7315     C
C       0.9374   0.2315   0.3187     C
C       0.9374   0.2315   0.6813     C
C       0.9374   0.2685   0.1813     C
C       0.9374   0.2685   0.8187     C
C       0.9374   0.3187   0.2315     C
C       0.9374   0.3187   0.7685     C
C       0.9374   0.6813   0.2315     C
C       0.9374   0.6813   0.7685     C
C       0.9374   0.7315   0.1813     C
C       0.9374   0.7315   0.8187     C
C       0.9374   0.7685   0.3187     C
C       0.9374   0.7685   0.6813     C
C       0.9374   0.8187   0.2685     C
C       0.9374   0.8187   0.7315     C
O       0.9563   0.2193   0.2807     O
O       0.9563   0.2193   0.7193     O
O       0.9563   0.2807   0.2193     O
O       0.9563   0.2807   0.7807     O
O       0.9563   0.7193   0.2193     O
O       0.9563   0.7193   0.7807     O
O       0.9563   0.7807   0.2807     O
O       0.9563   0.7807   0.7193     O
O       0.9596   0.1688    0.228     O
O       0.9596   0.1688    0.772     O
O       0.9596    0.228   0.1688     O
O       0.9596    0.228   0.8312     O
O       0.9596    0.272   0.3312     O
O       0.9596    0.272   0.6688     O
O       0.9596   0.3312    0.272     O
O       0.9596   0.3312    0.728     O
O       0.9596   0.6688    0.272     O
O       0.9596   0.6688    0.728     O
O       0.9596    0.728   0.3312     O
O       0.9596    0.728   0.6688     O
O       0.9596    0.772   0.1688     O
O       0.9596    0.772   0.8312     O
O       0.9596   0.8312    0.228     O
O       0.9596   0.8312    0.772     O
