data_I
_chemical_name_common  '/home/zhangsd/repos/MofS-CGCNN/ML/data/TSD/clean_cifs/LIPQIL_clean'
_cell_length_a 21.14600
_cell_length_b 21.14600
_cell_length_c 21.14600
_cell_angle_alpha 90.00000
_cell_angle_beta  90.00000
_cell_angle_gamma 90.00000
_space_group_name_H-M_alt      'P 1'


loop_
_space_group_symop_operation_xyz
  'x, y, z' 

loop_
_atom_site_label
_atom_site_fract_x
_atom_site_fract_y
_atom_site_fract_z
_atom_site_type_symbol
C       0.0042   0.3862   0.6138     C
C       0.0042   0.6138   0.3862     C
C       0.0151   0.3425   0.6575     C
C       0.0151   0.6575   0.3425     C
H       0.0367   0.3976   0.3976     H
H       0.0367   0.6024   0.6024     H
N       0.0374   0.3109   0.3109     N
N       0.0374   0.6891   0.6891     N
H       0.0523   0.4455   0.5545     H
H       0.0523   0.5545   0.4455     H
H       0.0545   0.0545   0.4477     H
H       0.0545   0.4477   0.0545     H
H       0.0545   0.5523   0.9455     H
H       0.0545   0.9455   0.5523     H
H       0.0558    0.233   0.3641     H
H       0.0558   0.3641    0.233     H
H       0.0558   0.6359    0.767     H
H       0.0558    0.767   0.6359     H
C       0.0574   0.4146   0.5854     C
C       0.0574   0.5854   0.4146     C
C       0.0661   0.2566   0.3285     C
C       0.0661   0.3285   0.2566     C
C       0.0661   0.6715   0.7434     C
C       0.0661   0.7434   0.6715     C
C       0.0752   0.3255   0.6745     C
C       0.0752   0.6745   0.3255     C
H        0.081   0.2946   0.7054     H
H        0.081   0.7054   0.2946     H
H       0.0842   0.0842   0.3502     H
H       0.0842   0.3502   0.0842     H
H       0.0842   0.6498   0.9158     H
H       0.0842   0.9158   0.6498     H
C       0.0854   0.0854   0.4426     C
C       0.0854   0.4426   0.0854     C
C       0.0854   0.5574   0.9146     C
C       0.0854   0.9146   0.5574     C
H       0.1024   0.1024   0.5367     H
H       0.1024   0.4633   0.8976     H
H       0.1024   0.5367   0.1024     H
H       0.1024   0.8976   0.4633     H
C       0.1033   0.1033   0.3848     C
C       0.1033   0.3848   0.1033     C
C       0.1033   0.6152   0.8967     C
C       0.1033   0.8967   0.6152     C
N       0.1095   0.2427   0.2886     N
N       0.1095   0.2886   0.2427     N
N       0.1095   0.7114   0.7573     N
N       0.1095   0.7573   0.7114     N
C       0.1138   0.1138   0.4958     C
C       0.1138   0.4958   0.1138     C
C       0.1138   0.5042   0.8862     C
C       0.1138   0.8862   0.5042     C
C       0.1152   0.3967   0.6033     C
C       0.1152   0.6033   0.3967     C
N       0.1256   0.3525   0.6475     N
N       0.1256   0.6475   0.3525     N
H       0.1359    0.267   0.5558     H
H       0.1359   0.4442    0.733     H
H       0.1359   0.5558    0.267     H
H       0.1359    0.733   0.4442     H
N       0.1475   0.1475   0.3744     N
N       0.1475   0.3744   0.1475     N
N       0.1475   0.6256   0.8525     N
N       0.1475   0.8525   0.6256     N
H       0.1498   0.4158   0.5842     H
H       0.1498   0.5842   0.4158     H
C       0.1575   0.1575   0.4849     C
C       0.1575   0.4849   0.1575     C
C       0.1575   0.5151   0.8425     C
C       0.1575   0.8425   0.5151     C
C       0.1715   0.2434   0.5661     C
C       0.1715   0.4339   0.7566     C
C       0.1715   0.5661   0.2434     C
C       0.1715   0.7566   0.4339     C
Cu     0.17417  0.17417  0.28738    Cu
Cu     0.17417  0.28738  0.17417    Cu
Cu     0.17417  0.71262  0.82583    Cu
Cu     0.17417  0.82583  0.71262    Cu
C       0.1745   0.1745   0.4248     C
C       0.1745   0.4248   0.1745     C
C       0.1745   0.5752   0.8255     C
C       0.1745   0.8255   0.5752     C
N       0.1891   0.1891   0.5374     N
N       0.1891   0.4626   0.8109     N
N       0.1891   0.5374   0.1891     N
N       0.1891   0.8109   0.4626     N
O       0.2002   0.2002   0.2002     O
O       0.2002   0.7998   0.7998     O
H       0.2054   0.2054    0.419     H
H       0.2054    0.419   0.2054     H
H       0.2054    0.581   0.7946     H
H       0.2054   0.7946    0.581     H
N       0.2114   0.2573   0.6095     N
N       0.2114   0.3905   0.7427     N
N       0.2114   0.6095   0.2573     N
N       0.2114   0.7427   0.3905     N
Cu     0.21262  0.32583  0.67417    Cu
Cu     0.21262  0.67417  0.32583    Cu
H        0.233   0.0558   0.3641     H
H        0.233   0.3641   0.0558     H
H        0.233   0.6359   0.9442     H
H        0.233   0.9442   0.6359     H
N       0.2427   0.1095   0.2886     N
N       0.2427   0.2886   0.1095     N
N       0.2427   0.7114   0.8905     N
N       0.2427   0.8905   0.7114     N
C       0.2434   0.1715   0.5661     C
C       0.2434   0.4339   0.8285     C
C       0.2434   0.5661   0.1715     C
C       0.2434   0.8285   0.4339     C
C       0.2566   0.0661   0.3285     C
C       0.2566   0.3285   0.0661     C
C       0.2566   0.6715   0.9339     C
C       0.2566   0.9339   0.6715     C
N       0.2573   0.2114   0.6095     N
N       0.2573   0.3905   0.7886     N
N       0.2573   0.6095   0.2114     N
N       0.2573   0.7886   0.3905     N
H        0.267   0.1359   0.5558     H
H        0.267   0.4442   0.8641     H
H        0.267   0.5558   0.1359     H
H        0.267   0.8641   0.4442     H
Cu     0.28738  0.17417  0.17417    Cu
Cu     0.28738  0.82583  0.82583    Cu
N       0.2886   0.1095   0.2427     N
N       0.2886   0.2427   0.1095     N
N       0.2886   0.7573   0.8905     N
N       0.2886   0.8905   0.7573     N
H       0.2946    0.081   0.7054     H
H       0.2946   0.2946    0.919     H
H       0.2946   0.7054    0.081     H
H       0.2946    0.919   0.2946     H
O       0.2998   0.2998   0.7002     O
O       0.2998   0.7002   0.2998     O
N       0.3109   0.0374   0.3109     N
N       0.3109   0.3109   0.0374     N
N       0.3109   0.6891   0.9626     N
N       0.3109   0.9626   0.6891     N
C       0.3255   0.0752   0.6745     C
C       0.3255   0.3255   0.9248     C
C       0.3255   0.6745   0.0752     C
C       0.3255   0.9248   0.3255     C
Cu     0.32583  0.21262  0.67417    Cu
Cu     0.32583  0.32583  0.78738    Cu
Cu     0.32583  0.67417  0.21262    Cu
Cu     0.32583  0.78738  0.32583    Cu
C       0.3285   0.0661   0.2566     C
C       0.3285   0.2566   0.0661     C
C       0.3285   0.7434   0.9339     C
C       0.3285   0.9339   0.7434     C
C       0.3425   0.0151   0.6575     C
C       0.3425   0.3425   0.9849     C
C       0.3425   0.6575   0.0151     C
C       0.3425   0.9849   0.3425     C
H       0.3502   0.0842   0.0842     H
H       0.3502   0.9158   0.9158     H
N       0.3525   0.1256   0.6475     N
N       0.3525   0.3525   0.8744     N
N       0.3525   0.6475   0.1256     N
N       0.3525   0.8744   0.3525     N
H       0.3641   0.0558    0.233     H
H       0.3641    0.233   0.0558     H
H       0.3641    0.767   0.9442     H
H       0.3641   0.9442    0.767     H
N       0.3744   0.1475   0.1475     N
N       0.3744   0.8525   0.8525     N
C       0.3848   0.1033   0.1033     C
C       0.3848   0.8967   0.8967     C
C       0.3862   0.0042   0.6138     C
C       0.3862   0.3862   0.9958     C
C       0.3862   0.6138   0.0042     C
C       0.3862   0.9958   0.3862     C
N       0.3905   0.2114   0.7427     N
N       0.3905   0.2573   0.7886     N
N       0.3905   0.7427   0.2114     N
N       0.3905   0.7886   0.2573     N
C       0.3967   0.1152   0.6033     C
C       0.3967   0.3967   0.8848     C
C       0.3967   0.6033   0.1152     C
C       0.3967   0.8848   0.3967     C
H       0.3976   0.0367   0.3976     H
H       0.3976   0.3976   0.0367     H
H       0.3976   0.6024   0.9633     H
H       0.3976   0.9633   0.6024     H
C       0.4146   0.0574   0.5854     C
C       0.4146   0.4146   0.9426     C
C       0.4146   0.5854   0.0574     C
C       0.4146   0.9426   0.4146     C
H       0.4158   0.1498   0.5842     H
H       0.4158   0.4158   0.8502     H
H       0.4158   0.5842   0.1498     H
H       0.4158   0.8502   0.4158     H
H        0.419   0.2054   0.2054     H
H        0.419   0.7946   0.7946     H
C       0.4248   0.1745   0.1745     C
C       0.4248   0.8255   0.8255     C
C       0.4339   0.1715   0.7566     C
C       0.4339   0.2434   0.8285     C
C       0.4339   0.7566   0.1715     C
C       0.4339   0.8285   0.2434     C
C       0.4426   0.0854   0.0854     C
C       0.4426   0.9146   0.9146     C
H       0.4442   0.1359    0.733     H
H       0.4442    0.267   0.8641     H
H       0.4442    0.733   0.1359     H
H       0.4442   0.8641    0.267     H
H       0.4455   0.0523   0.5545     H
H       0.4455   0.4455   0.9477     H
H       0.4455   0.5545   0.0523     H
H       0.4455   0.9477   0.4455     H
H       0.4477   0.0545   0.0545     H
H       0.4477   0.9455   0.9455     H
N       0.4626   0.1891   0.8109     N
N       0.4626   0.8109   0.1891     N
H       0.4633   0.1024   0.8976     H
H       0.4633   0.8976   0.1024     H
C       0.4849   0.1575   0.1575     C
C       0.4849   0.8425   0.8425     C
C       0.4958   0.1138   0.1138     C
C       0.4958   0.8862   0.8862     C
C       0.5042   0.1138   0.8862     C
C       0.5042   0.8862   0.1138     C
C       0.5151   0.1575   0.8425     C
C       0.5151   0.8425   0.1575     C
H       0.5367   0.1024   0.1024     H
H       0.5367   0.8976   0.8976     H
N       0.5374   0.1891   0.1891     N
N       0.5374   0.8109   0.8109     N
H       0.5523   0.0545   0.9455     H
H       0.5523   0.9455   0.0545     H
H       0.5545   0.0523   0.4455     H
H       0.5545   0.4455   0.0523     H
H       0.5545   0.5545   0.9477     H
H       0.5545   0.9477   0.5545     H
H       0.5558   0.1359    0.267     H
H       0.5558    0.267   0.1359     H
H       0.5558    0.733   0.8641     H
H       0.5558   0.8641    0.733     H
C       0.5574   0.0854   0.9146     C
C       0.5574   0.9146   0.0854     C
C       0.5661   0.1715   0.2434     C
C       0.5661   0.2434   0.1715     C
C       0.5661   0.7566   0.8285     C
C       0.5661   0.8285   0.7566     C
C       0.5752   0.1745   0.8255     C
C       0.5752   0.8255   0.1745     C
H        0.581   0.2054   0.7946     H
H        0.581   0.7946   0.2054     H
H       0.5842   0.1498   0.4158     H
H       0.5842   0.4158   0.1498     H
H       0.5842   0.5842   0.8502     H
H       0.5842   0.8502   0.5842     H
C       0.5854   0.0574   0.4146     C
C       0.5854   0.4146   0.0574     C
C       0.5854   0.5854   0.9426     C
C       0.5854   0.9426   0.5854     C
H       0.6024   0.0367   0.6024     H
H       0.6024   0.3976   0.9633     H
H       0.6024   0.6024   0.0367     H
H       0.6024   0.9633   0.3976     H
C       0.6033   0.1152   0.3967     C
C       0.6033   0.3967   0.1152     C
C       0.6033   0.6033   0.8848     C
C       0.6033   0.8848   0.6033     C
N       0.6095   0.2114   0.2573     N
N       0.6095   0.2573   0.2114     N
N       0.6095   0.7427   0.7886     N
N       0.6095   0.7886   0.7427     N
C       0.6138   0.0042   0.3862     C
C       0.6138   0.3862   0.0042     C
C       0.6138   0.6138   0.9958     C
C       0.6138   0.9958   0.6138     C
C       0.6152   0.1033   0.8967     C
C       0.6152   0.8967   0.1033     C
N       0.6256   0.1475   0.8525     N
N       0.6256   0.8525   0.1475     N
H       0.6359   0.0558    0.767     H
H       0.6359    0.233   0.9442     H
H       0.6359    0.767   0.0558     H
H       0.6359   0.9442    0.233     H
N       0.6475   0.1256   0.3525     N
N       0.6475   0.3525   0.1256     N
N       0.6475   0.6475   0.8744     N
N       0.6475   0.8744   0.6475     N
H       0.6498   0.0842   0.9158     H
H       0.6498   0.9158   0.0842     H
C       0.6575   0.0151   0.3425     C
C       0.6575   0.3425   0.0151     C
C       0.6575   0.6575   0.9849     C
C       0.6575   0.9849   0.6575     C
C       0.6715   0.0661   0.7434     C
C       0.6715   0.2566   0.9339     C
C       0.6715   0.7434   0.0661     C
C       0.6715   0.9339   0.2566     C
Cu     0.67417  0.21262  0.32583    Cu
Cu     0.67417  0.32583  0.21262    Cu
Cu     0.67417  0.67417  0.78738    Cu
Cu     0.67417  0.78738  0.67417    Cu
C       0.6745   0.0752   0.3255     C
C       0.6745   0.3255   0.0752     C
C       0.6745   0.6745   0.9248     C
C       0.6745   0.9248   0.6745     C
N       0.6891   0.0374   0.6891     N
N       0.6891   0.3109   0.9626     N
N       0.6891   0.6891   0.0374     N
N       0.6891   0.9626   0.3109     N
O       0.7002   0.2998   0.2998     O
O       0.7002   0.7002   0.7002     O
H       0.7054    0.081   0.2946     H
H       0.7054   0.2946    0.081     H
H       0.7054   0.7054    0.919     H
H       0.7054    0.919   0.7054     H
N       0.7114   0.1095   0.7573     N
N       0.7114   0.2427   0.8905     N
N       0.7114   0.7573   0.1095     N
N       0.7114   0.8905   0.2427     N
Cu     0.71262  0.17417  0.82583    Cu
Cu     0.71262  0.82583  0.17417    Cu
H        0.733   0.1359   0.4442     H
H        0.733   0.4442   0.1359     H
H        0.733   0.5558   0.8641     H
H        0.733   0.8641   0.5558     H
N       0.7427   0.2114   0.3905     N
N       0.7427   0.3905   0.2114     N
N       0.7427   0.6095   0.7886     N
N       0.7427   0.7886   0.6095     N
C       0.7434   0.0661   0.6715     C
C       0.7434   0.3285   0.9339     C
C       0.7434   0.6715   0.0661     C
C       0.7434   0.9339   0.3285     C
C       0.7566   0.1715   0.4339     C
C       0.7566   0.4339   0.1715     C
C       0.7566   0.5661   0.8285     C
C       0.7566   0.8285   0.5661     C
N       0.7573   0.1095   0.7114     N
N       0.7573   0.2886   0.8905     N
N       0.7573   0.7114   0.1095     N
N       0.7573   0.8905   0.2886     N
H        0.767   0.0558   0.6359     H
H        0.767   0.3641   0.9442     H
H        0.767   0.6359   0.0558     H
H        0.767   0.9442   0.3641     H
Cu     0.78738  0.32583  0.32583    Cu
Cu     0.78738  0.67417  0.67417    Cu
N       0.7886   0.2573   0.3905     N
N       0.7886   0.3905   0.2573     N
N       0.7886   0.6095   0.7427     N
N       0.7886   0.7427   0.6095     N
H       0.7946   0.2054    0.581     H
H       0.7946    0.419   0.7946     H
H       0.7946    0.581   0.2054     H
H       0.7946   0.7946    0.419     H
O       0.7998   0.2002   0.7998     O
O       0.7998   0.7998   0.2002     O
N       0.8109   0.1891   0.4626     N
N       0.8109   0.4626   0.1891     N
N       0.8109   0.5374   0.8109     N
N       0.8109   0.8109   0.5374     N
C       0.8255   0.1745   0.5752     C
C       0.8255   0.4248   0.8255     C
C       0.8255   0.5752   0.1745     C
C       0.8255   0.8255   0.4248     C
Cu     0.82583  0.17417  0.71262    Cu
Cu     0.82583  0.28738  0.82583    Cu
Cu     0.82583  0.71262  0.17417    Cu
Cu     0.82583  0.82583  0.28738    Cu
C       0.8285   0.2434   0.4339     C
C       0.8285   0.4339   0.2434     C
C       0.8285   0.5661   0.7566     C
C       0.8285   0.7566   0.5661     C
C       0.8425   0.1575   0.5151     C
C       0.8425   0.4849   0.8425     C
C       0.8425   0.5151   0.1575     C
C       0.8425   0.8425   0.4849     C
H       0.8502   0.4158   0.4158     H
H       0.8502   0.5842   0.5842     H
N       0.8525   0.1475   0.6256     N
N       0.8525   0.3744   0.8525     N
N       0.8525   0.6256   0.1475     N
N       0.8525   0.8525   0.3744     N
H       0.8641    0.267   0.4442     H
H       0.8641   0.4442    0.267     H
H       0.8641   0.5558    0.733     H
H       0.8641    0.733   0.5558     H
N       0.8744   0.3525   0.3525     N
N       0.8744   0.6475   0.6475     N
C       0.8848   0.3967   0.3967     C
C       0.8848   0.6033   0.6033     C
C       0.8862   0.1138   0.5042     C
C       0.8862   0.4958   0.8862     C
C       0.8862   0.5042   0.1138     C
C       0.8862   0.8862   0.4958     C
N       0.8905   0.2427   0.7114     N
N       0.8905   0.2886   0.7573     N
N       0.8905   0.7114   0.2427     N
N       0.8905   0.7573   0.2886     N
C       0.8967   0.1033   0.6152     C
C       0.8967   0.3848   0.8967     C
C       0.8967   0.6152   0.1033     C
C       0.8967   0.8967   0.3848     C
H       0.8976   0.1024   0.4633     H
H       0.8976   0.4633   0.1024     H
H       0.8976   0.5367   0.8976     H
H       0.8976   0.8976   0.5367     H
C       0.9146   0.0854   0.5574     C
C       0.9146   0.4426   0.9146     C
C       0.9146   0.5574   0.0854     C
C       0.9146   0.9146   0.4426     C
H       0.9158   0.0842   0.6498     H
H       0.9158   0.3502   0.9158     H
H       0.9158   0.6498   0.0842     H
H       0.9158   0.9158   0.3502     H
H        0.919   0.2946   0.2946     H
H        0.919   0.7054   0.7054     H
C       0.9248   0.3255   0.3255     C
C       0.9248   0.6745   0.6745     C
C       0.9339   0.2566   0.6715     C
C       0.9339   0.3285   0.7434     C
C       0.9339   0.6715   0.2566     C
C       0.9339   0.7434   0.3285     C
C       0.9426   0.4146   0.4146     C
C       0.9426   0.5854   0.5854     C
H       0.9442    0.233   0.6359     H
H       0.9442   0.3641    0.767     H
H       0.9442   0.6359    0.233     H
H       0.9442    0.767   0.3641     H
H       0.9455   0.0545   0.5523     H
H       0.9455   0.4477   0.9455     H
H       0.9455   0.5523   0.0545     H
H       0.9455   0.9455   0.4477     H
H       0.9477   0.4455   0.4455     H
H       0.9477   0.5545   0.5545     H
N       0.9626   0.3109   0.6891     N
N       0.9626   0.6891   0.3109     N
H       0.9633   0.3976   0.6024     H
H       0.9633   0.6024   0.3976     H
C       0.9849   0.3425   0.3425     C
C       0.9849   0.6575   0.6575     C
C       0.9958   0.3862   0.3862     C
C       0.9958   0.6138   0.6138     C
