data_I
_chemical_name_common  '/home/zhangsd/repos/MofS-CGCNN/ML/data/TSD/clean_cifs/LIQDAS_clean'
_cell_length_a 20.17100
_cell_length_b 20.17100
_cell_length_c 26.19700
_cell_angle_alpha 90.00000
_cell_angle_beta  90.00000
_cell_angle_gamma 120.00000
_space_group_name_H-M_alt      'P 1'


loop_
_space_group_symop_operation_xyz
  'x, y, z' 

loop_
_atom_site_label
_atom_site_fract_x
_atom_site_fract_y
_atom_site_fract_z
_atom_site_type_symbol
Zn         0.0      0.0      0.0    Zn
Zn         0.0      0.0  0.12405    Zn
N          0.0      0.0  0.20179     N
N          0.0      0.0  0.29821     N
Zn         0.0      0.0  0.37595    Zn
Zn         0.0      0.0      0.5    Zn
Zn         0.0      0.0  0.62405    Zn
N          0.0      0.0  0.70179     N
N          0.0      0.0  0.79821     N
Zn         0.0      0.0  0.87595    Zn
O      0.00635  0.91622   0.0416     O
O      0.00635  0.91622   0.4584     O
H       0.0082   0.1044   0.2076     H
H       0.0082   0.1044   0.2924     H
H       0.0189   0.9102   0.2075     H
H       0.0189   0.9102   0.2925     H
H       0.0308   0.2045    0.009     H
H       0.0308   0.2045    0.491     H
C      0.03657  0.07951  0.22036     C
C      0.03657  0.07951  0.27964     C
C       0.0416  0.13058   0.5725     C
C       0.0416  0.13058   0.9275     C
C      0.04294  0.96343  0.22036     C
C      0.04294  0.96343  0.27964     C
O      0.05147  0.94162  0.61408     O
O      0.05147  0.94162  0.88592     O
O      0.05838  0.10985  0.61408     O
O      0.05838  0.10985  0.88592     O
C      0.06615  0.24017  0.51484     C
C      0.06615  0.24017  0.98516     C
C      0.07951  0.04294  0.72036     C
C      0.07951  0.04294  0.77964     C
C      0.08139  0.21373  0.56153     C
C      0.08139  0.21373  0.93847     C
O      0.08378  0.09013   0.0416     O
O      0.08378  0.09013   0.4584     O
C      0.08898   0.9584   0.5725     C
C      0.08898   0.9584   0.9275     C
H       0.0898   0.1087   0.2075     H
H       0.0898   0.1087   0.2925     H
O      0.09013  0.00635   0.5416     O
O      0.09013  0.00635   0.9584     O
H       0.0917   0.3329   0.0267     H
H       0.0917   0.3329   0.4733     H
H       0.0962   0.9918   0.2076     H
H       0.0962   0.9918   0.2924     H
C       0.1021    0.316  0.50457     C
C       0.1021    0.316  0.99543     C
H       0.1039   0.8575   0.6264     H
H       0.1039   0.8575   0.8736     H
H       0.1044   0.0962   0.7076     H
H       0.1044   0.0962   0.7924     H
H       0.1087   0.0189   0.7075     H
H       0.1087   0.0189   0.7925     H
O      0.10985  0.05147  0.11408     O
O      0.10985  0.05147  0.38592     O
C      0.13058  0.08898   0.0725     C
C      0.13058  0.08898   0.4275     C
C      0.13234  0.91861  0.56153     C
C      0.13234  0.91861  0.93847     C
C      0.13238   0.8676  0.59568     C
C      0.13238   0.8676  0.90432     C
C       0.1324  0.26478  0.59568     C
C       0.1324  0.26478  0.90432     C
H       0.1425   0.2464   0.6264     H
H       0.1425   0.2464   0.8736     H
H       0.1472   0.7672   0.6517     H
H       0.1472   0.7672   0.8483     H
C       0.1556  0.37145  0.53956     C
C       0.1556  0.37145  0.96044     C
C      0.17036  0.34399  0.58637     C
C      0.17036  0.34399  0.91363     C
C      0.17363  0.82964  0.58637     C
C      0.17363  0.82964  0.91363     C
H       0.1737   0.9692    0.009     H
H       0.1737   0.9692    0.491     H
C      0.17402  0.93385  0.51484     C
C      0.17402  0.93385  0.98516     C
C      0.17577  0.77812  0.62097     C
C      0.17577  0.77812  0.87903     C
O      0.17704  0.67721  0.69112     O
O      0.17704  0.67721  0.80888     O
H       0.1805   0.4691   0.5004     H
H       0.1805   0.4691   0.9996     H
Zn     0.18726  0.62189     0.75    Zn
C      0.19146  0.45082   0.5308     C
C      0.19146  0.45082   0.9692     C
H       0.2045   0.1737    0.509     H
H       0.2045   0.1737    0.991     H
C      0.21373  0.13234  0.06153     C
C      0.21373  0.13234  0.43847     C
C       0.2139   0.8979  0.50457     C
C       0.2139   0.8979  0.99543     C
C      0.21585   0.8444  0.53956     C
C      0.21585   0.8444  0.96044     C
C      0.21588  0.68777  0.65036     C
C      0.21588  0.68777  0.84964     C
C       0.2175  0.74274  0.61215     C
C       0.2175  0.74274  0.88785     C
C      0.22188  0.39765  0.62097     C
C      0.22188  0.39765  0.87903     C
H       0.2328     0.38   0.6517     H
H       0.2328     0.38   0.8483     H
C      0.24017  0.17402  0.01484     C
C      0.24017  0.17402  0.48516     C
H       0.2412   0.9083   0.0267     H
H       0.2412   0.9083   0.4733     H
C      0.24191  0.50222  0.56535     C
C      0.24191  0.50222  0.93465     C
H       0.2464   0.1039   0.1264     H
H       0.2464   0.1039   0.3736     H
O      0.24857  0.64911  0.64177     O
O      0.24857  0.64911  0.85823     O
C      0.25726  0.47476  0.61215     C
C      0.25726  0.47476  0.88785     C
C      0.25936  0.80854   0.5308     C
C      0.25936  0.80854   0.9692     C
C      0.26031  0.75809  0.56535     C
C      0.26031  0.75809  0.93465     C
C      0.26478  0.13238  0.09568     C
C      0.26478  0.13238  0.40432     C
O      0.27095  0.60214     0.75     O
O      0.27247  0.57639  0.55713     O
O      0.27247  0.57639  0.94287     O
H       0.2886   0.8195   0.5004     H
H       0.2886   0.8195   0.9996     H
O      0.30392  0.72753  0.55713     O
O      0.30392  0.72753  0.94287     O
C      0.31223  0.52811  0.65036     C
C      0.31223  0.52811  0.84964     C
C        0.316   0.2139  0.00457     C
C        0.316   0.2139  0.49543     C
O      0.32279  0.49983  0.69112     O
O      0.32279  0.49983  0.80888     O
O      0.33119  0.72905     0.75     O
H       0.3329   0.2412   0.5267     H
H       0.3329   0.2412   0.9733     H
Ti     0.33333  0.66667  0.59294    Ti
C      0.33333  0.66667     0.75     C
Ti     0.33333  0.66667  0.90706    Ti
C      0.34399  0.17363  0.08637     C
C      0.34399  0.17363  0.41363     C
O      0.35089  0.59946  0.64177     O
O      0.35089  0.59946  0.85823     O
C      0.37145  0.21585  0.03956     C
C      0.37145  0.21585  0.46044     C
Zn     0.37811  0.56537     0.75    Zn
H         0.38   0.1472   0.1517     H
H         0.38   0.1472   0.3483     H
C      0.39765  0.17577  0.12097     C
C      0.39765  0.17577  0.37903     C
O      0.39786  0.66881     0.75     O
O      0.40054  0.75143  0.64177     O
O      0.40054  0.75143  0.85823     O
O      0.42361  0.69608  0.55713     O
O      0.42361  0.69608  0.94287     O
Zn     0.43463  0.81274     0.75    Zn
C      0.45082  0.25936   0.0308     C
C      0.45082  0.25936   0.4692     C
H       0.4691   0.2886   0.0004     H
H       0.4691   0.2886   0.4996     H
C      0.47189  0.78412  0.65036     C
C      0.47189  0.78412  0.84964     C
C      0.47476   0.2175  0.11215     C
C      0.47476   0.2175  0.38785     C
C      0.49778  0.73969  0.56535     C
C      0.49778  0.73969  0.93465     C
O      0.49983  0.17704  0.19112     O
O      0.49983  0.17704  0.30888     O
O      0.50017  0.82296  0.69112     O
O      0.50017  0.82296  0.80888     O
C      0.50222  0.26031  0.06535     C
C      0.50222  0.26031  0.43465     C
C      0.52524   0.7825  0.61215     C
C      0.52524   0.7825  0.88785     C
C      0.52811  0.21588  0.15036     C
C      0.52811  0.21588  0.34964     C
H       0.5309   0.7114   0.5004     H
H       0.5309   0.7114   0.9996     H
C      0.54918  0.74064   0.5308     C
C      0.54918  0.74064   0.9692     C
Zn     0.56537  0.18726     0.25    Zn
O      0.57639  0.30392  0.05713     O
O      0.57639  0.30392  0.44287     O
O      0.59946  0.24857  0.14177     O
O      0.59946  0.24857  0.35823     O
O      0.60214  0.33119     0.25     O
C      0.60235  0.82423  0.62097     C
C      0.60235  0.82423  0.87903     C
H         0.62   0.8528   0.6517     H
H         0.62   0.8528   0.8483     H
Zn     0.62189  0.43463     0.25    Zn
C      0.62855  0.78415  0.53956     C
C      0.62855  0.78415  0.96044     C
O      0.64911  0.40054  0.14177     O
O      0.64911  0.40054  0.35823     O
C      0.65601  0.82637  0.58637     C
C      0.65601  0.82637  0.91363     C
Ti     0.66667  0.33333  0.09294    Ti
C      0.66667  0.33333     0.25     C
Ti     0.66667  0.33333  0.40706    Ti
H       0.6671   0.7588   0.0267     H
H       0.6671   0.7588   0.4733     H
O      0.66881  0.27095     0.25     O
O      0.67721  0.50017  0.19112     O
O      0.67721  0.50017  0.30888     O
C        0.684   0.7861  0.50457     C
C        0.684   0.7861  0.99543     C
C      0.68777  0.47189  0.15036     C
C      0.68777  0.47189  0.34964     C
O      0.69608  0.27247  0.05713     O
O      0.69608  0.27247  0.44287     O
H       0.7114   0.1805   0.0004     H
H       0.7114   0.1805   0.4996     H
O      0.72753  0.42361  0.05713     O
O      0.72753  0.42361  0.44287     O
O      0.72905  0.39786     0.25     O
C      0.73522  0.86762  0.59568     C
C      0.73522  0.86762  0.90432     C
C      0.73969  0.24191  0.06535     C
C      0.73969  0.24191  0.43465     C
C      0.74064  0.19146   0.0308     C
C      0.74064  0.19146   0.4692     C
C      0.74274  0.52524  0.11215     C
C      0.74274  0.52524  0.38785     C
O      0.75143  0.35089  0.14177     O
O      0.75143  0.35089  0.35823     O
H       0.7536   0.8961   0.6264     H
H       0.7536   0.8961   0.8736     H
C      0.75809  0.49778  0.06535     C
C      0.75809  0.49778  0.43465     C
H       0.7588   0.0917   0.5267     H
H       0.7588   0.0917   0.9733     H
C      0.75983  0.82598  0.51484     C
C      0.75983  0.82598  0.98516     C
H       0.7672     0.62   0.1517     H
H       0.7672     0.62   0.3483     H
C      0.77812  0.60235  0.12097     C
C      0.77812  0.60235  0.37903     C
C       0.7825  0.25726  0.11215     C
C       0.7825  0.25726  0.38785     C
C      0.78412  0.31223  0.15036     C
C      0.78412  0.31223  0.34964     C
C      0.78415   0.1556  0.03956     C
C      0.78415   0.1556  0.46044     C
C       0.7861   0.1021  0.00457     C
C       0.7861   0.1021  0.49543     C
C      0.78627  0.86766  0.56153     C
C      0.78627  0.86766  0.93847     C
H       0.7955   0.8263    0.009     H
H       0.7955   0.8263    0.491     H
C      0.80854  0.54918   0.0308     C
C      0.80854  0.54918   0.4692     C
Zn     0.81274  0.37811     0.25    Zn
H       0.8195   0.5309   0.0004     H
H       0.8195   0.5309   0.4996     H
O      0.82296  0.32279  0.19112     O
O      0.82296  0.32279  0.30888     O
C      0.82423  0.22188  0.12097     C
C      0.82423  0.22188  0.37903     C
C      0.82598  0.06615  0.01484     C
C      0.82598  0.06615  0.48516     C
H       0.8263   0.0308    0.509     H
H       0.8263   0.0308    0.991     H
C      0.82637  0.17036  0.08637     C
C      0.82637  0.17036  0.41363     C
C      0.82964  0.65601  0.08637     C
C      0.82964  0.65601  0.41363     C
C       0.8444  0.62855  0.03956     C
C       0.8444  0.62855  0.46044     C
H       0.8528   0.2328   0.1517     H
H       0.8528   0.2328   0.3483     H
H       0.8575   0.7536   0.1264     H
H       0.8575   0.7536   0.3736     H
C       0.8676  0.73522  0.09568     C
C       0.8676  0.73522  0.40432     C
C      0.86762   0.1324  0.09568     C
C      0.86762   0.1324  0.40432     C
C      0.86766  0.08139  0.06153     C
C      0.86766  0.08139  0.43847     C
C      0.86942  0.91102   0.5725     C
C      0.86942  0.91102   0.9275     C
O      0.89015  0.94853  0.61408     O
O      0.89015  0.94853  0.88592     O
H       0.8913   0.9811   0.2075     H
H       0.8913   0.9811   0.2925     H
H       0.8956   0.9038   0.2076     H
H       0.8956   0.9038   0.2924     H
H       0.8961   0.1425   0.1264     H
H       0.8961   0.1425   0.3736     H
C       0.8979    0.684  0.00457     C
C       0.8979    0.684  0.49543     C
H       0.9038   0.0082   0.7076     H
H       0.9038   0.0082   0.7924     H
H       0.9083   0.6671   0.5267     H
H       0.9083   0.6671   0.9733     H
O      0.90987  0.99365   0.0416     O
O      0.90987  0.99365   0.4584     O
H       0.9102   0.8913   0.7075     H
H       0.9102   0.8913   0.7925     H
C      0.91102   0.0416   0.0725     C
C      0.91102   0.0416   0.4275     C
O      0.91622  0.90987   0.5416     O
O      0.91622  0.90987   0.9584     O
C      0.91861  0.78627  0.06153     C
C      0.91861  0.78627  0.43847     C
C      0.92049  0.95706  0.22036     C
C      0.92049  0.95706  0.27964     C
C      0.93385  0.75983  0.01484     C
C      0.93385  0.75983  0.48516     C
O      0.94162  0.89015  0.11408     O
O      0.94162  0.89015  0.38592     O
O      0.94853  0.05838  0.11408     O
O      0.94853  0.05838  0.38592     O
C      0.95706  0.03657  0.72036     C
C      0.95706  0.03657  0.77964     C
C       0.9584  0.86942   0.0725     C
C       0.9584  0.86942   0.4275     C
C      0.96343  0.92049  0.72036     C
C      0.96343  0.92049  0.77964     C
H       0.9692   0.7955    0.509     H
H       0.9692   0.7955    0.991     H
H       0.9811   0.0898   0.7075     H
H       0.9811   0.0898   0.7925     H
H       0.9918   0.8956   0.7076     H
H       0.9918   0.8956   0.7924     H
O      0.99365  0.08378   0.5416     O
O      0.99365  0.08378   0.9584     O
