data_I
_chemical_name_common  '/home/zhangsd/repos/MofS-CGCNN/ML/data/TSD/clean_cifs/LISZOE_clean'
_cell_length_a 10.17210
_cell_length_b 11.64150
_cell_length_c 16.09200
_cell_angle_alpha 90.00000
_cell_angle_beta  90.00000
_cell_angle_gamma 105.70600
_space_group_name_H-M_alt      'P 1'


loop_
_space_group_symop_operation_xyz
  'x, y, z' 

loop_
_atom_site_label
_atom_site_fract_x
_atom_site_fract_y
_atom_site_fract_z
_atom_site_type_symbol
C       0.0015   0.1583  0.19215     C
C       0.0125   0.0684   0.1285     C
C       0.0183   0.6725  0.68942     C
C       0.0203   0.0578   0.5763     C
C       0.0292   0.5831  0.62429     C
H       0.0346   0.0965   0.6274     H
C       0.0485   0.0624   0.4278     C
C       0.0567   0.6233   0.9973     C
O       0.0595   0.8247  0.03113     O
C       0.0677   0.1199   0.5041     C
O       0.0774   0.4753  0.41164     O
H       0.0818   0.1043   0.3796     H
C       0.0825   0.4241   0.9916     C
Li      0.0949   0.1814   0.8995    Li
O       0.0967   0.0056  0.89648     O
O       0.0969   0.3166  0.55744     O
C       0.1068    0.331  0.27418     C
C       0.1165   0.2484  0.21477     C
C       0.1188   0.7556  0.99492     C
C       0.1237   0.8453   0.7711     C
O       0.1285   0.0665  0.10371     O
C       0.1328   0.7619   0.7123     C
C        0.137   0.2507  0.50689     C
H       0.1386   0.3733   0.9862     H
C       0.1389   0.5464   0.9883     C
O       0.1465   0.5713  0.60905     O
H       0.1846   0.3897   0.2901     H
H       0.2001   0.2528   0.1897     H
H       0.2014   0.9044   0.7864     H
H       0.2166   0.7655   0.6878     H
O       0.2303   0.7987   0.9586     O
H       0.2324   0.5772   0.9801     H
O        0.233   0.2949  0.45706     O
Y      0.24927  0.49915  0.50298     Y
Y      0.25073  0.00085  0.00298     Y
O        0.267   0.2051  0.95706     O
H       0.2676   0.9228   0.4801     H
O       0.2697   0.7013   0.4586     O
H       0.2834   0.7345   0.1878     H
H       0.2986   0.5956   0.2864     H
H       0.2999   0.2472   0.6897     H
H       0.3154   0.1103   0.7901     H
O       0.3535   0.9287  0.10905     O
C       0.3611   0.9536   0.4883     C
H       0.3614   0.1267   0.4862     H
C        0.363   0.2493  0.00689     C
C       0.3672   0.7381   0.2123     C
O       0.3715   0.4335  0.60371     O
C       0.3763   0.6547   0.2711     C
C       0.3812   0.7444  0.49492     C
C       0.3835   0.2516  0.71477     C
C       0.3932    0.169  0.77418     C
O       0.4031   0.1834  0.05744     O
O       0.4033   0.4944  0.39648     O
Li      0.4051   0.3186   0.3995    Li
C       0.4175   0.0759   0.4916     C
H       0.4182   0.3957   0.8796     H
O       0.4226   0.0247  0.91164     O
C       0.4323   0.3801   0.0041     C
O       0.4405   0.6753  0.53113     O
C       0.4433   0.8767   0.4973     C
C       0.4515   0.4376   0.9278     C
H       0.4654   0.4035   0.1274     H
C       0.4708   0.9169  0.12429     C
C       0.4797   0.4422   0.0763     C
C       0.4817   0.8275  0.18942     C
C       0.4875   0.4316   0.6285     C
C       0.4985   0.3417  0.69215     C
C       0.5015   0.6583  0.30785     C
C       0.5125   0.5684   0.3715     C
C       0.5183   0.1725  0.81058     C
C       0.5203   0.5578   0.9237     C
C       0.5292   0.0831  0.87571     C
H       0.5346   0.5965   0.8726     H
C       0.5485   0.5624   0.0722     C
C       0.5567   0.1233   0.5027     C
O       0.5595   0.3247  0.46887     O
C       0.5677   0.6199   0.9959     C
O       0.5774   0.9753  0.08836     O
H       0.5818   0.6043   0.1204     H
C       0.5825   0.9241   0.5084     C
Li      0.5949   0.6814   0.6005    Li
O       0.5967   0.5056  0.60352     O
O       0.5969   0.8166  0.94256     O
C       0.6068    0.831  0.22582     C
C       0.6165   0.7484  0.28523     C
C       0.6188   0.2556  0.50508     C
C       0.6237   0.3453   0.7289     C
O       0.6285   0.5665  0.39629     O
C       0.6328   0.2619   0.7877     C
C        0.637   0.7507  0.99311     C
H       0.6386   0.8733   0.5138     H
C       0.6389   0.0464   0.5117     C
O       0.6465   0.0713  0.89095     O
H       0.6846   0.8897   0.2099     H
H       0.7001   0.7528   0.3103     H
H       0.7014   0.4044   0.7136     H
H       0.7166   0.2655   0.8122     H
O       0.7303   0.2987   0.5414     O
H       0.7324   0.0772   0.5199     H
O        0.733   0.7949  0.04294     O
Y      0.74927  0.99915  0.99702     Y
Y      0.75073  0.50085  0.49702     Y
O        0.767   0.7051  0.54294     O
H       0.7676   0.4228   0.0199     H
O       0.7697   0.2013   0.0414     O
H       0.7834   0.2345   0.3122     H
H       0.7986   0.0956   0.2136     H
H       0.7999   0.7472   0.8103     H
H       0.8154   0.6103   0.7099     H
O       0.8535   0.4287  0.39095     O
C       0.8611   0.4536   0.0117     C
H       0.8614   0.6267   0.0138     H
C        0.863   0.7493  0.49311     C
C       0.8672   0.2381   0.2877     C
O       0.8715   0.9335  0.89629     O
C       0.8763   0.1547   0.2289     C
C       0.8812   0.2444  0.00508     C
C       0.8835   0.7516  0.78523     C
C       0.8932    0.669  0.72582     C
O       0.9031   0.6834  0.44256     O
O       0.9033   0.9944  0.10352     O
Li      0.9051   0.8186   0.1005    Li
C       0.9175   0.5759   0.0084     C
H       0.9182   0.8957   0.6204     H
O       0.9226   0.5247  0.58836     O
C       0.9323   0.8801   0.4959     C
O       0.9405   0.1753  0.96887     O
C       0.9433   0.3767   0.0027     C
C       0.9515   0.9376   0.5722     C
H       0.9654   0.9035   0.3726     H
C       0.9708   0.4169  0.37571     C
C       0.9797   0.9422   0.4237     C
C       0.9817   0.3275  0.31058     C
C       0.9875   0.9316   0.8715     C
C       0.9985   0.8417  0.80785     C
