data_I
_chemical_name_common  '/home/zhangsd/repos/MofS-CGCNN/ML/data/TSD/clean_cifs/LITCUO_clean'
_cell_length_a 10.16800
_cell_length_b 18.03500
_cell_length_c 27.05400
_cell_angle_alpha 90.00000
_cell_angle_beta  99.32100
_cell_angle_gamma 90.00000
_space_group_name_H-M_alt      'P 1'


loop_
_space_group_symop_operation_xyz
  'x, y, z' 

loop_
_atom_site_label
_atom_site_fract_x
_atom_site_fract_y
_atom_site_fract_z
_atom_site_type_symbol
C       0.0009   0.1739  0.17395     C
C       0.0009   0.3261  0.67395     C
H       0.0044   0.2033   0.2024     H
H       0.0044   0.2967   0.7024     H
C       0.0096   0.5857  0.41031     C
C       0.0096   0.9143  0.91031     C
C       0.0097     0.54  0.45619     C
C       0.0097     0.96  0.95619     C
H       0.0191    0.133   0.6458     H
H       0.0191    0.367   0.1458     H
C       0.0305   0.5865   0.0672     C
C       0.0305   0.9135   0.5672     C
O       0.0455   0.5935  0.01551     O
O       0.0455   0.9065  0.51551     O
H       0.0479   0.5366   0.0787     H
H       0.0479   0.9634   0.5787     H
H       0.0592   0.0998   0.4297     H
H       0.0592   0.4002   0.9297     H
O       0.0614    0.611  0.92421     O
O       0.0614    0.889  0.42421     O
C       0.0691   0.5229   0.5465     C
C       0.0691   0.9771   0.0465     C
C       0.0692   0.6288   0.8729     C
C       0.0692   0.8712   0.3729     C
C       0.0808   0.5632  0.50189     C
C       0.0808   0.9368  0.00189     C
H       0.0916   0.6197    0.087     H
H       0.0916   0.8803    0.587     H
C       0.1098   0.1143  0.11344     C
C       0.1098   0.3857  0.61344     C
H       0.1155    0.675   0.8716     H
H       0.1155    0.825   0.3716     H
C       0.1161   0.1571  0.15595     C
C       0.1161   0.3429  0.65595     C
H       0.1165   0.5902   0.8588     H
H       0.1165   0.9098   0.3588     H
C         0.12   0.6474   0.3502     C
C         0.12   0.8526   0.8502     C
H        0.123   0.2003   0.7772     H
H        0.123   0.2997   0.2772     H
C       0.1237   0.6027  0.39145     C
C       0.1237   0.8973  0.89145     C
H       0.1289   0.5266    0.622     H
H       0.1289   0.9734    0.122     H
C       0.1376   0.5508  0.59238     C
C       0.1376   0.9492  0.09238     C
C       0.1605   0.6288  0.50628     C
C       0.1605   0.8712  0.00628     C
C       0.1609   0.5721  0.00399     C
C       0.1609   0.9279  0.50399     C
H       0.1654   0.6571   0.4779     H
H       0.1654   0.8429   0.9779     H
H       0.1665   0.1849    0.308     H
H       0.1665   0.3151    0.808     H
C        0.169   0.5799  0.95175     C
C        0.169   0.9201  0.45175     C
H       0.1824   0.5964   0.6854     H
H       0.1824   0.9036   0.1854     H
H       0.1874   0.1045   0.1006     H
H       0.1874   0.3955   0.6006     H
H        0.194   0.1683   0.8241     H
H        0.194   0.3317   0.3241     H
O       0.1947   0.1938   0.7977     O
O       0.1947   0.3062   0.2977     O
H       0.2049   0.5835   0.4069     H
H       0.2049   0.9165   0.9069     H
C        0.215   0.6112  0.59418     C
C        0.215   0.8888  0.09418     C
O       0.2222   0.2255   0.3226     O
O       0.2222   0.2745   0.8226     O
C       0.2281   0.6502  0.55033     C
C       0.2281   0.8498  0.05033     C
H         0.24   0.7358   0.9962     H
H         0.24   0.7642   0.4962     H
O       0.2418  0.70493   0.2933     O
O       0.2418  0.79507   0.7933     O
C       0.2454   0.6676  0.33175     C
C       0.2454   0.8324  0.83175     C
H       0.2468   0.2232   0.3588     H
H       0.2468   0.2768   0.8588     H
C        0.248   0.1833  0.18185     C
C        0.248   0.3167  0.68185     C
O       0.2517  0.21696  0.22133     O
O       0.2517  0.28304  0.72133     O
H        0.262   0.5418   0.0692     H
H        0.262   0.9582   0.5692     H
C       0.2673   0.5458  0.03527     C
C       0.2673   0.9542  0.53527     C
C       0.2748   0.6026   0.6828     C
C       0.2748   0.8974   0.1828     C
C        0.281   0.5569  0.93445     C
C        0.281   0.9431  0.43445     C
H       0.2841   0.5607   0.9004     H
H       0.2841   0.9393   0.4004     H
O       0.2858   0.6408  0.63694     O
O       0.2858   0.8592  0.13694     O
O       0.3088   0.7111  0.55812     O
O       0.3088   0.7889  0.05812     O
H       0.3164   0.5548   0.6828     H
H       0.3164   0.9452   0.1828     H
H       0.3181    0.631   0.7107     H
H       0.3181    0.869   0.2107     H
C       0.3257   0.7473   0.0152     C
C       0.3257   0.7527   0.5152     C
O       0.3451  0.16851  0.16126     O
O       0.3451  0.33149  0.66126     O
O        0.355  0.64781  0.35658     O
O        0.355  0.85219  0.85658     O
Co     0.35915  0.23429  0.78309    Co
Co     0.35915  0.26571  0.28309    Co
H       0.3722   0.7021   0.0255     H
H       0.3722   0.7979   0.5255     H
H       0.3764   0.7243   0.4949     H
H       0.3764   0.7757   0.9949     H
C       0.3861   0.5242  0.01887     C
C       0.3861   0.9758  0.51887     C
C       0.3917   0.5278  0.96628     C
C       0.3917   0.9722  0.46628     C
O       0.4374   0.1552  0.74601     O
O       0.4374   0.3448  0.24601     O
O       0.4549  0.61749  0.25704     O
O       0.4549  0.88251  0.75704     O
H       0.4634   0.0151   0.7409     H
H       0.4634   0.4849   0.2409     H
Co      0.4693  0.69084  0.30951    Co
Co      0.4693  0.80916  0.80951    Co
C       0.4722   0.0129  0.70725     C
C       0.4722   0.4871  0.20725     C
C       0.4757   0.1511  0.70457     C
C       0.4757   0.3489  0.20457     C
C       0.4767  0.07735   0.6802     C
C       0.4767  0.42265   0.1802     C
C       0.4806  0.55416  0.18463     C
C       0.4806  0.94584  0.68463     C
O       0.4817  0.70285  0.81803     O
O       0.4817  0.79715  0.31803     O
O       0.4837  0.18283  0.30331     O
O       0.4837  0.31717  0.80331     O
C       0.4842  0.07321   0.6301     C
C       0.4842  0.42679   0.1301     C
H        0.485   0.1168   0.6118     H
H        0.485   0.3832   0.1118     H
C       0.4858   0.6243  0.21488     C
C       0.4858   0.8757  0.71488     C
C         0.49   0.5583  0.13426     C
C         0.49   0.9417  0.63426     C
C       0.4907   0.0061  0.60603     C
C       0.4907   0.4939  0.10603     C
C       0.4959   0.0029  0.55151     C
C       0.4959   0.4971  0.05151     C
H        0.496   0.6043   0.1192     H
H        0.496   0.8957   0.6192     H
H        0.504   0.1043   0.3808     H
H        0.504   0.3957   0.8808     H
C       0.5041   0.5029  0.94849     C
C       0.5041   0.9971  0.44849     C
C       0.5093   0.5061  0.89397     C
C       0.5093   0.9939  0.39397     C
C         0.51   0.0583  0.36574     C
C         0.51   0.4417  0.86574     C
C       0.5142   0.1243  0.28512     C
C       0.5142   0.3757  0.78512     C
H        0.515   0.6168   0.8882     H
H        0.515   0.8832   0.3882     H
C       0.5158  0.57321   0.8699     C
C       0.5158  0.92679   0.3699     C
O       0.5163  0.68283  0.19669     O
O       0.5163  0.81717  0.69669     O
O       0.5183  0.20285  0.68197     O
O       0.5183  0.29715  0.18197     O
C       0.5194  0.05416  0.31537     C
C       0.5194  0.44584  0.81537     C
C       0.5233  0.57735   0.8198     C
C       0.5233  0.92265   0.3198     C
C       0.5243   0.6511  0.79543     C
C       0.5243   0.8489  0.29543     C
C       0.5278   0.5129  0.79275     C
C       0.5278   0.9871  0.29275     C
Co      0.5307  0.19084  0.19049    Co
Co      0.5307  0.30916  0.69049    Co
H       0.5366   0.5151   0.7591     H
H       0.5366   0.9849   0.2591     H
O       0.5451  0.11749  0.24296     O
O       0.5451  0.38251  0.74296     O
O       0.5626   0.6552  0.75399     O
O       0.5626   0.8448  0.25399     O
C       0.6083   0.0278  0.53372     C
C       0.6083   0.4722  0.03372     C
C       0.6139   0.0242  0.48113     C
C       0.6139   0.4758  0.98113     C
H       0.6236   0.2243   0.0051     H
H       0.6236   0.2757   0.5051     H
H       0.6278   0.2021   0.4745     H
H       0.6278   0.2979   0.9745     H
Co     0.64085  0.73429  0.71691    Co
Co     0.64085  0.76571  0.21691    Co
O        0.645  0.14781  0.14342     O
O        0.645  0.35219  0.64342     O
O       0.6549  0.66851  0.33874     O
O       0.6549  0.83149  0.83874     O
C       0.6743   0.2473   0.4848     C
C       0.6743   0.2527   0.9848     C
H       0.6819    0.131   0.7893     H
H       0.6819    0.369   0.2893     H
H       0.6836   0.0548   0.8172     H
H       0.6836   0.4452   0.3172     H
O       0.6912   0.2111  0.94188     O
O       0.6912   0.2889  0.44188     O
O       0.7142   0.1408  0.86306     O
O       0.7142   0.3592  0.36306     O
H       0.7159   0.0607   0.5996     H
H       0.7159   0.4393   0.0996     H
C        0.719   0.0569  0.56555     C
C        0.719   0.4431  0.06555     C
C       0.7252   0.1026   0.8172     C
C       0.7252   0.3974   0.3172     C
C       0.7327   0.0458  0.46473     C
C       0.7327   0.4542  0.96473     C
H        0.738   0.0418   0.4308     H
H        0.738   0.4582   0.9308     H
O       0.7483  0.71696  0.27867     O
O       0.7483  0.78304  0.77867     O
C        0.752   0.6833  0.31815     C
C        0.752   0.8167  0.81815     C
H       0.7532   0.7232   0.1412     H
H       0.7532   0.7768   0.6412     H
C       0.7546   0.1676  0.16825     C
C       0.7546   0.3324  0.66825     C
O       0.7582  0.20493   0.2067     O
O       0.7582  0.29507   0.7067     O
H         0.76   0.2358   0.5038     H
H         0.76   0.2642   0.0038     H
C       0.7719   0.1502  0.94967     C
C       0.7719   0.3498  0.44967     C
O       0.7778   0.7255   0.1774     O
O       0.7778   0.7745   0.6774     O
C        0.785   0.1112  0.90582     C
C        0.785   0.3888  0.40582     C
H       0.7951   0.0835   0.0931     H
H       0.7951   0.4165   0.5931     H
O       0.8053   0.6938   0.7023     O
O       0.8053   0.8062   0.2023     O
H        0.806   0.6683   0.6759     H
H        0.806   0.8317   0.1759     H
H       0.8126   0.6045   0.3994     H
H       0.8126   0.8955   0.8994     H
H       0.8176   0.0964   0.8146     H
H       0.8176   0.4036   0.3146     H
C        0.831   0.0799  0.54825     C
C        0.831   0.4201  0.04825     C
H       0.8335   0.6849    0.192     H
H       0.8335   0.8151    0.692     H
H       0.8346   0.1571   0.0221     H
H       0.8346   0.3429   0.5221     H
C       0.8391   0.0721  0.49601     C
C       0.8391   0.4279  0.99601     C
C       0.8395   0.1288  0.99372     C
C       0.8395   0.3712  0.49372     C
C       0.8624   0.0508  0.90762     C
C       0.8624   0.4492  0.40762     C
H       0.8711   0.0266    0.878     H
H       0.8711   0.4734    0.378     H
C       0.8763   0.1027  0.10855     C
C       0.8763   0.3973  0.60855     C
H        0.877   0.7003   0.7228     H
H        0.877   0.7997   0.2228     H
C         0.88   0.1474   0.1498     C
C         0.88   0.3526   0.6498     C
H       0.8835   0.0902   0.6412     H
H       0.8835   0.4098   0.1412     H
C       0.8839   0.6571  0.34405     C
C       0.8839   0.8429  0.84405     C
H       0.8845    0.175   0.6284     H
H       0.8845    0.325   0.1284     H
C       0.8902   0.6143  0.38656     C
C       0.8902   0.8857  0.88656     C
H       0.9084   0.1197    0.413     H
H       0.9084   0.3803    0.913     H
C       0.9192   0.0632  0.99811     C
C       0.9192   0.4368  0.49811     C
C       0.9308   0.1288   0.6271     C
C       0.9308   0.3712   0.1271     C
C       0.9309   0.0229   0.9535     C
C       0.9309   0.4771   0.4535     C
O       0.9386    0.111  0.57579     O
O       0.9386    0.389  0.07579     O
H       0.9408   0.5998   0.0703     H
H       0.9408   0.9002   0.5703     H
H       0.9521   0.0366   0.4213     H
H       0.9521   0.4634   0.9213     H
O       0.9545   0.0935  0.48449     O
O       0.9545   0.4065  0.98449     O
C       0.9695   0.0865   0.4328     C
C       0.9695   0.4135   0.9328     C
H       0.9809    0.633   0.8542     H
H       0.9809    0.867   0.3542     H
C       0.9903     0.04  0.04381     C
C       0.9903     0.46  0.54381     C
C       0.9904   0.0857  0.08969     C
C       0.9904   0.4143  0.58969     C
H       0.9956   0.7033   0.2976     H
H       0.9956   0.7967   0.7976     H
C       0.9991   0.6739  0.32605     C
C       0.9991   0.8261  0.82605     C
