data_I
_chemical_name_common  '/home/zhangsd/repos/MofS-CGCNN/ML/data/TSD/clean_cifs/LITCOI_clean'
_cell_length_a 15.46760
_cell_length_b 13.19620
_cell_length_c 26.49700
_cell_angle_alpha 90.00000
_cell_angle_beta  98.72900
_cell_angle_gamma 90.00000
_space_group_name_H-M_alt      'P 1'


loop_
_space_group_symop_operation_xyz
  'x, y, z' 

loop_
_atom_site_label
_atom_site_fract_x
_atom_site_fract_y
_atom_site_fract_z
_atom_site_type_symbol
C       0.0025   0.0022  0.55298     C
C       0.0025   0.4978  0.05298     C
H       0.0038   0.5136   0.2501     H
H       0.0038   0.9864   0.7501     H
C       0.0039   0.0007  0.60985     C
C       0.0039   0.4993  0.10985     C
C       0.0041   0.5099   0.2151     C
C       0.0041   0.9901   0.7151     C
C       0.0562   0.5562  0.86748     C
C       0.0562   0.9438  0.36748     C
C        0.057   0.5502    0.815     C
C        0.057   0.9498    0.315     C
C       0.0622   0.0544   0.4776     C
C       0.0622   0.4456   0.9776     C
C        0.064   0.0574   0.5314     C
C        0.064   0.4426   0.0314     C
C       0.0646   0.5592  0.14011     C
C       0.0646   0.9408  0.64011     C
C       0.0653   0.5641  0.19337     C
C       0.0653   0.9359  0.69337     C
H       0.0963   0.5977   0.8875     H
H       0.0963   0.9023   0.3875     H
H       0.1051   0.5965   0.1252     H
H       0.1051   0.9035   0.6252     H
C       0.1253   0.6073  0.79232     C
C       0.1253   0.8927  0.29232     C
C       0.1266   0.1129  0.45633     C
C       0.1266   0.3871  0.95633     C
H        0.127   0.1115   0.4213     H
H        0.127   0.3885   0.9213     H
O        0.127   0.5988   0.7457     O
O        0.127   0.9012   0.2457     O
C        0.128   0.1185  0.56146     C
C        0.128   0.3815  0.06146     C
C       0.1293   0.6313  0.22548     C
C       0.1293   0.8687  0.72548     C
H       0.1294   0.1208   0.5967     H
H       0.1294   0.3792   0.0967     H
O       0.1299   0.6292  0.27264     O
O       0.1299   0.8708  0.77264     O
O       0.1779   0.6855  0.20243     O
O       0.1779   0.8145  0.70243     O
O       0.1811    0.657  0.82116     O
O       0.1811    0.843  0.32116     O
C        0.186   0.1693  0.48612     C
C        0.186   0.3307  0.98612     C
C       0.1868   0.1732  0.53995     C
C       0.1868   0.3268  0.03995     C
H       0.1942   0.2327   0.3969     H
H       0.1942   0.2673   0.8969     H
H       0.1949   0.2224   0.1231     H
H       0.1949   0.2776   0.6231     H
Cd     0.21126  0.67755  0.34551    Cd
Cd     0.21126  0.82245  0.84551    Cd
O       0.2496   0.2359  0.56512     O
O       0.2496   0.2641  0.06512     O
O       0.2498   0.2275  0.46932     O
O       0.2498   0.2725  0.96932     O
C       0.2508   0.2475   0.1174     C
C       0.2508   0.2525   0.6174     C
C       0.2523   0.2244   0.4151     C
C       0.2523   0.2756   0.9151     C
Cd     0.25407  0.68495  0.73937    Cd
Cd     0.25407  0.81505  0.23937    Cd
H       0.2632     0.19   0.6355     H
H       0.2632     0.31   0.1355     H
H       0.2755   0.1604   0.4063     H
H       0.2755   0.3396   0.9063     H
H       0.2889   0.2219   0.9061     H
H       0.2889   0.2781   0.4061     H
H       0.2953   0.1986   0.1293     H
H       0.2953   0.3014   0.6293     H
O      0.29562   0.5965  0.67431     O
O      0.29562   0.9035  0.17431     O
O      0.32596   0.7187  0.30355     O
O      0.32596   0.7813  0.80355     O
C       0.3484   0.5417  0.70325     C
C       0.3484   0.9583  0.20325     C
O      0.35152   0.5386  0.75114     O
O      0.35152   0.9614  0.25114     O
H       0.3776   0.5367   0.6086     H
H       0.3776   0.9633   0.1086     H
C       0.3911   0.6902  0.28305     C
C       0.3911   0.8098  0.78305     C
O       0.3987    0.714   0.2387     O
O       0.3987    0.786   0.7387     O
H         0.41   0.6379   0.3802     H
H         0.41   0.8621   0.8802     H
H       0.4108   0.1226   0.5653     H
H       0.4108   0.3774   0.0653     H
H       0.4124   0.2259   0.3442     H
H       0.4124   0.2741   0.8442     H
C       0.4139   0.0192  0.17911     C
C       0.4139   0.4808  0.67911     C
C       0.4192   0.0038  0.12805     C
C       0.4192   0.4962  0.62805     C
C       0.4545   0.6083  0.36533     C
C       0.4545   0.8917  0.86533     C
H       0.4548   0.1204   0.3361     H
H       0.4548   0.3796   0.8361     H
H       0.4589   0.0205   0.5575     H
H       0.4589   0.4795   0.0575     H
C       0.4591    0.626  0.31449     C
C       0.4591    0.874  0.81449     C
C       0.4617   0.1828  0.35499     C
C       0.4617   0.3172  0.85499     C
C       0.4618   0.0929   0.5547     C
C       0.4618   0.4071   0.0547     C
O       0.4656     0.12  0.50319     O
O       0.4656     0.38  0.00319     O
O        0.467   0.1615  0.40884     O
O        0.467   0.3385  0.90884     O
H       0.4697     0.22   0.0615     H
H       0.4697     0.28   0.5615     H
H         0.47   0.0938   0.2419     H
H         0.47   0.4062   0.7419     H
C        0.473   0.2195  0.49286     C
C        0.473   0.2805  0.99286     C
C        0.474   0.0815  0.20775     C
C        0.474   0.4185  0.70775     C
C       0.4757   0.2444  0.44086     C
C       0.4757   0.2556  0.94086     C
C       0.4758   0.2041  0.02799     C
C       0.4758   0.2959  0.52799     C
C       0.4846   0.0471  0.10536     C
C       0.4846   0.4529  0.60536     C
C       0.4852   0.1581  0.92622     C
C       0.4852   0.3419  0.42622     C
H       0.4857    0.716   0.1512     H
H       0.4857    0.784   0.6512     H
H       0.4862   0.1436    0.892     H
H       0.4862   0.3564    0.392     H
H       0.4868   0.6173   0.9238     H
H       0.4868   0.8827   0.4238     H
C       0.4878   0.1012  0.01479     C
C       0.4878   0.3988  0.51479     C
C       0.4929    0.023  0.05123     C
C       0.4929    0.477  0.55123     C
C       0.4936   0.0775  0.96276     C
C       0.4936   0.4225  0.46276     C
C       0.5064   0.5775  0.53724     C
C       0.5064   0.9225  0.03724     C
C       0.5071    0.523  0.44877     C
C       0.5071    0.977  0.94877     C
C       0.5122   0.6012  0.48521     C
C       0.5122   0.8988  0.98521     C
H       0.5132   0.1173   0.5762     H
H       0.5132   0.3827   0.0762     H
H       0.5138   0.6436    0.608     H
H       0.5138   0.8564    0.108     H
H       0.5143    0.216   0.3488     H
H       0.5143    0.284   0.8488     H
C       0.5148   0.6581  0.57378     C
C       0.5148   0.8419  0.07378     C
C       0.5154   0.5471  0.39464     C
C       0.5154   0.9529  0.89464     C
C       0.5242   0.7041  0.47201     C
C       0.5242   0.7959  0.97201     C
C       0.5243   0.7444  0.05914     C
C       0.5243   0.7556  0.55914     C
C        0.526   0.5815  0.29225     C
C        0.526   0.9185  0.79225     C
C        0.527   0.7195  0.00714     C
C        0.527   0.7805  0.50714     C
H         0.53   0.5938   0.2581     H
H         0.53   0.9062   0.7581     H
H       0.5303     0.72   0.4385     H
H       0.5303     0.78   0.9385     H
O        0.533   0.6615  0.09116     O
O        0.533   0.8385  0.59116     O
O       0.5344     0.62  0.99681     O
O       0.5344     0.88  0.49681     O
C       0.5382   0.5929   0.9453     C
C       0.5382   0.9071   0.4453     C
C       0.5383   0.6828  0.14501     C
C       0.5383   0.8172  0.64501     C
C       0.5409    0.126  0.18551     C
C       0.5409    0.374  0.68551     C
H       0.5411   0.5205   0.9425     H
H       0.5411   0.9795   0.4425     H
H       0.5452   0.6204   0.1639     H
H       0.5452   0.8796   0.6639     H
C       0.5455   0.1083  0.13467     C
C       0.5455   0.3917  0.63467     C
C       0.5808   0.5038  0.37195     C
C       0.5808   0.9962  0.87195     C
C       0.5861   0.5192  0.32089     C
C       0.5861   0.9808  0.82089     C
H       0.5876   0.7259   0.1558     H
H       0.5876   0.7741   0.6558     H
H       0.5892   0.6226   0.9347     H
H       0.5892   0.8774   0.4347     H
H         0.59   0.1379   0.1198     H
H         0.59   0.3621   0.6198     H
O       0.6013    0.214   0.2613     O
O       0.6013    0.286   0.7613     O
C       0.6089   0.1902  0.21695     C
C       0.6089   0.3098  0.71695     C
H       0.6224   0.0367   0.8914     H
H       0.6224   0.4633   0.3914     H
O      0.64848   0.0386  0.74886     O
O      0.64848   0.4614  0.24886     O
C       0.6516   0.0417  0.79675     C
C       0.6516   0.4583  0.29675     C
O      0.67404   0.2187  0.19645     O
O      0.67404   0.2813  0.69645     O
O      0.70438   0.0965  0.82569     O
O      0.70438   0.4035  0.32569     O
H       0.7047   0.6986   0.3707     H
H       0.7047   0.8014   0.8707     H
H       0.7111   0.7219   0.5939     H
H       0.7111   0.7781   0.0939     H
H       0.7245   0.6604   0.0937     H
H       0.7245   0.8396   0.5937     H
H       0.7368     0.69   0.8645     H
H       0.7368     0.81   0.3645     H
Cd     0.74593  0.18495  0.76063    Cd
Cd     0.74593  0.31505  0.26063    Cd
C       0.7477   0.7244   0.0849     C
C       0.7477   0.7756   0.5849     C
C       0.7492   0.7475   0.3826     C
C       0.7492   0.7525   0.8826     C
O       0.7502   0.7275  0.03068     O
O       0.7502   0.7725  0.53068     O
O       0.7504   0.7359  0.93488     O
O       0.7504   0.7641  0.43488     O
Cd     0.78874  0.17755  0.15449    Cd
Cd     0.78874  0.32245  0.65449    Cd
H       0.8051   0.7224   0.3769     H
H       0.8051   0.7776   0.8769     H
H       0.8058   0.7327   0.1031     H
H       0.8058   0.7673   0.6031     H
C       0.8132   0.6732  0.96005     C
C       0.8132   0.8268  0.46005     C
C        0.814   0.6693  0.01388     C
C        0.814   0.8307  0.51388     C
O       0.8189    0.157  0.67884     O
O       0.8189    0.343  0.17884     O
O       0.8221   0.1855  0.29757     O
O       0.8221   0.3145  0.79757     O
O       0.8701   0.1292  0.22736     O
O       0.8701   0.3708  0.72736     O
H       0.8706   0.6208   0.9033     H
H       0.8706   0.8792   0.4033     H
C       0.8707   0.1313  0.27452     C
C       0.8707   0.3687  0.77452     C
C        0.872   0.6185  0.93854     C
C        0.872   0.8815  0.43854     C
O        0.873   0.0988   0.7543     O
O        0.873   0.4012   0.2543     O
H        0.873   0.6115   0.0787     H
H        0.873   0.8885   0.5787     H
C       0.8734   0.6129  0.04367     C
C       0.8734   0.8871  0.54367     C
C       0.8747   0.1073  0.70768     C
C       0.8747   0.3927  0.20768     C
H       0.8949   0.0965   0.3748     H
H       0.8949   0.4035   0.8748     H
H       0.9037   0.0977   0.6125     H
H       0.9037   0.4023   0.1125     H
C       0.9347   0.0641  0.30663     C
C       0.9347   0.4359  0.80663     C
C       0.9354   0.0592  0.35989     C
C       0.9354   0.4408  0.85989     C
C        0.936   0.5574   0.9686     C
C        0.936   0.9426   0.4686     C
C       0.9378   0.5544   0.0224     C
C       0.9378   0.9456   0.5224     C
C        0.943   0.0502    0.685     C
C        0.943   0.4498    0.185     C
C       0.9438   0.0562  0.63252     C
C       0.9438   0.4438  0.13252     C
C       0.9959   0.0099   0.2849     C
C       0.9959   0.4901   0.7849     C
C       0.9961   0.5007  0.89015     C
C       0.9961   0.9993  0.39015     C
H       0.9962   0.0136   0.2499     H
H       0.9962   0.4864   0.7499     H
C       0.9975   0.5022  0.94702     C
C       0.9975   0.9978  0.44702     C
