data_I
_chemical_name_common  '/home/zhangsd/repos/MofS-CGCNN/ML/data/TSD/clean_cifs/LITDAV_clean'
_cell_length_a 10.10700
_cell_length_b 18.33800
_cell_length_c 27.08400
_cell_angle_alpha 90.00000
_cell_angle_beta  99.28500
_cell_angle_gamma 90.00000
_space_group_name_H-M_alt      'P 1'


loop_
_space_group_symop_operation_xyz
  'x, y, z' 

loop_
_atom_site_label
_atom_site_fract_x
_atom_site_fract_y
_atom_site_fract_z
_atom_site_type_symbol
C       0.0054  0.18081   0.6706     C
C       0.0054  0.31919   0.1706     C
C       0.0076   0.5905  0.91251     C
C       0.0076   0.9095  0.41251     C
C       0.0086   0.5428  0.95756     C
C       0.0086   0.9572  0.45756     C
H       0.0093    0.211   0.6984     H
H       0.0093    0.289   0.1984     H
H       0.0156    0.165   0.1339     H
H       0.0156    0.335   0.6339     H
C       0.0312   0.5779   0.5713     C
C       0.0312   0.9221   0.0713     C
O       0.0432   0.5917   0.5196     O
O       0.0432   0.9083   0.0196     O
H       0.0524   0.5278   0.5792     H
H       0.0524   0.9722   0.0792     H
H       0.0589   0.0878   0.9237     H
H       0.0589   0.4122   0.4237     H
O       0.0599   0.6157  0.42883     O
O       0.0599   0.8843  0.92883     O
C       0.0646   0.5227  0.04769     C
C       0.0646   0.9773  0.54769     C
C       0.0654   0.6394    0.379     C
C       0.0654   0.8606    0.879     C
C        0.074   0.5653  0.00403     C
C        0.074   0.9347  0.50403     C
H       0.0747   0.5978   0.3583     H
H       0.0747   0.9022   0.8583     H
H       0.0922   0.6088   0.5927     H
H       0.0922   0.8912   0.0927     H
C       0.1132  0.11823  0.61127     C
C       0.1132  0.38177  0.11127     C
C       0.1163   0.6545  0.85284     C
C       0.1163   0.8455  0.35284     C
H        0.121   0.5231    0.124     H
H        0.121   0.9769    0.624     H
C       0.1214  0.16262  0.65298     C
C       0.1214  0.33738  0.15298     C
C       0.1234   0.6091  0.89433     C
C       0.1234   0.8909  0.39433     C
C       0.1292   0.5493   0.0953     C
C       0.1292   0.9507   0.5953     C
H       0.1408   0.6713   0.3792     H
H       0.1408   0.8287   0.8792     H
C       0.1505   0.6315  0.01082     C
C       0.1505   0.8685  0.51082     C
H       0.1508   0.5995   0.1882     H
H       0.1508   0.9005   0.6882     H
H       0.1556   0.6608   0.9832     H
H       0.1556   0.8392   0.4832     H
C       0.1613   0.5712  0.50672     C
C       0.1613   0.9288  0.00672     C
C       0.1679   0.5817  0.45464     C
C       0.1679   0.9183  0.95464     C
H       0.1912   0.1067   0.5989     H
H       0.1912   0.3933   0.0989     H
C       0.2012   0.6113  0.09945     C
C       0.2012   0.8887  0.59945     C
H       0.2059   0.5912   0.9098     H
H       0.2059   0.9088   0.4098     H
C        0.215   0.6524   0.0559     C
C        0.215   0.8476   0.5559     C
H       0.2232   0.7218   0.5093     H
H       0.2232   0.7782   0.0093     H
O       0.2355  0.71331  0.79485     O
O       0.2355  0.78669  0.29485     O
C       0.2417   0.6759    0.833     C
C       0.2417   0.8241    0.333     C
C       0.2452   0.6047  0.18812     C
C       0.2452   0.8953  0.68812     C
C       0.2525   0.1896  0.67893     C
C       0.2525   0.3104  0.17893     C
O        0.254  0.22723  0.71644     O
O        0.254  0.27277  0.21644     O
H       0.2612   0.5377   0.5708     H
H       0.2612   0.9623   0.0708     H
O       0.2663  0.63997  0.14279     O
O       0.2663  0.86003  0.64279     O
C       0.2664   0.5438  0.53711     C
C       0.2664   0.9562  0.03711     C
C       0.2756   0.5603  0.43582     C
C       0.2756   0.9397  0.93582     C
H        0.277   0.5656   0.4018     H
H        0.277   0.9344   0.9018     H
H       0.2843   0.6335   0.2163     H
H       0.2843   0.8665   0.7163     H
H       0.2865   0.5574   0.1901     H
H       0.2865   0.9426   0.6901     H
O       0.2928  0.71287   0.0652     O
O       0.2928  0.78713   0.5652     O
C       0.3079   0.7435   0.5228     C
C       0.3079   0.7565   0.0228     C
H        0.338   0.7265   0.9978     H
H        0.338   0.7735   0.4978     H
O       0.3532  0.17042  0.66067     O
O       0.3532  0.32958  0.16067     O
O       0.3533  0.65435  0.85613     O
O       0.3533  0.84565  0.35613     O
Zn     0.36333  0.23013  0.28082    Zn
Zn     0.36333  0.26987  0.78082    Zn
H       0.3725   0.7057   0.5328     H
H       0.3725   0.7943   0.0328     H
C       0.3869  0.52327  0.51929     C
C       0.3869  0.97673  0.01929     C
C       0.3899  0.52919  0.46752     C
C       0.3899  0.97081  0.96752     C
O       0.4336  0.14691  0.24881     O
O       0.4336  0.35309  0.74881     O
O       0.4423  0.17677  0.80357     O
O       0.4423  0.32323  0.30357     O
O       0.4482  0.62758  0.75157     O
O       0.4482  0.87242  0.25157     O
H       0.4638     0.01   0.2413     H
H       0.4638     0.49   0.7413     H
Zn     0.46427  0.69607  0.80758    Zn
Zn     0.46427  0.80393  0.30758    Zn
C       0.4743  0.14519  0.20772     C
C       0.4743  0.35481  0.70772     C
C       0.4753  0.00925  0.20789     C
C       0.4753  0.49075  0.70789     C
C       0.4777  0.07361  0.18182     C
C       0.4777  0.42639  0.68182     C
O       0.4835  0.69871  0.31377     O
O       0.4835  0.80129  0.81377     O
C        0.487  0.07191  0.13195     C
C        0.487  0.42809  0.63195     C
H       0.4889   0.1157   0.1147     H
H       0.4889   0.3843   0.6147     H
C       0.4901  0.55604  0.68447     C
C       0.4901  0.94396  0.18447     C
H       0.4905   0.1015   0.8816     H
H       0.4905   0.3985   0.3816     H
C       0.4935  0.00727  0.10651     C
C       0.4935  0.49273  0.60651     C
C       0.4984  0.00493  0.05174     C
C       0.4984  0.49507  0.55174     C
C       0.4993  0.55723  0.63405     C
C       0.4993  0.94277  0.13405     C
C       0.4995   0.6262  0.71326     C
C       0.4995   0.8738  0.21326     C
C       0.5005   0.1262  0.78674     C
C       0.5005   0.3738  0.28674     C
C       0.5007  0.05723  0.86595     C
C       0.5007  0.44277  0.36595     C
C       0.5016  0.50493  0.44826     C
C       0.5016  0.99507  0.94826     C
C       0.5065  0.50727  0.39349     C
C       0.5065  0.99273  0.89349     C
H       0.5095   0.6015   0.6184     H
H       0.5095   0.8985   0.1184     H
C       0.5099  0.05604  0.81553     C
C       0.5099  0.44396  0.31553     C
H       0.5111   0.6157   0.3853     H
H       0.5111   0.8843   0.8853     H
C        0.513  0.57191  0.36805     C
C        0.513  0.92809  0.86805     C
O       0.5165  0.19871  0.18623     O
O       0.5165  0.30129  0.68623     O
C       0.5223  0.57361  0.31818     C
C       0.5223  0.92639  0.81818     C
C       0.5247  0.50925  0.29211     C
C       0.5247  0.99075  0.79211     C
C       0.5257  0.64519  0.29228     C
C       0.5257  0.85481  0.79228     C
Zn     0.53573  0.19607  0.69242    Zn
Zn     0.53573  0.30393  0.19242    Zn
H       0.5362     0.51   0.2587     H
H       0.5362     0.99   0.7587     H
O       0.5518  0.12758  0.74843     O
O       0.5518  0.37242  0.24843     O
O       0.5577  0.67677  0.69643     O
O       0.5577  0.82323  0.19643     O
O       0.5664  0.64691  0.25119     O
O       0.5664  0.85309  0.75119     O
C       0.6101  0.02919  0.03248     C
C       0.6101  0.47081  0.53248     C
C       0.6131  0.02327  0.98071     C
C       0.6131  0.47673  0.48071     C
H       0.6275   0.2057   0.9672     H
H       0.6275   0.2943   0.4672     H
Zn     0.63667  0.73013  0.21918    Zn
Zn     0.63667  0.76987  0.71918    Zn
O       0.6467  0.15435  0.64387     O
O       0.6467  0.34565  0.14387     O
O       0.6468  0.67042  0.83933     O
O       0.6468  0.82958  0.33933     O
H        0.662   0.2265   0.5022     H
H        0.662   0.2735   0.0022     H
C       0.6921   0.2435   0.9772     C
C       0.6921   0.2565   0.4772     C
O       0.7072  0.21287   0.4348     O
O       0.7072  0.28713   0.9348     O
H       0.7135   0.0574   0.3099     H
H       0.7135   0.4426   0.8099     H
H       0.7157   0.1335   0.2837     H
H       0.7157   0.3665   0.7837     H
H        0.723   0.0656   0.0982     H
H        0.723   0.4344   0.5982     H
C       0.7244   0.0603  0.06418     C
C       0.7244   0.4397  0.56418     C
C       0.7336   0.0438  0.96289     C
C       0.7336   0.4562  0.46289     C
O       0.7337  0.13997  0.35721     O
O       0.7337  0.36003  0.85721     O
H       0.7388   0.0377   0.9292     H
H       0.7388   0.4623   0.4292     H
O        0.746  0.72723  0.78356     O
O        0.746  0.77277  0.28356     O
C       0.7475   0.6896  0.82107     C
C       0.7475   0.8104  0.32107     C
C       0.7548   0.1047  0.31188     C
C       0.7548   0.3953  0.81188     C
C       0.7583   0.1759    0.667     C
C       0.7583   0.3241    0.167     C
O       0.7645  0.21331  0.70515     O
O       0.7645  0.28669  0.20515     O
H       0.7768   0.2218   0.9907     H
H       0.7768   0.2782   0.4907     H
C        0.785   0.1524   0.4441     C
C        0.785   0.3476   0.9441     C
H       0.7941   0.0912   0.5902     H
H       0.7941   0.4088   0.0902     H
C       0.7988   0.1113  0.40055     C
C       0.7988   0.3887  0.90055     C
H       0.8088   0.6067   0.9011     H
H       0.8088   0.8933   0.4011     H
C       0.8321   0.0817  0.04536     C
C       0.8321   0.4183  0.54536     C
C       0.8387   0.0712  0.99328     C
C       0.8387   0.4288  0.49328     C
H       0.8444   0.1608   0.5168     H
H       0.8444   0.3392   0.0168     H
H       0.8492   0.0995   0.3118     H
H       0.8492   0.4005   0.8118     H
C       0.8495   0.1315  0.48918     C
C       0.8495   0.3685  0.98918     C
H       0.8592   0.1713   0.1208     H
H       0.8592   0.3287   0.6208     H
C       0.8708   0.0493   0.4047     C
C       0.8708   0.4507   0.9047     C
C       0.8766   0.1091  0.60567     C
C       0.8766   0.3909  0.10567     C
C       0.8786  0.66262  0.84702     C
C       0.8786  0.83738  0.34702     C
H        0.879   0.0231    0.376     H
H        0.879   0.4769    0.876     H
C       0.8837   0.1545  0.64716     C
C       0.8837   0.3455  0.14716     C
C       0.8868  0.61823  0.88873     C
C       0.8868  0.88177  0.38873     C
H       0.9078   0.1088   0.9073     H
H       0.9078   0.3912   0.4073     H
H       0.9253   0.0978   0.1417     H
H       0.9253   0.4022   0.6417     H
C        0.926   0.0653  0.49597     C
C        0.926   0.4347  0.99597     C
C       0.9346   0.1394    0.121     C
C       0.9346   0.3606    0.621     C
C       0.9354   0.0227  0.45231     C
C       0.9354   0.4773  0.95231     C
O       0.9401   0.1157  0.07117     O
O       0.9401   0.3843  0.57117     O
H       0.9411   0.5878   0.5763     H
H       0.9411   0.9122   0.0763     H
H       0.9476   0.0278   0.9208     H
H       0.9476   0.4722   0.4208     H
O       0.9568   0.0917   0.9804     O
O       0.9568   0.4083   0.4804     O
C       0.9688   0.0779   0.9287     C
C       0.9688   0.4221   0.4287     C
H       0.9844    0.665   0.3661     H
H       0.9844    0.835   0.8661     H
H       0.9907    0.711   0.8016     H
H       0.9907    0.789   0.3016     H
C       0.9914   0.0428  0.54244     C
C       0.9914   0.4572  0.04244     C
C       0.9924   0.0905  0.58749     C
C       0.9924   0.4095  0.08749     C
C       0.9946  0.68081   0.8294     C
C       0.9946  0.81919   0.3294     C
