data_I
_chemical_name_common  '/home/zhangsd/repos/MofS-CGCNN/ML/data/TSD/clean_cifs/LOCZIO_clean'
_cell_length_a 15.89790
_cell_length_b 15.78920
_cell_length_c 20.32880
_cell_angle_alpha 90.00000
_cell_angle_beta  106.32400
_cell_angle_gamma 90.00000
_space_group_name_H-M_alt      'P 1'


loop_
_space_group_symop_operation_xyz
  'x, y, z' 

loop_
_atom_site_label
_atom_site_fract_x
_atom_site_fract_y
_atom_site_fract_z
_atom_site_type_symbol
H          0.0   0.1867     0.25     H
C          0.0   0.2456     0.25     C
C          0.0   0.4178     0.25     C
H          0.0   0.4767     0.25     H
H          0.0   0.5233     0.75     H
C          0.0   0.5822     0.75     C
C          0.0   0.7544     0.75     C
H          0.0   0.8133     0.75     H
H       0.0149   0.0603   0.1708     H
H       0.0149   0.9397   0.6708     H
C       0.0259   0.0024   0.1728     C
C       0.0259   0.9976   0.6728     C
C       0.0292   0.1374   0.8431     C
C       0.0292   0.8626   0.3431     C
C       0.0446   0.0508   0.8462     C
C       0.0446   0.9492   0.3462     C
C       0.0586    0.165   0.6803     C
C       0.0586    0.835   0.1803     C
C       0.0703    0.375   0.2367     C
C       0.0703    0.625   0.7367     C
C       0.0706   0.2875   0.2382     C
C       0.0706   0.7125   0.7382     C
H       0.0717   0.2225   0.6833     H
H       0.0717   0.7775   0.1833     H
H       0.0951   0.1686   0.9847     H
H       0.0951   0.8314   0.4847     H
H        0.099   0.1278   0.0941     H
H        0.099   0.8722   0.5941     H
H       0.1014   0.0296   0.8609     H
H       0.1014   0.9704   0.3609     H
S       0.1106   0.2183  0.86379     S
S       0.1106   0.7817  0.36379     S
N        0.111   0.0229   0.6944     N
N        0.111   0.9771   0.1944     N
C       0.1224   0.1078   0.6981     C
C       0.1224   0.8922   0.1981     C
O       0.1335   0.1568   0.2223     O
O       0.1335   0.8432   0.7223     O
O        0.136   0.4455   0.1613     O
O        0.136   0.5545   0.6613     O
C       0.1399   0.4298   0.2228     C
C       0.1399   0.5702   0.7228     C
C       0.1457   0.1445   0.0132     C
C       0.1457   0.8555   0.5132     C
C       0.1464   0.2346   0.2295     C
C       0.1464   0.7654   0.7295     C
C       0.1488   0.1201   0.0793     C
C       0.1488   0.8799   0.5793     C
H       0.1584   0.4127   0.9789     H
H       0.1584   0.5873   0.4789     H
H       0.1599   0.4464     0.87     H
H       0.1599   0.5536     0.37     H
H       0.1795   0.1278   0.7145     H
H       0.1795   0.8722   0.2145     H
O       0.1957   0.4608   0.2741     O
O       0.1957   0.5392   0.7741     O
C       0.2085   0.4029    0.965     C
C       0.2085   0.5971    0.465     C
C       0.2104    0.424   0.8998     C
C       0.2104    0.576   0.3998     C
O       0.2159   0.2736   0.2311     O
O       0.2159   0.7264   0.7311     O
Ni     0.21744  0.05982  0.22301    Ni
Ni     0.21744  0.94018  0.72301    Ni
C       0.2184   0.1327   0.9905     C
C       0.2184   0.8673   0.4905     C
N       0.2196    0.086   0.1229     N
N       0.2196    0.914   0.6229     N
S        0.225   0.1577   0.9068     S
S        0.225   0.8423   0.4068     S
S        0.275   0.3423   0.0932     S
S        0.275   0.6577   0.5932     S
N       0.2804    0.414   0.8771     N
N       0.2804    0.586   0.3771     N
C       0.2816   0.3673   0.0095     C
C       0.2816   0.6327   0.5095     C
Ni     0.28256  0.44018  0.77699    Ni
Ni     0.28256  0.55982  0.27699    Ni
O       0.2841   0.2264   0.7689     O
O       0.2841   0.7736   0.2689     O
C       0.2896    0.076   0.1002     C
C       0.2896    0.924   0.6002     C
C       0.2915   0.0971    0.035     C
C       0.2915   0.9029    0.535     C
O       0.3043   0.0392   0.7259     O
O       0.3043   0.9608   0.2259     O
H       0.3205   0.3722   0.2855     H
H       0.3205   0.6278   0.7855     H
H       0.3401   0.0536     0.13     H
H       0.3401   0.9464     0.63     H
H       0.3416   0.0873   0.0211     H
H       0.3416   0.9127   0.5211     H
C       0.3512   0.3799   0.9207     C
C       0.3512   0.6201   0.4207     C
C       0.3536   0.2654   0.7705     C
C       0.3536   0.7346   0.2705     C
C       0.3543   0.3555   0.9868     C
C       0.3543   0.6445   0.4868     C
C       0.3601   0.0702   0.7772     C
C       0.3601   0.9298   0.2772     C
O        0.364   0.0545   0.8387     O
O        0.364   0.9455   0.3387     O
O       0.3665   0.3432   0.7777     O
O       0.3665   0.6568   0.2777     O
C       0.3776   0.3922   0.3019     C
C       0.3776   0.6078   0.8019     C
N        0.389   0.4771   0.3056     N
N        0.389   0.5229   0.8056     N
S       0.3894   0.2817  0.13621     S
S       0.3894   0.7183  0.63621     S
H       0.3986   0.4704   0.1391     H
H       0.3986   0.5296   0.6391     H
H        0.401   0.3722   0.9059     H
H        0.401   0.6278   0.4059     H
H       0.4049   0.3314   0.0153     H
H       0.4049   0.6686   0.5153     H
H       0.4283   0.2775   0.3167     H
H       0.4283   0.7225   0.8167     H
C       0.4294   0.2125   0.7618     C
C       0.4294   0.7875   0.2618     C
C       0.4297    0.125   0.7633     C
C       0.4297    0.875   0.2633     C
C       0.4414    0.335   0.3197     C
C       0.4414    0.665   0.8197     C
C       0.4554   0.4492   0.1538     C
C       0.4554   0.5508   0.6538     C
C       0.4708   0.3626   0.1569     C
C       0.4708   0.6374   0.6569     C
C       0.4741   0.4976   0.8272     C
C       0.4741   0.5024   0.3272     C
H       0.4851   0.4397   0.8292     H
H       0.4851   0.5603   0.3292     H
H          0.5   0.0233     0.75     H
C          0.5   0.0822     0.75     C
C          0.5   0.2544     0.75     C
H          0.5   0.3133     0.75     H
H          0.5   0.6867     0.25     H
C          0.5   0.7456     0.25     C
C          0.5   0.9178     0.25     C
H          0.5   0.9767     0.25     H
H       0.5149   0.4397   0.6708     H
H       0.5149   0.5603   0.1708     H
C       0.5259   0.4976   0.6728     C
C       0.5259   0.5024   0.1728     C
C       0.5292   0.3626   0.3431     C
C       0.5292   0.6374   0.8431     C
C       0.5446   0.4492   0.3462     C
C       0.5446   0.5508   0.8462     C
C       0.5586    0.335   0.1803     C
C       0.5586    0.665   0.6803     C
C       0.5703    0.125   0.7367     C
C       0.5703    0.875   0.2367     C
C       0.5706   0.2125   0.7382     C
C       0.5706   0.7875   0.2382     C
H       0.5717   0.2775   0.1833     H
H       0.5717   0.7225   0.6833     H
H       0.5951   0.3314   0.4847     H
H       0.5951   0.6686   0.9847     H
H        0.599   0.3722   0.5941     H
H        0.599   0.6278   0.0941     H
H       0.6014   0.4704   0.3609     H
H       0.6014   0.5296   0.8609     H
S       0.6106   0.2817  0.36379     S
S       0.6106   0.7183  0.86379     S
N        0.611   0.4771   0.1944     N
N        0.611   0.5229   0.6944     N
C       0.6224   0.3922   0.1981     C
C       0.6224   0.6078   0.6981     C
O       0.6335   0.3432   0.7223     O
O       0.6335   0.6568   0.2223     O
O        0.636   0.0545   0.6613     O
O        0.636   0.9455   0.1613     O
C       0.6399   0.0702   0.7228     C
C       0.6399   0.9298   0.2228     C
C       0.6457   0.3555   0.5132     C
C       0.6457   0.6445   0.0132     C
C       0.6464   0.2654   0.7295     C
C       0.6464   0.7346   0.2295     C
C       0.6488   0.3799   0.5793     C
C       0.6488   0.6201   0.0793     C
H       0.6584   0.0873   0.4789     H
H       0.6584   0.9127   0.9789     H
H       0.6599   0.0536     0.37     H
H       0.6599   0.9464     0.87     H
H       0.6795   0.3722   0.2145     H
H       0.6795   0.6278   0.7145     H
O       0.6957   0.0392   0.7741     O
O       0.6957   0.9608   0.2741     O
C       0.7085   0.0971    0.465     C
C       0.7085   0.9029    0.965     C
C       0.7104    0.076   0.3998     C
C       0.7104    0.924   0.8998     C
O       0.7159   0.2264   0.7311     O
O       0.7159   0.7736   0.2311     O
Ni     0.71744  0.44018  0.72301    Ni
Ni     0.71744  0.55982  0.22301    Ni
C       0.7184   0.3673   0.4905     C
C       0.7184   0.6327   0.9905     C
N       0.7196    0.414   0.6229     N
N       0.7196    0.586   0.1229     N
S        0.725   0.3423   0.4068     S
S        0.725   0.6577   0.9068     S
S        0.775   0.1577   0.5932     S
S        0.775   0.8423   0.0932     S
N       0.7804    0.086   0.3771     N
N       0.7804    0.914   0.8771     N
C       0.7816   0.1327   0.5095     C
C       0.7816   0.8673   0.0095     C
Ni     0.78256  0.05982  0.27699    Ni
Ni     0.78256  0.94018  0.77699    Ni
O       0.7841   0.2736   0.2689     O
O       0.7841   0.7264   0.7689     O
C       0.7896    0.424   0.6002     C
C       0.7896    0.576   0.1002     C
C       0.7915   0.4029    0.535     C
C       0.7915   0.5971    0.035     C
O       0.8043   0.4608   0.2259     O
O       0.8043   0.5392   0.7259     O
H       0.8205   0.1278   0.7855     H
H       0.8205   0.8722   0.2855     H
H       0.8401   0.4464     0.63     H
H       0.8401   0.5536     0.13     H
H       0.8416   0.4127   0.5211     H
H       0.8416   0.5873   0.0211     H
C       0.8512   0.1201   0.4207     C
C       0.8512   0.8799   0.9207     C
C       0.8536   0.2346   0.2705     C
C       0.8536   0.7654   0.7705     C
C       0.8543   0.1445   0.4868     C
C       0.8543   0.8555   0.9868     C
C       0.8601   0.4298   0.2772     C
C       0.8601   0.5702   0.7772     C
O        0.864   0.4455   0.3387     O
O        0.864   0.5545   0.8387     O
O       0.8665   0.1568   0.2777     O
O       0.8665   0.8432   0.7777     O
C       0.8776   0.1078   0.8019     C
C       0.8776   0.8922   0.3019     C
N        0.889   0.0229   0.8056     N
N        0.889   0.9771   0.3056     N
S       0.8894   0.2183  0.63621     S
S       0.8894   0.7817  0.13621     S
H       0.8986   0.0296   0.6391     H
H       0.8986   0.9704   0.1391     H
H        0.901   0.1278   0.4059     H
H        0.901   0.8722   0.9059     H
H       0.9049   0.1686   0.5153     H
H       0.9049   0.8314   0.0153     H
H       0.9283   0.2225   0.8167     H
H       0.9283   0.7775   0.3167     H
C       0.9294   0.2875   0.2618     C
C       0.9294   0.7125   0.7618     C
C       0.9297    0.375   0.2633     C
C       0.9297    0.625   0.7633     C
C       0.9414    0.165   0.8197     C
C       0.9414    0.835   0.3197     C
C       0.9554   0.0508   0.6538     C
C       0.9554   0.9492   0.1538     C
C       0.9708   0.1374   0.6569     C
C       0.9708   0.8626   0.1569     C
C       0.9741   0.0024   0.3272     C
C       0.9741   0.9976   0.8272     C
H       0.9851   0.0603   0.3292     H
H       0.9851   0.9397   0.8292     H
