data_I
_chemical_name_common  '/home/zhangsd/repos/MofS-CGCNN/ML/data/TSD/clean_cifs/LODKIA_clean'
_cell_length_a  9.15490
_cell_length_b 15.40860
_cell_length_c 25.45190
_cell_angle_alpha 80.77610
_cell_angle_beta  79.63920
_cell_angle_gamma 72.71830
_space_group_name_H-M_alt      'P 1'


loop_
_space_group_symop_operation_xyz
  'x, y, z' 

loop_
_atom_site_label
_atom_site_fract_x
_atom_site_fract_y
_atom_site_fract_z
_atom_site_type_symbol
O      0.00172  0.81548  0.92248     O
O      0.00289  0.98228  0.05874     O
C       0.0052   0.4551   0.7763     C
H       0.0067   0.7897   0.3381     H
C       0.0113   0.3349   0.8711     C
C       0.0116   0.6083   0.7225     C
C       0.0123   0.5171   0.7245     C
H       0.0128   0.1124   0.7404     H
C       0.0177   0.2702   0.9218     C
C       0.0207   0.3426    0.229     C
Cd     0.02481  0.12345  0.00497    Cd
H       0.0301   0.4203   0.6783     H
C       0.0319   0.4807   0.6769     C
C       0.0395   0.6571   0.6731     C
O      0.04391  0.51772  0.44126     O
H       0.0447   0.7167   0.6721     H
C       0.0539   0.7452   0.8266     C
C       0.0542   0.5304   0.6268     C
C       0.0605   0.6207   0.6247     C
O      0.07093  0.65163  0.52951     O
C        0.075   0.4854   0.5768     C
C       0.0765   0.6684   0.1676     C
C       0.0772    0.609   0.2144     C
O      0.07727  0.27719  0.56687     O
O      0.07867  0.77719  0.06687     O
C       0.0859   0.6957   0.7825     C
C       0.0863   0.6791   0.5729     C
C       0.0872   0.2424   0.1406     C
C       0.0875   0.1684   0.6676     C
C         0.09   0.4581   0.8149     C
C        0.094   0.3983   0.8617     C
C       0.0994    0.109   0.7144     C
O       0.1162   0.2631   0.9515     O
C       0.1171   0.1917   0.0931     C
O       0.1199  0.75133  0.57247     O
H        0.128   0.7699   0.8341     H
H       0.1287   0.0797   0.8217     H
H       0.1344   0.6124   0.2404     H
H       0.1345   0.7103   0.1619     H
C       0.1372   0.0146   0.9232     C
H        0.146   0.5009   0.8095     H
H       0.1532   0.4013   0.8871     H
Cd     0.15323  0.37655  0.49503    Cd
C       0.1614   0.3307   0.1965     C
H       0.1806   0.6888   0.7606     H
C       0.1895   0.0193   0.8231     C
C       0.1968   0.2794   0.1528     C
H       0.2055   0.8572   0.7036     H
C       0.2097   0.2298   0.5782     C
O      0.21098  0.44707  0.55677     O
C       0.2114   0.9696   0.8732     C
O      0.21482  0.05293  0.94323     O
C       0.2173   0.1651   0.6289     C
H       0.2337   0.3572   0.2036     H
C       0.2366   0.0449   0.7237     C
O        0.252   0.1596    0.071     O
O      0.25207  0.84837  0.97049     O
C       0.2539   0.9829   0.7755     C
O      0.26032  0.31548  0.42248     O
H        0.268   0.2699   0.3341     H
H       0.2936   0.2699   0.1321     H
H       0.3044   0.7699   0.6321     H
C       0.3059   0.8793   0.8753     C
C       0.3114   0.8307   0.6965     C
O       0.3308   0.2369   0.5485     O
C       0.3383   0.8209   0.9271     C
C       0.3424   0.8917   0.7775     C
C        0.354   0.1017   0.6383     C
C        0.363   0.0419   0.6851     C
C       0.3697   0.8429   0.8269     C
H         0.37   0.1888   0.2606     H
C        0.371   0.7794   0.6528     C
C       0.3743   0.2452   0.3266     C
C       0.4019   0.3083   0.4069     C
C       0.4077   0.8426    0.729     C
H       0.4335   0.7833   0.8279     H
C       0.4359   0.1957   0.2825     C
H       0.4416   0.0987   0.6129     H
O       0.4437  0.74867  0.92753     O
H       0.4564   0.9991   0.6905     H
C       0.4702   0.2576   0.3594     C
O       0.4826   0.3404    0.429     O
O       0.5174   0.6596    0.571     O
C       0.5298   0.7424   0.6406     C
H       0.5436   0.0009   0.3095     H
O       0.5563  0.25133  0.07247     O
H       0.5584   0.9013   0.3871     H
C       0.5641   0.8043   0.7175     C
H       0.5665   0.2167   0.1721     H
C       0.5923   0.1574    0.271     C
C       0.5981   0.6917   0.5931     C
C       0.6257   0.7548   0.6734     C
C        0.629   0.2206   0.3472     C
H         0.63   0.8112   0.7394     H
C       0.6303   0.1571   0.1731     C
C        0.637   0.9581   0.3149     C
C        0.646   0.8983   0.3617     C
C       0.6576   0.1083   0.2225     C
C       0.6617   0.1791   0.0729     C
O       0.6692   0.7631   0.4515     O
C       0.6886   0.1693   0.3035     C
C       0.6941   0.1207   0.1247     C
H       0.6956   0.2301   0.3679     H
H       0.7064   0.7301   0.8679     H
H        0.732   0.7301   0.6659     H
O      0.73968  0.68452  0.57752     O
C       0.7461   0.0171   0.2245     C
O      0.74793  0.15163  0.02951     O
O        0.748   0.8404    0.929     O
C       0.7634   0.9551   0.2763     C
H       0.7663   0.6428   0.7964     H
C       0.7827   0.8349   0.3711     C
O      0.78518  0.94707  0.05677     O
C       0.7886   0.0304   0.1268     C
O      0.78902  0.55293  0.44323     O
C       0.7903   0.7702   0.4218     C
H       0.7945   0.1428   0.2964     H
C       0.8032   0.7206   0.8472     C
C       0.8105   0.9807   0.1769     C
H       0.8194   0.3112   0.2394     H
C       0.8386   0.6693   0.8035     C
Cd     0.84677  0.62345  0.50497    Cd
H       0.8468   0.5987   0.1129     H
H        0.854   0.4991   0.1905     H
C       0.8628   0.9854   0.0768     C
H       0.8655   0.2897   0.8381     H
H       0.8656   0.3876   0.7596     H
H       0.8713   0.9203   0.1783     H
H        0.872   0.2301   0.1659     H
O       0.8801  0.24867  0.42753     O
C       0.8829   0.8083   0.9069     C
O       0.8838   0.7369   0.0485     O
C       0.9006    0.891   0.2856     C
C        0.906   0.6017   0.1383     C
C         0.91   0.5419   0.1851     C
C       0.9125   0.8316   0.3324     C
C       0.9128   0.7576   0.8594     C
C       0.9137   0.3209   0.4271     C
C       0.9141   0.3043   0.2175     C
O      0.92133  0.22281  0.93313     O
O      0.92273  0.72281  0.43313     O
C       0.9228    0.391   0.7856     C
C       0.9235   0.3316   0.8324     C
C        0.925   0.5146   0.4232     C
O      0.92907  0.34837  0.47049     O
C       0.9395   0.3793   0.3753     C
C       0.9458   0.4696   0.3732     C
C       0.9461   0.2548   0.1734     C
H       0.9553   0.2833   0.3279     H
O      0.95609  0.48228  0.55874     O
C       0.9605   0.3429   0.3269     C
C       0.9681   0.5193   0.3231     C
H       0.9699   0.5797   0.3217     H
Cd     0.97519  0.87655  0.99503    Cd
C       0.9793   0.6574    0.771     C
C       0.9823   0.7298   0.0782     C
H       0.9872   0.8876   0.2596     H
C       0.9877   0.4829   0.2755     C
C       0.9884   0.3917   0.2775     C
C       0.9887   0.6651   0.1289     C
H       0.9933   0.2103   0.6619     H
C       0.9948   0.5449   0.2237     C
O      0.99711  0.01772  0.94126     O
O      0.99828  0.18452  0.07752     O
