data_I
_chemical_name_common  '/home/zhangsd/repos/MofS-CGCNN/ML/data/TSD/clean_cifs/LOFVUY_clean'
_cell_length_a 13.10200
_cell_length_b 26.10400
_cell_length_c 26.27900
_cell_angle_alpha 90.00000
_cell_angle_beta  90.00000
_cell_angle_gamma 93.92300
_space_group_name_H-M_alt      'P 1'


loop_
_space_group_symop_operation_xyz
  'x, y, z' 

loop_
_atom_site_label
_atom_site_fract_x
_atom_site_fract_y
_atom_site_fract_z
_atom_site_type_symbol
O       0.0015   0.4195   0.6938     O
O       0.0015   0.9195   0.8062     O
O       0.0071   0.4619   0.7859     O
O       0.0071   0.9619   0.7141     O
H       0.0107   0.4233   0.6157     H
H       0.0107   0.9233   0.8843     H
O       0.0199   0.3188   0.6843     O
O       0.0199   0.8188   0.8157     O
C       0.0209   0.3971   0.2739     C
C       0.0209   0.8971   0.2261     C
H       0.0236   0.3271   0.6078     H
H       0.0236   0.8271   0.8922     H
O       0.0259   0.3625   0.7755     O
O       0.0259   0.8625   0.7245     O
H        0.026   0.4701    0.295     H
H        0.026   0.9701    0.205     H
H       0.0282   0.3957   0.9429     H
H       0.0282   0.8957   0.5571     H
C       0.0288   0.1787   0.1347     C
C       0.0288   0.6787   0.3653     C
O       0.0335   0.4052   0.8672     O
O       0.0335   0.9052   0.6328     O
C       0.0437   0.0814   0.1417     C
C       0.0437   0.5814   0.3583     C
O       0.0458   0.2614   0.7655     O
O       0.0458   0.7614   0.7345     O
H       0.0479   0.2986   0.9332     H
H       0.0479   0.7986   0.5668     H
O       0.0497   0.3045   0.8576     O
O       0.0497   0.8045   0.6424     O
H        0.052   0.3251   0.2532     H
H        0.052   0.8251   0.2468     H
C       0.0648   0.4407   0.2928     C
C       0.0648   0.9407   0.2072     C
V      0.06751  0.20543  0.24429     V
V      0.06751  0.70543  0.25571     V
V      0.06815  0.15156   0.3459     V
V      0.06815  0.65156   0.1541     V
H       0.0691   0.2113   0.1274     H
H       0.0691   0.7113   0.3726     H
C       0.0806   0.3562   0.2677     C
C       0.0806   0.8562   0.2323     C
C       0.0811   0.4031   0.9165     C
C       0.0811   0.9031   0.5835     C
V      0.08573   0.0816  0.25539     V
V      0.08573   0.5816  0.24461     V
H        0.091   0.0536   0.1379     H
H        0.091   0.5536   0.3621     H
C       0.0923   0.1102   0.7607     C
C       0.0923   0.6102   0.7393     C
C       0.0994   0.3063   0.9062     C
C       0.0994   0.8063   0.5938     C
C       0.1006   0.1331   0.1359     C
C       0.1006   0.6331   0.3641     C
H       0.1116   0.1857   0.7741     H
H       0.1116   0.6857   0.7259     H
H       0.1127   0.0343   0.7449     H
H       0.1127   0.5343   0.7551     H
H       0.1173   0.4367   0.9243     H
H       0.1173   0.9367   0.5757     H
V      0.12083  0.42886  0.80663     V
V      0.12083  0.92886  0.69337     V
V      0.12121  0.37497  0.70503     V
V      0.12121  0.87497  0.79497     V
O       0.1245   0.2044   0.3065     O
O       0.1245   0.7044   0.1935     O
H       0.1374   0.1009   0.0606     H
H       0.1374   0.6009   0.4394     H
V      0.13884  0.30448  0.79611     V
V      0.13884  0.80448  0.70389     V
O       0.1434    0.105   0.3145     O
O       0.1434    0.605   0.1855     O
N       0.1455   0.1286   0.0796     N
N       0.1455   0.6286   0.4204     N
C       0.1461   0.0677   0.7469     C
C       0.1461   0.5677   0.7531     C
C       0.1465   0.1564   0.7648     C
C       0.1465   0.6564   0.7352     C
O       0.1475   0.1471   0.2235     O
O       0.1475   0.6471   0.2765     O
H       0.1494   0.1999   0.0601     H
H       0.1494   0.6999   0.4399     H
H       0.1497   0.2798   0.9075     H
H       0.1497   0.7798   0.5925     H
H       0.1511   0.1896   0.9637     H
H       0.1511   0.6896   0.5363     H
C       0.1565   0.3614   0.9167     C
C       0.1565   0.8614   0.5833     C
C       0.1631   0.4442    0.309     C
C       0.1631   0.9442    0.191     C
O       0.1763   0.4294   0.7453     O
O       0.1763   0.9294   0.7547     O
H       0.1777   0.3861   0.9911     H
H       0.1777   0.8861   0.5089     H
C       0.1799     0.36   0.2822     C
C       0.1799     0.86   0.2178     C
C       0.1862   0.1439   0.1737     C
C       0.1862   0.6439   0.3263     C
H       0.1914   0.4746    0.325     H
H       0.1914   0.9746    0.175     H
C        0.197   0.1726   0.0646     C
C        0.197   0.6726   0.4354     C
O       0.1987   0.3282   0.7361     O
O       0.1987   0.8282   0.7639     O
N       0.2004   0.3635   0.9698     N
N       0.2004   0.8635   0.5302     N
O       0.2029     0.37   0.8265     O
O       0.2029     0.87   0.6735     O
C       0.2137   0.1735   0.9666     C
C       0.2137   0.6735   0.5334     C
N       0.2201   0.4037    0.302     N
N       0.2201   0.9037    0.198     N
H       0.2207   0.3316   0.2782     H
H       0.2207   0.8316   0.2218     H
H       0.2246   0.1767   0.1648     H
H       0.2246   0.6767   0.3352     H
H        0.234   0.1162    0.172     H
H        0.234   0.6162    0.328     H
H       0.2391   0.1668   0.8885     H
H       0.2391   0.6668   0.6115     H
C       0.2408   0.3705   0.8776     C
C       0.2408   0.8705   0.6224     C
H        0.242   0.2758   0.0646     H
H        0.242   0.7758   0.4354     H
H       0.2477    0.184   0.0911     H
H       0.2477    0.684   0.4089     H
C       0.2491   0.1621   0.7558     C
C       0.2491   0.6621   0.7442     C
C       0.2495    0.076   0.7362     C
C       0.2495    0.576   0.7638     C
H       0.2503   0.2948   0.9878     H
H       0.2503   0.7948   0.5122     H
C       0.2521   0.1638   0.0154     C
C       0.2521   0.6638   0.4846     C
C       0.2658   0.1599   0.9212     C
C       0.2658   0.6599   0.5788     C
C       0.2742   0.3077   0.0754     C
C       0.2742   0.8077   0.4246     C
C        0.277   0.3312   0.9878     C
C        0.277   0.8312   0.5122     C
H       0.2782    0.404   0.8844     H
H       0.2782    0.904   0.6156     H
H       0.2858   0.1942   0.7616     H
H       0.2858   0.6942   0.7384     H
H       0.2869   0.0476   0.7267     H
H       0.2869   0.5476   0.7733     H
H       0.2885   0.2383   0.2966     H
H       0.2885   0.7383   0.2034     H
H       0.2899   0.3435   0.8813     H
H       0.2899   0.8435   0.6187     H
H       0.2912   0.2954   0.1551     H
H       0.2912   0.7954   0.3449     H
N       0.2976   0.1219   0.7389     N
N       0.2976   0.6219   0.7611     N
C          0.3   0.3501    0.043     C
C          0.3   0.8501    0.457     C
C       0.3051   0.3207   0.1296     C
C       0.3051   0.8207   0.3704     C
H       0.3115   0.1569   0.2695     H
H       0.3115   0.6569   0.2305     H
O       0.3172   0.4085   0.3178     O
O       0.3172   0.9085   0.1822     O
H       0.3337   0.4607   0.7243     H
H       0.3337   0.9607   0.7757     H
H       0.3388    0.335   0.9664     H
H       0.3388    0.835   0.5336     H
H        0.339   0.0802   0.2652     H
H        0.339   0.5802   0.2348     H
C       0.3428   0.1403   0.0187     C
C       0.3428   0.6403   0.4813     C
C       0.3485   0.3635   0.1427     C
C       0.3485   0.8635   0.3573     C
C        0.349   0.3975    0.062     C
C        0.349   0.8975    0.438     C
C       0.3556   0.2266   0.2957     C
C       0.3556   0.7266   0.2043     C
C       0.3579   0.1361   0.9269     C
C       0.3579   0.6361   0.5731     C
H       0.3611   0.3809    0.751     H
H       0.3611   0.8809    0.749     H
H       0.3647   0.4247   0.0391     H
H       0.3647   0.9247   0.4609     H
H        0.367   0.4975   0.2677     H
H        0.367   0.9975   0.2323     H
C       0.3683   0.1791   0.2798     C
C       0.3683   0.6791   0.2202     C
H       0.3702   0.1332   0.0512     H
H       0.3702   0.6332   0.4488     H
C        0.376   0.4061    0.118     C
C        0.376   0.9061    0.382     C
O       0.3766   0.1357   0.8369     O
O       0.3766   0.6357   0.6631     O
C       0.3825   0.3702   0.1947     C
C       0.3825   0.8702   0.3053     C
H       0.3863   0.3159   0.7953     H
H       0.3863   0.8159   0.7047     H
O       0.3882   0.3339   0.2256     O
O       0.3882   0.8339   0.2744     O
C        0.396   0.1264   0.9741     C
C        0.396   0.6264   0.5259     C
O       0.3994   0.1281   0.7302     O
O       0.3994   0.6281   0.7698     O
C       0.4018   0.4525   0.7315     C
C       0.4018   0.9525   0.7685     C
O       0.4039   0.4163   0.2124     O
O       0.4039   0.9163   0.2876     O
C       0.4063   0.0721   0.2563     C
C       0.4063   0.5721   0.2437     C
H       0.4081   0.4366   0.1322     H
H       0.4081   0.9366   0.3678     H
C       0.4135   0.1239   0.8793     C
C       0.4135   0.6239   0.6207     C
H       0.4149   0.2344   0.8202     H
H       0.4149   0.7344   0.6798     H
O       0.4172   0.3045   0.3293     O
O       0.4172   0.8045   0.1707     O
C       0.4174   0.4057   0.7484     C
C       0.4174   0.9057   0.7516     C
C       0.4229   0.0223   0.2366     C
C       0.4229   0.5223   0.2634     C
N       0.4353   0.2589   0.3106     N
N       0.4353   0.7589   0.1894     N
C        0.454    0.305   0.7946     C
C        0.454    0.805   0.7054     C
H       0.4585   0.1102   0.9771     H
H       0.4585   0.6102   0.5229     H
O       0.4601   0.0332   0.7967     O
O       0.4601   0.5332   0.7033     O
C       0.4695   0.1625   0.2787     C
C       0.4695   0.6625   0.2213     C
C       0.4709    0.257   0.8099     C
C       0.4709    0.757   0.6901     C
Tb     0.47276  0.38343  0.29012    Tb
Tb     0.47276  0.88343  0.20988    Tb
N       0.4802   0.4896    0.724     N
N       0.4802   0.9896    0.776     N
C       0.4851   0.1079   0.2624     C
C       0.4851   0.6079   0.2376     C
O       0.4999   0.1043   0.8817     O
O       0.4999   0.6043   0.6183     O
O       0.5001   0.3957   0.3817     O
O       0.5001   0.8957   0.1183     O
C       0.5149   0.3921   0.7624     C
C       0.5149   0.8921   0.7376     C
N       0.5198   0.0104    0.224     N
N       0.5198   0.5104    0.276     N
Tb     0.52724  0.11657  0.79012    Tb
Tb     0.52724  0.61657  0.70988    Tb
C       0.5291    0.243   0.3099     C
C       0.5291    0.743   0.1901     C
C       0.5305   0.3375   0.7787     C
C       0.5305   0.8375   0.7213     C
O       0.5399   0.4668   0.2967     O
O       0.5399   0.9668   0.2033     O
H       0.5415   0.3898   0.4771     H
H       0.5415   0.8898   0.0229     H
C        0.546    0.195   0.2946     C
C        0.546    0.695   0.2054     C
N       0.5647   0.2411   0.8106     N
N       0.5647   0.7411   0.6894     N
C       0.5771   0.4777   0.7366     C
C       0.5771   0.9777   0.7634     C
C       0.5826   0.0943   0.2484     C
C       0.5826   0.5943   0.2516     C
O       0.5828   0.1955   0.8293     O
O       0.5828   0.6955   0.6707     O
H       0.5851   0.2656   0.3202     H
H       0.5851   0.7656   0.1798     H
C       0.5865   0.3761   0.3793     C
C       0.5865   0.8761   0.1207     C
H       0.5919   0.0634   0.6322     H
H       0.5919   0.5634   0.8678     H
C       0.5937   0.4279   0.7563     C
C       0.5937   0.9279   0.7437     C
O       0.5961   0.0837   0.7124     O
O       0.5961   0.5837   0.7876     O
C       0.5982   0.0475   0.2315     C
C       0.5982   0.5475   0.2685     C
O       0.6006   0.3719   0.2302     O
O       0.6006   0.8719   0.2698     O
C        0.604   0.3736   0.4741     C
C        0.604   0.8736   0.0259     C
O       0.6118   0.1661   0.7256     O
O       0.6118   0.6661   0.7744     O
H       0.6137   0.1841   0.2953     H
H       0.6137   0.6841   0.2047     H
C       0.6175   0.1298   0.6947     C
C       0.6175   0.6298   0.8053     C
O       0.6234   0.3643   0.3369     O
O       0.6234   0.8643   0.1631     O
C        0.624   0.0939    0.618     C
C        0.624   0.5939    0.882     C
H       0.6298   0.3668   0.5512     H
H       0.6298   0.8668   0.9488     H
C       0.6317   0.3209   0.7798     C
C       0.6317   0.8209   0.7202     C
H        0.633   0.0025   0.7677     H
H        0.633   0.5025   0.7323     H
H       0.6353   0.0753   0.5391     H
H       0.6353   0.5753   0.9609     H
H       0.6389   0.1191    0.251     H
H       0.6389   0.6191    0.249     H
C       0.6421   0.3639   0.4269     C
C       0.6421   0.8639   0.0731     C
C       0.6444   0.2734   0.7957     C
C       0.6444   0.7734   0.7043     C
C        0.651   0.1025    0.562     C
C        0.651   0.6025    0.938     C
C       0.6515   0.1365   0.6427     C
C       0.6515   0.6365   0.8573     C
C       0.6572   0.3597   0.5187     C
C       0.6572   0.8597   0.9813     C
H        0.661   0.4198   0.7652     H
H        0.661   0.9198   0.7348     H
H       0.6612    0.165   0.4664     H
H       0.6612    0.665   0.0336     H
H       0.6663   0.0393   0.2243     H
H       0.6663   0.5393   0.2757     H
O       0.6828   0.0915   0.8178     O
O       0.6828   0.5915   0.6822     O
H       0.6885   0.3431   0.7695     H
H       0.6885   0.8431   0.7305     H
C       0.6949   0.1793   0.6296     C
C       0.6949   0.6793   0.8704     C
C          0.7   0.1499    0.543     C
C          0.7   0.6499    0.957     C
N       0.7024   0.3781   0.2389     N
N       0.7024   0.8781   0.2611     N
H       0.7088   0.2046   0.6551     H
H       0.7088   0.7046   0.8449     H
H       0.7101   0.1565   0.3813     H
H       0.7101   0.6565   0.1187     H
H       0.7115   0.2617   0.7966     H
H       0.7115   0.7617   0.7034     H
H       0.7131   0.4524   0.2267     H
H       0.7131   0.9524   0.2733     H
H       0.7142   0.3058   0.2616     H
H       0.7142   0.8058   0.2384     H
H       0.7218    0.096   0.3844     H
H       0.7218    0.596   0.1156     H
C        0.723   0.1688   0.4878     C
C        0.723   0.6688   0.0122     C
C       0.7258   0.1923   0.5754     C
C       0.7258   0.6923   0.9246     C
C       0.7342   0.3401   0.4212     C
C       0.7342   0.8401   0.0788     C
C       0.7479   0.3362   0.5154     C
C       0.7479   0.8362   0.9846     C
H       0.7497   0.2052   0.4878     H
H       0.7497   0.7052   0.0122     H
C       0.7505    0.424   0.2362     C
C       0.7505    0.924   0.2638     C
C       0.7509   0.3379   0.2558     C
C       0.7509   0.8379   0.2442     C
H       0.7523    0.316   0.5911     H
H       0.7523    0.816   0.9089     H
H        0.758   0.2242   0.5646     H
H        0.758   0.7242   0.9354     H
C       0.7592   0.1295   0.3776     C
C       0.7592   0.6295   0.1224     C
H       0.7609   0.3332   0.3885     H
H       0.7609   0.8332   0.1115     H
H        0.766   0.3838    0.672     H
H        0.766   0.8838    0.828     H
H       0.7754   0.3233   0.6648     H
H       0.7754   0.8233   0.8352     H
H       0.7793   0.1684   0.7782     H
H       0.7793   0.6684   0.7218     H
N       0.7799   0.0963    0.802     N
N       0.7799   0.5963    0.698     N
C       0.7863   0.3265   0.4666     C
C       0.7863   0.8265   0.0334     C
O       0.7971     0.13   0.3265     O
O       0.7971     0.63   0.1735     O
N       0.7996   0.1365   0.4698     N
N       0.7996   0.6365   0.0302     N
O       0.8013   0.1718   0.2361     O
O       0.8013   0.6718   0.2639     O
C        0.803   0.3274   0.5646     C
C        0.803   0.8274   0.9354     C
H       0.8086   0.0254    0.825     H
H       0.8086   0.5254    0.675     H
C       0.8138   0.3561   0.6737     C
C       0.8138   0.8561   0.8263     C
C       0.8201     0.14   0.7822     C
C       0.8201     0.64   0.7178     C
H       0.8223   0.1139   0.4911     H
H       0.8223   0.6139   0.0089     H
O       0.8237   0.0706   0.2453     O
O       0.8237   0.5706   0.2547     O
C       0.8369   0.0558    0.809     C
C       0.8369   0.5558    0.691     C
C       0.8435   0.1386   0.4167     C
C       0.8435   0.6386   0.0833     C
H       0.8489   0.3104   0.4637     H
H       0.8489   0.8104   0.0363     H
H       0.8503   0.2202   0.4075     H
H       0.8503   0.7202   0.0925     H
H       0.8506   0.3001   0.5601     H
H       0.8506   0.8001   0.9399     H
O       0.8525   0.3529   0.7235     O
O       0.8525   0.8529   0.7765     O
C       0.8535   0.3436   0.2648     C
C       0.8535   0.8436   0.2352     C
C       0.8539   0.4323   0.2469     C
C       0.8539   0.9323   0.2531     C
N       0.8545   0.3714   0.5796     N
N       0.8545   0.8714   0.9204     N
O       0.8566    0.395   0.8145     O
O       0.8566    0.895   0.6855     O
V      0.86116  0.19552  0.29611     V
V      0.86116  0.69552  0.20389     V
H       0.8626   0.3991   0.5606     H
H       0.8626   0.8991   0.9394     H
O       0.8755   0.2956   0.8065     O
O       0.8755   0.7956   0.6935     O
V      0.87879  0.12503  0.20503     V
V      0.87879  0.62503  0.29497     V
V      0.87917  0.07114  0.30663     V
V      0.87917  0.57114  0.19337     V
H       0.8827   0.0633   0.4243     H
H       0.8827   0.5633   0.0757     H
H       0.8873   0.4657   0.2449     H
H       0.8873   0.9657   0.2551     H
H       0.8884   0.3143   0.2741     H
H       0.8884   0.8143   0.2259     H
C       0.8994   0.3669   0.6359     C
C       0.8994   0.8669   0.8641     C
C       0.9006   0.1937   0.4062     C
C       0.9006   0.6937   0.0938     C
C       0.9077   0.3898   0.2607     C
C       0.9077   0.8898   0.2393     C
H        0.909   0.4464   0.6379     H
H        0.909   0.9464   0.8621     H
V      0.91427   0.4184  0.75539     V
V      0.91427   0.9184  0.74461     V
C       0.9189   0.0969   0.4165     C
C       0.9189   0.5969   0.0835     C
C       0.9194   0.1438   0.7677     C
C       0.9194   0.6438   0.7323     C
H       0.9309   0.2887   0.6274     H
H       0.9309   0.7887   0.8726     H
V      0.93185  0.34844   0.8459     V
V      0.93185  0.84844   0.6541     V
V      0.93249  0.29457  0.74429     V
V      0.93249  0.79457  0.75571     V
C       0.9352   0.0593   0.7928     C
C       0.9352   0.5593   0.7072     C
H        0.948   0.1749   0.7532     H
H        0.948   0.6749   0.7468     H
O       0.9503   0.1955   0.3576     O
O       0.9503   0.6955   0.1424     O
H       0.9521   0.2014   0.4332     H
H       0.9521   0.7014   0.0668     H
O       0.9542   0.2386   0.2655     O
O       0.9542   0.7386   0.2345     O
C       0.9563   0.4186   0.6417     C
C       0.9563   0.9186   0.8583     C
O       0.9665   0.0948   0.3672     O
O       0.9665   0.5948   0.1328     O
C       0.9712   0.3213   0.6347     C
C       0.9712   0.8213   0.8653     C
H       0.9718   0.1043   0.4429     H
H       0.9718   0.6043   0.0571     H
H        0.974   0.0299    0.795     H
H        0.974   0.5299    0.705     H
O       0.9741   0.1375   0.2755     O
O       0.9741   0.6375   0.2245     O
H       0.9764   0.1729   0.1078     H
H       0.9764   0.6729   0.3922     H
C       0.9791   0.1029   0.7739     C
C       0.9791   0.6029   0.7261     C
O       0.9801   0.1812   0.1843     O
O       0.9801   0.6812   0.3157     O
H       0.9893   0.0767   0.1157     H
H       0.9893   0.5767   0.3843     H
O       0.9929   0.0381   0.2859     O
O       0.9929   0.5381   0.2141     O
O       0.9985   0.0805   0.1938     O
O       0.9985   0.5805   0.3062     O
