data_I
_chemical_name_common  '/home/zhangsd/repos/MofS-CGCNN/ML/data/TSD/clean_cifs/LOFVUY01_clean'
_cell_length_a 13.10200
_cell_length_b 26.10400
_cell_length_c 26.27900
_cell_angle_alpha 90.00000
_cell_angle_beta  90.00000
_cell_angle_gamma 93.92300
_space_group_name_H-M_alt      'P 1'


loop_
_space_group_symop_operation_xyz
  'x, y, z' 

loop_
_atom_site_label
_atom_site_fract_x
_atom_site_fract_y
_atom_site_fract_z
_atom_site_type_symbol
O       0.0011   0.4186   0.6939     O
O       0.0011   0.9186   0.8061     O
O       0.0073   0.4616   0.7865     O
O       0.0073   0.9616   0.7135     O
H       0.0082   0.4219   0.6158     H
H       0.0082   0.9219   0.8842     H
O       0.0198   0.3187   0.6842     O
O       0.0198   0.8187   0.8158     O
C       0.0205   0.3973   0.2738     C
C       0.0205   0.8973   0.2262     C
H       0.0228   0.3293   0.6099     H
H       0.0228   0.8293   0.8901     H
H       0.0238   0.4683   0.2956     H
H       0.0238   0.9683   0.2044     H
O       0.0259   0.3626   0.7755     O
O       0.0259   0.8626   0.7245     O
H       0.0287   0.3964   0.9418     H
H       0.0287   0.8964   0.5582     H
C        0.029   0.1774   0.1368     C
C        0.029   0.6774   0.3632     C
O       0.0345   0.4056   0.8674     O
O       0.0345   0.9056   0.6326     O
C       0.0455   0.0824   0.1423     C
C       0.0455   0.5824   0.3577     C
O       0.0458   0.2613   0.7653     O
O       0.0458   0.7613   0.7347     O
O       0.0508   0.3042   0.8573     O
O       0.0508   0.8042   0.6427     O
H       0.0509   0.3002   0.9329     H
H       0.0509   0.8002   0.5671     H
H       0.0514   0.3249   0.2523     H
H       0.0514   0.8249   0.2477     H
C       0.0636   0.4393   0.2927     C
C       0.0636   0.9393   0.2073     C
V       0.0674   0.2054  0.24433     V
V       0.0674   0.7054  0.25567     V
H       0.0681   0.2103   0.1289     H
H       0.0681   0.7103   0.3711     H
V       0.0682   0.1514  0.34573     V
V       0.0682   0.6514  0.15427     V
C       0.0796    0.356   0.2671     C
C       0.0796    0.856   0.2329     C
C        0.081   0.4037   0.9153     C
C        0.081   0.9037   0.5847     C
V       0.0857  0.08174  0.25549     V
V       0.0857  0.58174  0.24451     V
C       0.0921   0.1101   0.7606     C
C       0.0921   0.6101   0.7394     C
H       0.0925   0.0545   0.1386     H
H       0.0925   0.5545   0.3614     H
C       0.1017   0.3081   0.9057     C
C       0.1017   0.8081   0.5943     C
C        0.103   0.1336   0.1373     C
C        0.103   0.6336   0.3627     C
H       0.1118   0.1854   0.7741     H
H       0.1118   0.6854   0.7259     H
H       0.1137   0.0352   0.7409     H
H       0.1137   0.5352   0.7591     H
H       0.1174   0.4374    0.923     H
H       0.1174   0.9374    0.577     H
V       0.1211   0.3749  0.70508     V
V       0.1211  0.42881  0.80661     V
V       0.1211   0.8749  0.79492     V
V       0.1211  0.92881  0.69339     V
O       0.1237   0.2049   0.3062     O
O       0.1237   0.7049   0.1938     O
H       0.1371   0.1001   0.0621     H
H       0.1371   0.6001   0.4379     H
V       0.1389  0.30453  0.79607     V
V       0.1389  0.80453  0.70393     V
H       0.1414   0.1937   0.0597     H
H       0.1414   0.6937   0.4403     H
O       0.1422   0.1044   0.3141     O
O       0.1422   0.6044   0.1859     O
N        0.146   0.1283   0.0804     N
N        0.146   0.6283   0.4196     N
C       0.1471   0.0684    0.745     C
C       0.1471   0.5684    0.755     C
C       0.1472   0.1563   0.7648     C
C       0.1472   0.6563   0.7352     C
O       0.1476   0.1473   0.2233     O
O       0.1476   0.6473   0.2767     O
H       0.1494   0.1885   0.9652     H
H       0.1494   0.6885   0.5348     H
H        0.153    0.282   0.9073     H
H        0.153    0.782   0.5927     H
C        0.157   0.3625    0.916     C
C        0.157   0.8625    0.584     C
C       0.1633   0.4443   0.3089     C
C       0.1633   0.9443   0.1911     C
O       0.1764   0.4292   0.7454     O
O       0.1764   0.9292   0.7546     O
H       0.1788   0.3869    0.991     H
H       0.1788   0.8869    0.509     H
C       0.1812   0.3608   0.2825     C
C       0.1812   0.8608   0.2175     C
C       0.1868   0.1437   0.1738     C
C       0.1868   0.6437   0.3262     C
H       0.1909   0.4753   0.3241     H
H       0.1909   0.9753   0.1759     H
C        0.192   0.1677   0.0651     C
C        0.192   0.6677   0.4349     C
O       0.1983   0.3282   0.7364     O
O       0.1983   0.8282   0.7636     O
N          0.2   0.3636   0.9699     N
N          0.2   0.8636   0.5301     N
O       0.2032   0.3702   0.8261     O
O       0.2032   0.8702   0.6739     O
C        0.213    0.173   0.9673     C
C        0.213    0.673   0.5327     C
N       0.2207   0.4042   0.3027     N
N       0.2207   0.9042   0.1973     N
H       0.2228   0.3327   0.2785     H
H       0.2228   0.8327   0.2215     H
H       0.2261   0.1762   0.1647     H
H       0.2261   0.6762   0.3353     H
H       0.2338   0.1156   0.1722     H
H       0.2338   0.6156   0.3278     H
H       0.2348   0.1665   0.8893     H
H       0.2348   0.6665   0.6107     H
H       0.2361    0.296   0.9852     H
H       0.2361    0.796   0.5148     H
H        0.237   0.2767   0.0683     H
H        0.237   0.7767   0.4317     H
H       0.2389   0.1807   0.0923     H
H       0.2389   0.6807   0.4077     H
C       0.2401   0.3702   0.8777     C
C       0.2401   0.8702   0.6223     C
C       0.2482   0.0765   0.7359     C
C       0.2482   0.5765   0.7641     C
C       0.2494   0.1629   0.7563     C
C       0.2494   0.6629   0.7437     C
C        0.255   0.1637   0.0156     C
C        0.255   0.6637   0.4844     C
C        0.263   0.1598   0.9217     C
C        0.263   0.6598   0.5783     C
C        0.266    0.332    0.987     C
C        0.266    0.832    0.513     C
C         0.27    0.309   0.0782     C
C         0.27    0.809   0.4218     C
H       0.2791   0.4033   0.8846     H
H       0.2791   0.9033   0.6154     H
H       0.2824   0.2906   0.1546     H
H       0.2824   0.7906   0.3454     H
H        0.286   0.1949   0.7627     H
H        0.286   0.6949   0.7373     H
H       0.2861    0.048   0.7273     H
H       0.2861    0.548   0.7727     H
H       0.2877   0.3426   0.8816     H
H       0.2877   0.8426   0.6184     H
H       0.2892   0.2392   0.2947     H
H       0.2892   0.7392   0.2053     H
C        0.291    0.347    0.041     C
C        0.291    0.847    0.459     C
N        0.297   0.1226   0.7386     N
C        0.297   0.3165   0.1298     C
N        0.297   0.6226   0.7614     N
C        0.297   0.8165   0.3702     C
H       0.3123   0.1567   0.2699     H
H       0.3123   0.6567   0.2301     H
O       0.3175   0.4089   0.3181     O
O       0.3175   0.9089   0.1819     O
H       0.3287   0.3347   0.9658     H
H       0.3287   0.8347   0.5342     H
H       0.3337   0.4595   0.7225     H
H       0.3337   0.9595   0.7775     H
H       0.3399   0.0809   0.2659     H
H       0.3399   0.5809   0.2341     H
C         0.34     0.39    0.064     C
C         0.34     0.89    0.436     C
C        0.345   0.1408   0.0209     C
C        0.345   0.6408   0.4791     C
C        0.346   0.3636   0.1432     C
C        0.346   0.8636   0.3568     C
H       0.3546   0.4165   0.0396     H
H       0.3546   0.9165   0.4604     H
C        0.356   0.2273    0.295     C
C        0.356   0.7273    0.205     C
C        0.359   0.1357   0.9269     C
C        0.359   0.6357   0.5731     C
H       0.3612   0.3807   0.7503     H
H       0.3612   0.8807   0.7497     H
H       0.3665   0.4977   0.2688     H
H       0.3665   0.9977   0.2312     H
C       0.3692    0.179   0.2797     C
C       0.3692    0.679   0.2203     C
H       0.3725   0.1344   0.0536     H
H       0.3725   0.6344   0.4464     H
C        0.373    0.406    0.113     C
C        0.373    0.906    0.387     C
O        0.377   0.1357   0.8362     O
O        0.377   0.6357   0.6638     O
C       0.3824   0.3694   0.1952     C
C       0.3824   0.8694   0.3048     C
H       0.3857   0.3158   0.7939     H
H       0.3857   0.8158   0.7061     H
O       0.3891   0.3334   0.2256     O
O       0.3891   0.8334   0.2744     O
C        0.398   0.1267   0.9752     C
C        0.398   0.6267   0.5248     C
O       0.3992   0.1286   0.7295     O
O       0.3992   0.6286   0.7705     O
C       0.4016   0.4517   0.7306     C
C       0.4016   0.9517   0.7694     C
O        0.404   0.4166   0.2131     O
O        0.404   0.9166   0.2869     O
H       0.4062   0.4384   0.1225     H
H       0.4062   0.9384   0.3775     H
C       0.4069   0.0728   0.2565     C
C       0.4069   0.5728   0.2435     C
C        0.413   0.1234   0.8792     C
H        0.413   0.2343   0.8203     H
C        0.413   0.6234   0.6208     C
H        0.413   0.7343   0.6797     H
C       0.4173   0.4056   0.7477     C
C       0.4173   0.9056   0.7523     C
O       0.4177   0.3049   0.3293     O
O       0.4177   0.8049   0.1707     O
C       0.4226   0.0222   0.2361     C
C       0.4226   0.5222   0.2639     C
N       0.4345   0.2591   0.3106     N
N       0.4345   0.7591   0.1894     N
C       0.4534    0.305    0.794     C
C       0.4534    0.805    0.706     C
H        0.461   0.1109   0.9781     H
H        0.461   0.6109   0.5219     H
O       0.4611    0.033   0.7967     O
O       0.4611    0.533   0.7033     O
C       0.4691   0.2568   0.8098     C
C       0.4691   0.7568   0.6902     C
C       0.4699    0.162   0.2786     C
C       0.4699    0.662   0.2214     C
Tb     0.47275  0.38343   0.2901    Tb
Tb     0.47275  0.88343   0.2099    Tb
N       0.4802   0.4893   0.7241     N
N       0.4802   0.9893   0.7759     N
C       0.4842   0.1078   0.2622     C
C       0.4842   0.6078   0.2378     C
O       0.4995   0.1047   0.8816     O
O       0.4995   0.6047   0.6184     O
O       0.5005   0.3953   0.3816     O
O       0.5005   0.8953   0.1184     O
C       0.5158   0.3922   0.7622     C
C       0.5158   0.8922   0.7378     C
N       0.5198   0.0107   0.2241     N
N       0.5198   0.5107   0.2759     N
Tb     0.52725  0.11657   0.7901    Tb
Tb     0.52725  0.61657   0.7099    Tb
C       0.5301    0.338   0.7786     C
C       0.5301    0.838   0.7214     C
C       0.5309   0.2432   0.3098     C
C       0.5309   0.7432   0.1902     C
O       0.5389    0.467   0.2967     O
O       0.5389    0.967   0.2033     O
H        0.539   0.3891   0.4781     H
H        0.539   0.8891   0.0219     H
C       0.5466    0.195    0.294     C
C       0.5466    0.695    0.206     C
N       0.5655   0.2409   0.8106     N
N       0.5655   0.7409   0.6894     N
C       0.5774   0.4778   0.7361     C
C       0.5774   0.9778   0.7639     C
O       0.5823   0.1951   0.8293     O
O       0.5823   0.6951   0.6707     O
C       0.5827   0.0944   0.2477     C
C       0.5827   0.5944   0.2523     C
H        0.587   0.2657   0.3203     H
C        0.587   0.3766   0.3792     C
H        0.587   0.7657   0.1797     H
C        0.587   0.8766   0.1208     C
C       0.5931   0.4272   0.7565     C
C       0.5931   0.9272   0.7435     C
H       0.5938   0.0616   0.6225     H
H       0.5938   0.5616   0.8775     H
O        0.596   0.0834   0.7131     O
O        0.596   0.5834   0.7869     O
C       0.5984   0.0483   0.2306     C
C       0.5984   0.5483   0.2694     C
O       0.6008   0.3714   0.2295     O
O       0.6008   0.8714   0.2705     O
C        0.602   0.3733   0.4752     C
C        0.602   0.8733   0.0248     C
O       0.6109   0.1666   0.7256     O
O       0.6109   0.6666   0.7744     O
H       0.6143   0.1842   0.2939     H
H       0.6143   0.6842   0.2061     H
C       0.6176   0.1306   0.6952     C
C       0.6176   0.6306   0.8048     C
O        0.623   0.3643   0.3362     O
O        0.623   0.8643   0.1638     O
C        0.627    0.094    0.613     C
C        0.627    0.594    0.887     C
H       0.6275   0.3656   0.5536     H
H       0.6275   0.8656   0.9464     H
C       0.6308    0.321   0.7797     C
C       0.6308    0.821   0.7203     C
H       0.6335   0.0023   0.7688     H
H       0.6335   0.5023   0.7312     H
H       0.6388   0.1193   0.2503     H
H       0.6388   0.6193   0.2497     H
C        0.641   0.3643   0.4269     C
C        0.641   0.8643   0.0731     C
C        0.644   0.2727    0.795     C
C        0.644   0.7727    0.705     C
H       0.6454   0.0835   0.5396     H
H       0.6454   0.5835   0.9604     H
C        0.654   0.1364   0.6432     C
C        0.654   0.6364   0.8568     C
C        0.655   0.3592   0.5209     C
C        0.655   0.8592   0.9791     C
C         0.66     0.11    0.564     C
C         0.66     0.61    0.936     C
H       0.6601   0.4191   0.7659     H
H       0.6601   0.9191   0.7341     H
H       0.6663   0.0405   0.2225     H
H       0.6663   0.5405   0.2775     H
H       0.6713   0.1653   0.4658     H
H       0.6713   0.6653   0.0342     H
O       0.6825   0.0911   0.8181     O
O       0.6825   0.5911   0.6819     O
H       0.6877   0.3433   0.7699     H
H       0.6877   0.8433   0.7301     H
C        0.703   0.1835   0.6298     C
N        0.703   0.3774   0.2386     N
C        0.703   0.6835   0.8702     C
N        0.703   0.8774   0.2614     N
C        0.709    0.153    0.541     C
C        0.709    0.653    0.959     C
H       0.7108   0.2608   0.7947     H
H       0.7108   0.7608   0.7053     H
H       0.7123   0.1574   0.3816     H
H       0.7123   0.6574   0.1184     H
H       0.7139    0.452   0.2273     H
H       0.7139    0.952   0.2727     H
H        0.714   0.3051   0.2627     H
H        0.714   0.8051   0.2373     H
H       0.7176   0.2094   0.6546     H
H       0.7176   0.7094   0.8454     H
H       0.7209   0.0967   0.3846     H
H       0.7209   0.5967   0.1154     H
C         0.73    0.191   0.5782     C
C         0.73    0.691   0.9218     C
C        0.734    0.168    0.487     C
C        0.734    0.668    0.013     C
C        0.737   0.3402   0.4217     C
C        0.737   0.8402   0.0783     C
C        0.745   0.3363   0.5156     C
C        0.745   0.8363   0.9844     C
C       0.7506   0.3371   0.2563     C
C       0.7506   0.8371   0.2437     C
C       0.7518   0.4235   0.2359     C
C       0.7518   0.9235   0.2641     C
C       0.7599   0.1298   0.3777     C
C       0.7599   0.6298   0.1223     C
H       0.7611   0.3193   0.5923     H
H       0.7611   0.8193   0.9077     H
H        0.763   0.2233   0.5683     H
H        0.763   0.7233   0.9317     H
H       0.7639    0.204   0.4852     H
H       0.7639    0.704   0.0148     H
H       0.7652   0.3335   0.3893     H
H       0.7652   0.8335   0.1107     H
H       0.7662   0.3844   0.6722     H
H       0.7662   0.8844   0.8278     H
H       0.7739   0.3238   0.6647     H
H       0.7739   0.8238   0.8353     H
H       0.7772   0.1673   0.7785     H
H       0.7772   0.6673   0.7215     H
N       0.7793   0.0958   0.8027     N
N       0.7793   0.5958   0.6973     N
C        0.787    0.327   0.4673     C
C        0.787    0.827   0.0327     C
O       0.7968   0.1298   0.3261     O
O       0.7968   0.6298   0.1739     O
N          0.8   0.1364   0.4699     N
N          0.8   0.6364   0.0301     N
O       0.8017   0.1718   0.2364     O
O       0.8017   0.6718   0.2636     O
C        0.808   0.3323   0.5651     C
C        0.808   0.8323   0.9349     C
H       0.8091   0.0247   0.8241     H
H       0.8091   0.5247   0.6759     H
C       0.8132   0.3563   0.6738     C
C       0.8132   0.8563   0.8262     C
C       0.8188   0.1392   0.7825     C
C       0.8188   0.6392   0.7175     C
H       0.8212   0.1131    0.491     H
H       0.8212   0.6131    0.009     H
O       0.8236   0.0708   0.2454     O
O       0.8236   0.5708   0.2546     O
C       0.8367   0.0557   0.8089     C
C       0.8367   0.5557   0.6911     C
C        0.843   0.1375    0.416     C
C        0.843   0.6375    0.084     C
H        0.847    0.218   0.4073     H
H        0.847    0.718   0.0927     H
H       0.8506   0.3115   0.4652     H
H       0.8506   0.8115   0.0348     H
O       0.8524   0.3527   0.7233     O
O       0.8524   0.8527   0.7767     O
C       0.8528   0.3437   0.2648     C
C       0.8528   0.8437   0.2352     C
C       0.8529   0.4316    0.245     C
C       0.8529   0.9316    0.255     C
N        0.854   0.3717   0.5804     N
N        0.854   0.8717   0.9196     N
O       0.8578   0.3956   0.8141     O
O       0.8578   0.8956   0.6859     O
H       0.8586   0.3063   0.5597     H
H       0.8586   0.8063   0.9403     H
V       0.8611  0.19547  0.29607     V
V       0.8611  0.69547  0.20393     V
H       0.8629   0.3999   0.5621     H
H       0.8629   0.8999   0.9379     H
O       0.8763   0.2951   0.8062     O
O       0.8763   0.7951   0.6938     O
V       0.8789  0.07119  0.30661     V
V       0.8789   0.1251  0.20508     V
V       0.8789  0.57119  0.19339     V
V       0.8789   0.6251  0.29492     V
H       0.8826   0.0626    0.423     H
H       0.8826   0.5626    0.077     H
H       0.8863   0.4648   0.2409     H
H       0.8863   0.9648   0.2591     H
H       0.8882   0.3146   0.2741     H
H       0.8882   0.8146   0.2259     H
C        0.897   0.3664   0.6373     C
C        0.897   0.8664   0.8627     C
C       0.8983   0.1919   0.4057     C
C       0.8983   0.6919   0.0943     C
H       0.9075   0.4455   0.6386     H
H       0.9075   0.9455   0.8614     H
C       0.9079   0.3899   0.2606     C
C       0.9079   0.8899   0.2394     C
V       0.9143  0.41826  0.75549     V
V       0.9143  0.91826  0.74451     V
C        0.919   0.0963   0.4153     C
C        0.919   0.5963   0.0847     C
C       0.9204    0.144   0.7671     C
C       0.9204    0.644   0.7329     C
V       0.9318   0.3486  0.84573     V
V       0.9318   0.8486  0.65427     V
H       0.9319   0.2897   0.6289     H
H       0.9319   0.7897   0.8711     H
V       0.9326   0.2946  0.74433     V
V       0.9326   0.7946  0.75567     V
C       0.9364   0.0607   0.7927     C
C       0.9364   0.5607   0.7073     C
H       0.9486   0.1751   0.7523     H
H       0.9486   0.6751   0.7477     H
H       0.9491   0.1998   0.4329     H
H       0.9491   0.6998   0.0671     H
O       0.9492   0.1958   0.3573     O
O       0.9492   0.6958   0.1427     O
O       0.9542   0.2387   0.2653     O
O       0.9542   0.7387   0.2347     O
C       0.9545   0.4176   0.6423     C
C       0.9545   0.9176   0.8577     C
O       0.9655   0.0944   0.3674     O
O       0.9655   0.5944   0.1326     O
C        0.971   0.3226   0.6368     C
C        0.971   0.8226   0.8632     C
H       0.9713   0.1036   0.4418     H
H       0.9713   0.6036   0.0582     H
O       0.9741   0.1374   0.2755     O
O       0.9741   0.6374   0.2245     O
H       0.9762   0.0317   0.7956     H
H       0.9762   0.5317   0.7044     H
H       0.9772   0.1707   0.1099     H
H       0.9772   0.6707   0.3901     H
C       0.9795   0.1027   0.7738     C
C       0.9795   0.6027   0.7262     C
O       0.9802   0.1813   0.1842     O
O       0.9802   0.6813   0.3158     O
H       0.9918   0.0781   0.1158     H
H       0.9918   0.5781   0.3842     H
O       0.9927   0.0384   0.2865     O
O       0.9927   0.5384   0.2135     O
O       0.9989   0.0814   0.1939     O
O       0.9989   0.5814   0.3061     O
