data_I
_chemical_name_common  '/home/zhangsd/repos/MofS-CGCNN/ML/data/TSD/clean_cifs/LOQLEJ_manual'
_cell_length_a  7.23300
_cell_length_b 21.75820
_cell_length_c 21.75820
_cell_angle_alpha 60.04780
_cell_angle_beta  90.00000
_cell_angle_gamma 90.00000
_space_group_name_H-M_alt      'P 1'


loop_
_space_group_symop_operation_xyz
  'x, y, z' 

loop_
_atom_site_label
_atom_site_fract_x
_atom_site_fract_y
_atom_site_fract_z
_atom_site_type_symbol
In         0.0      0.0      0.0    In
In         0.0      0.0      0.5    In
In         0.0      0.5      0.0    In
H      0.05024  0.32256  0.96868     H
H      0.05024  0.96868  0.32256     H
H      0.05079   0.6795  0.79512     H
H      0.05079  0.79512   0.6795     H
H      0.05082  0.20798  0.96904     H
H      0.05082  0.96904  0.20798     H
C       0.0856  0.23207  0.29533     C
C       0.0856  0.29533  0.23207     C
C       0.0858   0.0309  0.76592     C
C       0.0858  0.76592   0.0309     C
C       0.0861  0.03041  0.70417     C
C       0.0861  0.70417  0.03041     C
O      0.09565  0.10286  0.41928     O
O      0.09565  0.41928  0.10286     O
O      0.09647  0.02818  0.89584     O
O      0.09647  0.89584  0.02818     O
O      0.09806  0.02267  0.57995     O
O      0.09806  0.57995  0.02267     O
H      0.24997   0.9052   0.5435     H
H      0.24999  0.45304  0.95201     H
C         0.25  0.02252  0.60614     C
O         0.25  0.02416  0.02416     O
C         0.25  0.02881  0.67245     C
C         0.25  0.02925  0.86875     C
C         0.25  0.03133  0.79751     C
H         0.25  0.07641  0.00248     H
C         0.25   0.1293  0.39404     C
C         0.25  0.20214   0.3277     C
C         0.25   0.3277  0.20214     C
C         0.25  0.39404   0.1293     C
O         0.25  0.49883  0.95139     O
C         0.25  0.60614  0.02252     C
C         0.25  0.67245  0.02881     C
C         0.25  0.79751  0.03133     C
C         0.25  0.86875  0.02925     C
O         0.25  0.95139  0.49883     O
O      0.40194  0.02267  0.57995     O
O      0.40194  0.57995  0.02267     O
O      0.40353  0.02818  0.89584     O
O      0.40353  0.89584  0.02818     O
O      0.40435  0.10286  0.41928     O
O      0.40435  0.41928  0.10286     O
C       0.4139  0.03041  0.70417     C
C       0.4139  0.70417  0.03041     C
C       0.4142   0.0309  0.76592     C
C       0.4142  0.76592   0.0309     C
C       0.4144  0.23207  0.29533     C
C       0.4144  0.29533  0.23207     C
H      0.44918  0.20798  0.96904     H
H      0.44918  0.96904  0.20798     H
H      0.44921   0.6795  0.79512     H
H      0.44921  0.79512   0.6795     H
H      0.44976  0.32256  0.96868     H
H      0.44976  0.96868  0.32256     H
In         0.5      0.0      0.0    In
In         0.5      0.0      0.5    In
In         0.5      0.5      0.0    In
H      0.55024  0.03132  0.67744     H
H      0.55024  0.67744  0.03132     H
H      0.55079  0.20488   0.3205     H
H      0.55079   0.3205  0.20488     H
H      0.55082  0.03096  0.79202     H
H      0.55082  0.79202  0.03096     H
C       0.5856  0.70467  0.76793     C
C       0.5856  0.76793  0.70467     C
C       0.5858  0.23408   0.9691     C
C       0.5858   0.9691  0.23408     C
C       0.5861  0.29583  0.96959     C
C       0.5861  0.96959  0.29583     C
O      0.59565  0.58072  0.89714     O
O      0.59565  0.89714  0.58072     O
O      0.59647  0.10416  0.97182     O
O      0.59647  0.97182  0.10416     O
O      0.59806  0.42005  0.97733     O
O      0.59806  0.97733  0.42005     O
H      0.74995  0.99789  0.92356     H
O         0.75  0.04861  0.50117     O
C         0.75  0.13125  0.97075     C
C         0.75  0.20249  0.96867     C
C         0.75  0.32755  0.97119     C
C         0.75  0.39386  0.97748     C
O         0.75  0.50117  0.04861     O
C         0.75  0.60596   0.8707     C
C         0.75   0.6723  0.79786     C
C         0.75  0.79786   0.6723     C
C         0.75   0.8707  0.60596     C
C         0.75  0.96867  0.20249     C
C         0.75  0.97075  0.13125     C
C         0.75  0.97119  0.32755     C
O         0.75  0.97584  0.97584     O
C         0.75  0.97748  0.39386     C
H      0.75003  0.09481  0.45651     H
H      0.75017   0.4565  0.09481     H
O      0.90194  0.42005  0.97733     O
O      0.90194  0.97733  0.42005     O
O      0.90353  0.10416  0.97182     O
O      0.90353  0.97182  0.10416     O
O      0.90435  0.58072  0.89714     O
O      0.90435  0.89714  0.58072     O
C       0.9139  0.29583  0.96959     C
C       0.9139  0.96959  0.29583     C
C       0.9142  0.23408   0.9691     C
C       0.9142   0.9691  0.23408     C
C       0.9144  0.70467  0.76793     C
C       0.9144  0.76793  0.70467     C
H      0.94918  0.03096  0.79202     H
H      0.94918  0.79202  0.03096     H
H      0.94921  0.20488   0.3205     H
H      0.94921   0.3205  0.20488     H
H      0.94976  0.03132  0.67744     H
H      0.94976  0.67744  0.03132     H
