data_I
_chemical_name_common  '/home/zhangsd/repos/MofS-CGCNN/ML/data/TSD/clean_cifs/LOSXIC_clean'
_cell_length_a 15.68300
_cell_length_b 15.68300
_cell_length_c 11.55260
_cell_angle_alpha 90.00000
_cell_angle_beta  90.00000
_cell_angle_gamma 120.00000
_space_group_name_H-M_alt      'P 1'


loop_
_space_group_symop_operation_xyz
  'x, y, z' 

loop_
_atom_site_label
_atom_site_fract_x
_atom_site_fract_y
_atom_site_fract_z
_atom_site_type_symbol
In         0.0      0.5  0.66667    In
O       0.0655    0.428   0.7757     O
O       0.0655   0.6375  0.55763     O
N       0.1024    0.321    0.913     N
N       0.1024   0.7814  0.42033     N
C       0.1258   0.5069    0.823     C
C       0.1258   0.6189  0.51033     C
O       0.1282   0.5432  0.54223     O
O       0.1282    0.585   0.7911     O
C       0.1762   0.4147   0.9535     C
C       0.1762   0.7615  0.37983     C
C       0.1918   0.5038   0.9104     C
C       0.1918    0.688  0.42293     C
N       0.2186    0.321    0.087     N
N       0.2186   0.8976  0.24633     N
C       0.2385   0.4147   0.0465     C
C       0.2385   0.8238  0.28683     C
C       0.2674   0.5933   0.9564     C
C       0.2674   0.6741  0.37693     C
N        0.287   0.6001  0.41733     N
N        0.287   0.6869    0.916     N
C        0.312   0.5038   0.0896     C
C        0.312   0.8082  0.24373     C
N       0.3131   0.6001  0.58267     N
N       0.3131    0.713  0.75067     N
N        0.321   0.1024  0.75367     N
N        0.321   0.2186  0.57967     N
C       0.3259   0.5933   0.0436     C
C       0.3259   0.7326  0.28973     C
O       0.3625    0.428   0.2243     O
O       0.3625   0.9345  0.10903     O
C       0.3811   0.5069    0.177     C
C       0.3811   0.8742  0.15633     C
N       0.3999   0.6869    0.084     N
N       0.3999    0.713  0.24933     N
C       0.4067   0.6741  0.62307     C
C       0.4067   0.7326  0.71027     C
C       0.4147   0.1762  0.71317     C
C       0.4147   0.2385  0.62017     C
O        0.415   0.5432  0.45777     O
O        0.415   0.8718  0.87557     O
O        0.428   0.0655  0.89097     O
O        0.428   0.3625  0.44237     O
O       0.4568    0.585   0.2089     O
O       0.4568   0.8718  0.12443     O
C       0.4931   0.6189  0.48967     C
C       0.4931   0.8742  0.84367     C
C       0.4962    0.688  0.57707     C
C       0.4962   0.8082  0.75627     C
In         0.5      0.0      0.0    In
In         0.5      0.5  0.33333    In
C       0.5038   0.1918  0.75627     C
C       0.5038    0.312  0.57707     C
C       0.5069   0.1258  0.84367     C
C       0.5069   0.3811  0.48967     C
O       0.5432   0.1282  0.12443     O
O       0.5432    0.415   0.2089     O
O        0.572   0.6375  0.44237     O
O        0.572   0.9345  0.89097     O
O        0.585   0.1282  0.87557     O
O        0.585   0.4568  0.45777     O
C       0.5853   0.7615  0.62017     C
C       0.5853   0.8238  0.71317     C
C       0.5933   0.2674  0.71027     C
C       0.5933   0.3259  0.62307     C
N       0.6001    0.287  0.24933     N
N       0.6001   0.3131    0.084     N
C       0.6189   0.1258  0.15633     C
C       0.6189   0.4931    0.177     C
O       0.6375   0.0655  0.10903     O
O       0.6375    0.572   0.2243     O
C       0.6741   0.2674  0.28973     C
C       0.6741   0.4067   0.0436     C
N        0.679   0.7814  0.57967     N
N        0.679   0.8976  0.75367     N
N       0.6869    0.287  0.75067     N
N       0.6869   0.3999  0.58267     N
C        0.688   0.1918  0.24373     C
C        0.688   0.4962   0.0896     C
N        0.713   0.3131    0.916     N
N        0.713   0.3999  0.41733     N
C       0.7326   0.3259  0.37693     C
C       0.7326   0.4067   0.9564     C
C       0.7615   0.1762  0.28683     C
C       0.7615   0.5853   0.0465     C
N       0.7814   0.1024  0.24633     N
N       0.7814    0.679    0.087     N
C       0.8082    0.312  0.42293     C
C       0.8082   0.4962   0.9104     C
C       0.8238   0.2385  0.37983     C
C       0.8238   0.5853   0.9535     C
O       0.8718    0.415   0.7911     O
O       0.8718   0.4568  0.54223     O
C       0.8742   0.3811  0.51033     C
C       0.8742   0.4931    0.823     C
N       0.8976   0.2186  0.42033     N
N       0.8976    0.679    0.913     N
O       0.9345   0.3625  0.55763     O
O       0.9345    0.572   0.7757     O
