data_I
_chemical_name_common  '/home/zhangsd/repos/MofS-CGCNN/ML/data/TSD/clean_cifs/LUFNAC01_clean'
_cell_length_a 11.88500
_cell_length_b 11.88500
_cell_length_c 16.34400
_cell_angle_alpha 73.48310
_cell_angle_beta  73.48310
_cell_angle_gamma 78.51000
_space_group_name_H-M_alt      'P 1'


loop_
_space_group_symop_operation_xyz
  'x, y, z' 

loop_
_atom_site_label
_atom_site_fract_x
_atom_site_fract_y
_atom_site_fract_z
_atom_site_type_symbol
N       0.0045   0.1863   0.0685     N
C       0.0059   0.0535   0.3605     C
H       0.0129   0.3577   0.2551     H
C       0.0134   0.8586   0.5958     C
C       0.0154   0.0828   0.1237     C
C       0.0183   0.5783   0.6365     C
C        0.021   0.5764   0.7223     C
O       0.0377   0.5699   0.8914     O
N       0.0378   0.3278   0.4149     N
H       0.0404   0.0778   0.8208     H
H       0.0473   0.3353   0.4632     H
C       0.0535   0.0059   0.8605     C
H       0.0679   0.0737   0.6546     H
C       0.0734   0.4754   0.8665     C
H       0.0737   0.0679   0.1546     H
C       0.0737   0.4793   0.6037     C
C       0.0745   0.4757   0.7744     C
H       0.0752   0.4798   0.5464     H
H       0.0778   0.0404   0.3208     H
C        0.078   0.7974   0.9768     C
C       0.0812   0.2172     0.39     C
C       0.0828   0.0154   0.6237     C
H       0.0869   0.7257   0.0179     H
O       0.1144     0.38   0.9112     O
Mn     0.11538   0.3325  0.04706    Mn
C       0.1192   0.8494   0.5339     C
H       0.1224   0.2336   0.3282     H
C       0.1263   0.3807   0.6552     C
C       0.1274    0.379   0.7406     C
H       0.1342    0.795   0.4997     H
H       0.1381   0.1727   0.4234     H
C       0.1414   0.9866   0.9042     C
C       0.1506   0.8808   0.9661     C
H       0.1638    0.313   0.7746     H
H       0.1727   0.1381   0.9234     H
N       0.1863   0.0045   0.5685     N
O       0.1883   0.2375   0.1644     O
C       0.1898   0.2776   0.6164     C
O       0.1972   0.2828   0.5369     O
C       0.2026    0.922   0.5232     C
H        0.205   0.8658   0.0003     H
C       0.2172   0.0812     0.89     C
H       0.2336   0.1224   0.8282     H
O       0.2375   0.1883   0.6644     O
H       0.2743   0.9131   0.4821     H
C       0.2776   0.1898   0.1164     C
O       0.2828   0.1972   0.0369     O
H        0.313   0.1638   0.2746     H
N       0.3278   0.0378   0.9149     N
Mn      0.3325  0.11538  0.54706    Mn
H       0.3353   0.0473   0.9632     H
H       0.3577   0.0129   0.7551     H
C        0.379   0.1274   0.2406     C
O         0.38   0.1144   0.4112     O
C       0.3807   0.1263   0.1552     C
C       0.4217   0.9817   0.8635     C
C       0.4236    0.979   0.7777     C
O       0.4301   0.9623   0.6086     O
C       0.4754   0.0734   0.3665     C
C       0.4757   0.0745   0.2744     C
C       0.4793   0.0737   0.1037     C
H       0.4798   0.0752   0.0464     H
H       0.5202   0.9248   0.9536     H
C       0.5207   0.9263   0.8963     C
C       0.5243   0.9255   0.7256     C
C       0.5246   0.9266   0.6335     C
O       0.5699   0.0377   0.3914     O
C       0.5764    0.021   0.2223     C
C       0.5783   0.0183   0.1365     C
C       0.6193   0.8737   0.8448     C
O         0.62   0.8856   0.5888     O
C        0.621   0.8726   0.7594     C
H       0.6423   0.9871   0.2449     H
H       0.6647   0.9527   0.0368     H
Mn      0.6675  0.88462  0.45294    Mn
N       0.6722   0.9622   0.0851     N
H        0.687   0.8362   0.7254     H
O       0.7172   0.8028   0.9631     O
C       0.7224   0.8102   0.8836     C
H       0.7257   0.0869   0.5179     H
O       0.7625   0.8117   0.3356     O
H       0.7664   0.8776   0.1718     H
C       0.7828   0.9188     0.11     C
H        0.795   0.1342   0.9997     H
C       0.7974    0.078   0.4768     C
O       0.8028   0.7172   0.4631     O
C       0.8102   0.7224   0.3836     C
O       0.8117   0.7625   0.8356     O
N       0.8137   0.9955   0.4315     N
H       0.8273   0.8619   0.0766     H
H       0.8362    0.687   0.2254     H
C       0.8494   0.1192   0.0339     C
C       0.8586   0.0134   0.0958     C
H       0.8619   0.8273   0.5766     H
H       0.8658    0.205   0.5003     H
C       0.8726    0.621   0.2594     C
C       0.8737   0.6193   0.3448     C
H       0.8776   0.7664   0.6718     H
C       0.8808   0.1506   0.4661     C
Mn     0.88462   0.6675  0.95294    Mn
O       0.8856     0.62   0.0888     O
H       0.9131   0.2743   0.9821     H
C       0.9172   0.9846   0.3763     C
C       0.9188   0.7828     0.61     C
C        0.922   0.2026   0.0232     C
H       0.9222   0.9596   0.6792     H
H       0.9248   0.5202   0.4536     H
C       0.9255   0.5243   0.2256     C
C       0.9263   0.5207   0.3963     C
H       0.9263   0.9321   0.8454     H
C       0.9266   0.5246   0.1335     C
H       0.9321   0.9263   0.3454     H
C       0.9465   0.9941   0.1395     C
H       0.9527   0.6647   0.5368     H
H       0.9596   0.9222   0.1792     H
N       0.9622   0.6722   0.5851     N
O       0.9623   0.4301   0.1086     O
C        0.979   0.4236   0.2777     C
C       0.9817   0.4217   0.3635     C
C       0.9846   0.9172   0.8763     C
C       0.9866   0.1414   0.4042     C
H       0.9871   0.6423   0.7449     H
C       0.9941   0.9465   0.6395     C
N       0.9955   0.8137   0.9315     N
