data_I
_chemical_name_common  '/home/zhangsd/repos/MofS-CGCNN/ML/data/TSD/clean_cifs/LUFNAC05_clean'
_cell_length_a 11.86470
_cell_length_b 11.86470
_cell_length_c 16.34300
_cell_angle_alpha 73.31140
_cell_angle_beta  73.31140
_cell_angle_gamma 78.75110
_space_group_name_H-M_alt      'P 1'


loop_
_space_group_symop_operation_xyz
  'x, y, z' 

loop_
_atom_site_label
_atom_site_fract_x
_atom_site_fract_y
_atom_site_fract_z
_atom_site_type_symbol
H       0.0204   0.4232   0.9542     H
C       0.0209   0.4255   0.8967     C
C       0.0242   0.4258   0.7258     C
C       0.0244   0.4262   0.6339     C
O       0.0694   0.5362   0.3914     O
C       0.0758     0.52   0.2224     C
C       0.0778   0.5178   0.1362     C
C       0.1194   0.3728   0.8452     C
O       0.1205   0.3865   0.5881     O
C       0.1212   0.3724   0.7594     C
H       0.1413   0.4853   0.2452     H
H       0.1652   0.4532   0.0366     H
Mn     0.16672   0.3843  0.45312    Mn
N       0.1722   0.4622   0.0853     N
H       0.1873   0.3365   0.7252     H
O        0.216   0.3022    0.964     O
C       0.2224   0.3092   0.8834     C
H       0.2245   0.5891   0.5156     H
O       0.2611   0.3115   0.3362     O
H       0.2652   0.3764   0.1717     H
C       0.2821   0.4185     0.11     C
H       0.2931   0.6371   0.0015     H
C       0.2969   0.5795   0.4752     C
O       0.3022    0.216    0.464     O
C       0.3092   0.2224   0.3834     C
O       0.3115   0.2611   0.8362     O
N       0.3127   0.4955   0.4312     N
H       0.3263   0.3619   0.0762     H
H       0.3365   0.1873   0.2252     H
C       0.3484    0.621    0.035     C
C       0.3585   0.5127   0.0963     C
H       0.3619   0.3263   0.5762     H
H       0.3629   0.7069   0.4985     H
C       0.3724   0.1212   0.2594     C
C       0.3728   0.1194   0.3452     C
H       0.3764   0.2652   0.6717     H
C        0.379   0.6516    0.465     C
Mn      0.3843  0.16672  0.95312    Mn
O       0.3865   0.1205   0.0881     O
H       0.4109   0.7755   0.9844     H
C       0.4179   0.4841   0.3769     C
C       0.4185   0.2821     0.61     C
C       0.4205   0.7031   0.0248     C
H       0.4225   0.4573   0.6801     H
H       0.4232   0.0204   0.4542     H
H       0.4243   0.4343   0.8474     H
C       0.4255   0.0209   0.3967     C
C       0.4258   0.0242   0.2258     C
C       0.4262   0.0244   0.1339     C
H       0.4343   0.4243   0.3474     H
C       0.4453   0.4941   0.1395     C
H       0.4532   0.1652   0.5366     H
H       0.4573   0.4225   0.1801     H
N       0.4622   0.1722   0.5853     N
O       0.4638   0.9306   0.1086     O
C         0.48   0.9242   0.2776     C
C       0.4822   0.9222   0.3638     C
C       0.4841   0.4179   0.8769     C
H       0.4853   0.1413   0.7452     H
C       0.4873   0.6415   0.4037     C
C       0.4941   0.4453   0.6395     C
N       0.4955   0.3127   0.9312     N
N       0.5045   0.6873   0.0688     N
C       0.5059   0.5547   0.3605     C
C       0.5127   0.3585   0.5963     C
H       0.5147   0.8587   0.2548     H
C       0.5159   0.5821   0.1231     C
C       0.5178   0.0778   0.6362     C
C         0.52   0.0758   0.7224     C
O       0.5362   0.0694   0.8914     O
N       0.5378   0.8278   0.4147     N
H       0.5427   0.5775   0.8199     H
H       0.5468   0.8348   0.4634     H
C       0.5547   0.5059   0.8605     C
H       0.5657   0.5757   0.6526     H
C       0.5738   0.9756   0.8661     C
C       0.5742   0.9758   0.7742     C
C       0.5745   0.9791   0.6033     C
H       0.5757   0.5657   0.1526     H
H       0.5768   0.9796   0.5458     H
H       0.5775   0.5427   0.3199     H
C       0.5795   0.2969   0.9752     C
C       0.5815   0.7179     0.39     C
C       0.5821   0.5159   0.6231     C
H       0.5891   0.2245   0.0156     H
O       0.6135   0.8795   0.9119     O
Mn      0.6157  0.83328  0.04688    Mn
C        0.621   0.3484    0.535     C
H       0.6236   0.7348   0.3283     H
C       0.6272   0.8806   0.6548     C
C       0.6276   0.8788   0.7406     C
H       0.6371   0.2931   0.5015     H
H       0.6381   0.6737   0.4238     H
C       0.6415   0.4873   0.9037     C
C       0.6516    0.379    0.965     C
H       0.6635   0.8127   0.7748     H
H       0.6737   0.6381   0.9238     H
N       0.6873   0.5045   0.5688     N
O       0.6885   0.7389   0.1638     O
C       0.6908   0.7776   0.6166     C
O       0.6978    0.784    0.536     O
C       0.7031   0.4205   0.5248     C
H       0.7069   0.3629   0.9985     H
C       0.7179   0.5815     0.89     C
H       0.7348   0.6236   0.8283     H
O       0.7389   0.6885   0.6638     O
H       0.7755   0.4109   0.4844     H
C       0.7776   0.6908   0.1166     C
O        0.784   0.6978    0.036     O
H       0.8127   0.6635   0.2748     H
N       0.8278   0.5378   0.9147     N
Mn     0.83328   0.6157  0.54688    Mn
H       0.8348   0.5468   0.9634     H
H       0.8587   0.5147   0.7548     H
C       0.8788   0.6276   0.2406     C
O       0.8795   0.6135   0.4119     O
C       0.8806   0.6272   0.1548     C
C       0.9222   0.4822   0.8638     C
C       0.9242     0.48   0.7776     C
O       0.9306   0.4638   0.6086     O
C       0.9756   0.5738   0.3661     C
C       0.9758   0.5742   0.2742     C
C       0.9791   0.5745   0.1033     C
H       0.9796   0.5768   0.0458     H
