data_I
_chemical_name_common  '/home/zhangsd/repos/MofS-CGCNN/ML/data/TSD/clean_cifs/LUFNEG_clean'
_cell_length_a 14.91800
_cell_length_b 15.59600
_cell_length_c 16.44200
_cell_angle_alpha 90.00000
_cell_angle_beta  105.60600
_cell_angle_gamma 90.00000
_space_group_name_H-M_alt      'P 1'


loop_
_space_group_symop_operation_xyz
  'x, y, z' 

loop_
_atom_site_label
_atom_site_fract_x
_atom_site_fract_y
_atom_site_fract_z
_atom_site_type_symbol
C       0.0177   0.1143   0.4777     C
C       0.0247   0.0765   0.3457     C
C       0.0369   0.1554   0.0675     C
C       0.0379   0.9919   0.9005     C
H       0.0456    0.135   0.5316     H
C        0.056   0.0173   0.1236     C
H       0.0576   0.0709   0.3054     H
C       0.0581   0.8564   0.9533     C
H       0.0606   0.2069   0.0538     H
H       0.0627   0.0443   0.8904     H
C       0.0671   0.9474   0.6762     C
N       0.0712   0.1084   0.4236     N
C       0.0734   0.9075   0.5399     C
H       0.0932   0.9723   0.1507     H
H       0.0945   0.9684   0.7301     H
H       0.0964   0.8116   0.9791     H
C        0.097   0.0933    0.108     C
N       0.0976   0.9296    0.938     N
H       0.1056   0.9003   0.4992     H
C       0.1187   0.9405   0.6186     C
H       0.1844   0.4052   0.9081     H
O       0.1932   0.2646   0.3948     O
C       0.2018    0.102   0.1351     C
C       0.2111   0.3342   0.3667     C
H       0.2125   0.2083   0.2602     H
N       0.2177    0.397   0.8745     N
C       0.2193   0.3365   0.2767     C
C       0.2198   0.9654   0.6411     C
C       0.2201   0.2597   0.2341     C
C       0.2211   0.3198   0.8338     C
O       0.2224   0.4048   0.4068     O
H       0.2229   0.0958    0.196     H
H       0.2229   0.2409   0.9332     H
H       0.2235   0.4655   0.2649     H
Mn     0.22412  0.14594  0.45401    Mn
C       0.2246    0.241   0.8771     C
O       0.2253   0.1695   0.5812     O
C       0.2264   0.3174   0.7491     C
C       0.2266    0.414   0.2373     C
H       0.2267   0.0157   0.6086     H
H       0.2273   0.3684     0.72     H
H       0.2285   0.0552   0.1105     H
C       0.2301   0.2396    0.709     C
C       0.2303   0.1644   0.8369     C
C       0.2319   0.2582   0.1531     C
C       0.2323   0.1636   0.7526     C
H       0.2351   0.1116   0.7256     H
C       0.2362   0.2398   0.6188     C
O       0.2371   0.0651   0.3457     O
N       0.2372    0.182   0.1119     N
C       0.2377   0.0812   0.8853     C
O       0.2379    0.011   0.8464     O
H       0.2384    0.682   0.4297     H
C       0.2386   0.4141   0.1554     C
H       0.2393    0.981   0.7003     H
C       0.2407    0.336    0.115     C
O       0.2441   0.0825   0.9633     O
O        0.245   0.8078   0.9102     O
O       0.2454   0.4964   0.0351     O
Mn     0.24609   0.4316  0.53709    Mn
H       0.2482    0.336   0.0607     H
C       0.2494   0.4969   0.1125     C
C       0.2506   0.9969   0.3875     C
H       0.2518    0.836   0.4393     H
Mn     0.25391   0.9316  0.96291    Mn
O       0.2546   0.9964   0.4649     O
O        0.255   0.3078   0.5898     O
O       0.2559   0.5825   0.5367     O
C       0.2593    0.836    0.385     C
H       0.2607    0.481   0.7997     H
C       0.2614   0.9141   0.3446     C
H       0.2616    0.182   0.0703     H
O       0.2621    0.511   0.6536     O
C       0.2623   0.5812   0.6147     C
N       0.2628    0.682   0.3881     N
O       0.2629   0.5651   0.1543     O
C       0.2638   0.7398   0.8812     C
H       0.2649   0.6116   0.7744     H
C       0.2677   0.6636   0.7474     C
C       0.2681   0.7582   0.3469     C
C       0.2697   0.6644   0.6631     C
C       0.2699   0.7396    0.791     C
H       0.2715   0.5552   0.3895     H
H       0.2727   0.8684     0.78     H
H       0.2733   0.5157   0.8914     H
C       0.2734    0.914   0.2627     C
C       0.2736   0.8174   0.7509     C
O       0.2747   0.6695   0.9188     O
C       0.2754    0.741   0.6229     C
Mn     0.27588  0.64594  0.04599    Mn
H       0.2765   0.9655   0.2351     H
H       0.2771   0.5958    0.304     H
H       0.2771   0.7409   0.5668     H
O       0.2776   0.9048   0.0932     O
C       0.2789   0.8198   0.6662     C
C       0.2799   0.7597   0.2659     C
C       0.2802   0.4654   0.8589     C
C       0.2807   0.8365   0.2233     C
N       0.2823    0.897   0.6255     N
H       0.2875   0.7083   0.2398     H
C       0.2889   0.8342   0.1333     C
C       0.2982    0.602   0.3649     C
O       0.3068   0.7646   0.1052     O
H       0.3156   0.9052   0.5919     H
C       0.3813   0.4405   0.8814     C
H       0.3944   0.4003   0.0008     H
N       0.4024   0.4296    0.562     N
C        0.403   0.5933    0.392     C
H       0.4036   0.3116   0.5209     H
H       0.4055   0.4684   0.7699     H
H       0.4068   0.4723   0.3493     H
C       0.4266   0.4075   0.9601     C
N       0.4288   0.6084   0.0764     N
C       0.4329   0.4474   0.8238     C
H       0.4373   0.5443   0.6096     H
H       0.4394   0.7069   0.4462     H
C       0.4419   0.3564   0.5467     C
H       0.4424   0.5709   0.1946     H
C        0.444   0.5173   0.3764     C
H       0.4544    0.635   0.9684     H
C       0.4621   0.4919   0.5995     C
C       0.4631   0.6554   0.4325     C
C       0.4753   0.5765   0.1543     C
C       0.4823   0.6143   0.0223     C
C       0.5177   0.3857   0.9777     C
C       0.5247   0.4235   0.8457     C
C       0.5369   0.3446   0.5675     C
C       0.5379   0.5081   0.4005     C
H       0.5456    0.365   0.0316     H
C        0.556   0.4827   0.6236     C
H       0.5576   0.4291   0.8054     H
C       0.5581   0.6436   0.4533     C
H       0.5606   0.2931   0.5538     H
H       0.5627   0.4557   0.3904     H
C       0.5671   0.5526   0.1762     C
N       0.5712   0.3916   0.9236     N
C       0.5734   0.5925   0.0399     C
H       0.5932   0.5277   0.6507     H
H       0.5945   0.5316   0.2301     H
H       0.5964   0.6884   0.4791     H
C        0.597   0.4067    0.608     C
N       0.5976   0.5704    0.438     N
H       0.6056   0.5997   0.9992     H
C       0.6187   0.5595   0.1186     C
H       0.6844   0.0948   0.4081     H
O       0.6932   0.2354   0.8948     O
C       0.7018    0.398   0.6351     C
C       0.7111   0.1658   0.8667     C
H       0.7125   0.2917   0.7602     H
N       0.7177    0.103   0.3745     N
C       0.7193   0.1635   0.7767     C
C       0.7198   0.5346   0.1411     C
C       0.7201   0.2403   0.7341     C
C       0.7211   0.1802   0.3338     C
O       0.7224   0.0952   0.9068     O
H       0.7229   0.2591   0.4332     H
H       0.7229   0.4042    0.696     H
H       0.7235   0.0345   0.7649     H
Mn     0.72412  0.35406  0.95401    Mn
C       0.7246    0.259   0.3771     C
O       0.7253   0.3305   0.0812     O
C       0.7264   0.1826   0.2491     C
C       0.7266    0.086   0.7373     C
H       0.7267   0.4843   0.1086     H
H       0.7273   0.1316     0.22     H
H       0.7285   0.4448   0.6105     H
C       0.7301   0.2604    0.209     C
C       0.7303   0.3356   0.3369     C
C       0.7319   0.2418   0.6531     C
C       0.7323   0.3364   0.2526     C
H       0.7351   0.3884   0.2256     H
C       0.7362   0.2602   0.1188     C
O       0.7371   0.4349   0.8457     O
N       0.7372    0.318   0.6119     N
C       0.7377   0.4188   0.3853     C
O       0.7379    0.489   0.3464     O
H       0.7384    0.818   0.9297     H
C       0.7386   0.0859   0.6554     C
H       0.7393    0.519   0.2003     H
C       0.7407    0.164    0.615     C
O       0.7441   0.4175   0.4633     O
O        0.745   0.6922   0.4102     O
O       0.7454   0.0036   0.5351     O
Mn     0.74609   0.0684  0.03709    Mn
H       0.7482    0.164   0.5607     H
C       0.7494   0.0031   0.6125     C
C       0.7506   0.5031   0.8875     C
H       0.7518    0.664   0.9393     H
Mn     0.75391   0.5684  0.46291    Mn
O       0.7546   0.5036   0.9649     O
O        0.755   0.1922   0.0898     O
O       0.7559   0.9175   0.0367     O
C       0.7593    0.664    0.885     C
H       0.7607    0.019   0.2997     H
C       0.7614   0.5859   0.8446     C
H       0.7616    0.318   0.5703     H
O       0.7621    0.989   0.1536     O
C       0.7623   0.9188   0.1147     C
N       0.7628    0.818   0.8881     N
O       0.7629   0.9349   0.6543     O
C       0.7638   0.7602   0.3812     C
H       0.7649   0.8884   0.2744     H
C       0.7677   0.8364   0.2474     C
C       0.7681   0.7418   0.8469     C
C       0.7697   0.8356   0.1631     C
C       0.7699   0.7604    0.291     C
H       0.7715   0.9448   0.8895     H
H       0.7727   0.6316     0.28     H
H       0.7733   0.9843   0.3914     H
C       0.7734    0.586   0.7627     C
C       0.7736   0.6826   0.2509     C
O       0.7747   0.8305   0.4188     O
C       0.7754    0.759   0.1229     C
Mn     0.77588  0.85406  0.54599    Mn
H       0.7765   0.5345   0.7351     H
H       0.7771   0.7591   0.0668     H
H       0.7771   0.9042    0.804     H
O       0.7776   0.5952   0.5932     O
C       0.7789   0.6802   0.1662     C
C       0.7799   0.7403   0.7659     C
C       0.7802   0.0346   0.3589     C
C       0.7807   0.6635   0.7233     C
N       0.7823    0.603   0.1255     N
H       0.7875   0.7917   0.7398     H
C       0.7889   0.6658   0.6333     C
C       0.7982    0.898   0.8649     C
O       0.8068   0.7354   0.6052     O
H       0.8156   0.5948   0.0919     H
C       0.8813   0.0595   0.3814     C
H       0.8944   0.0997   0.5008     H
N       0.9024   0.0704    0.062     N
C        0.903   0.9067    0.892     C
H       0.9036   0.1884   0.0209     H
H       0.9055   0.0316   0.2699     H
H       0.9068   0.0277   0.8493     H
C       0.9266   0.0925   0.4601     C
N       0.9288   0.8916   0.5764     N
C       0.9329   0.0526   0.3238     C
H       0.9373   0.9557   0.1096     H
H       0.9394   0.7931   0.9462     H
C       0.9419   0.1436   0.0467     C
H       0.9424   0.9291   0.6946     H
C        0.944   0.9827   0.8764     C
H       0.9544    0.865   0.4684     H
C       0.9621   0.0081   0.0995     C
C       0.9631   0.8446   0.9325     C
C       0.9753   0.9235   0.6543     C
C       0.9823   0.8857   0.5223     C
