data_I
_chemical_name_common  '/home/zhangsd/repos/MofS-CGCNN/ML/data/TSD/clean_cifs/LUFNAC_clean'
_cell_length_a 11.83260
_cell_length_b 11.83260
_cell_length_c 16.44400
_cell_angle_alpha 73.15830
_cell_angle_beta  73.15830
_cell_angle_gamma 78.86840
_space_group_name_H-M_alt      'P 1'


loop_
_space_group_symop_operation_xyz
  'x, y, z' 

loop_
_atom_site_label
_atom_site_fract_x
_atom_site_fract_y
_atom_site_fract_z
_atom_site_type_symbol
H       0.0187   0.4277   0.4522     H
C       0.0196   0.4276   0.3955     C
C       0.0263   0.4293   0.2254     C
C       0.0273   0.4303   0.1333     C
O       0.0647   0.5291   0.8929     O
C       0.0746   0.5182   0.7242     C
C       0.0777   0.5157   0.6382     C
C       0.1174   0.3712   0.3466     C
C       0.1206   0.3728   0.2604     C
O       0.1223   0.3843   0.0891     O
H         0.14   0.4846   0.7472     H
Mn     0.16389  0.38015  0.95586    Mn
H       0.1665   0.4519   0.5382     H
N       0.1733   0.4607   0.5866     N
H       0.1865   0.3355   0.2269     H
O       0.2119   0.3005   0.4649     O
C       0.2173   0.3065   0.3854     C
H       0.2254    0.584   0.0158     H
O       0.2557   0.3071   0.8393     O
H       0.2678   0.3742   0.6725     H
C       0.2846   0.4174   0.6112     C
H       0.2886    0.639   0.5098     H
C       0.2962   0.5766   0.9734     C
O       0.3005   0.2119   0.9649     O
C       0.3065   0.2173   0.8854     C
O       0.3071   0.2557   0.3393     O
N       0.3113   0.4931   0.9295     N
H       0.3299   0.3617    0.577     H
H       0.3355   0.1865   0.7269     H
C       0.3476   0.6212   0.5401     C
C       0.3598    0.513   0.5983     C
H        0.361   0.7114   0.9902     H
H       0.3617   0.3299    0.077     H
C       0.3712   0.1174   0.8466     C
C       0.3728   0.1206   0.7604     C
H       0.3742   0.2678   0.1725     H
C       0.3788   0.6524   0.9599     C
Mn     0.38015  0.16389  0.45586    Mn
O       0.3843   0.1223   0.5891     O
H        0.416   0.7746   0.4842     H
H       0.4167   0.4351   0.3508     H
C       0.4174   0.2846   0.1112     C
C       0.4174   0.4788   0.8781     C
H       0.4218   0.4632   0.1773     H
C       0.4234   0.7038   0.5266     C
C       0.4276   0.0196   0.8955     C
H       0.4277   0.0187   0.9522     H
C       0.4293   0.0263   0.7254     C
C       0.4303   0.0273   0.6333     C
H       0.4351   0.4167   0.8508     H
C       0.4495   0.4945   0.6383     C
H       0.4519   0.1665   0.0382     H
N       0.4607   0.1733   0.0866     N
H       0.4632   0.4218   0.6773     H
O       0.4709   0.9353   0.6071     O
C       0.4788   0.4174   0.3781     C
C       0.4818   0.9254   0.7758     C
C       0.4843   0.9223   0.8618     C
H       0.4846     0.14   0.2472     H
C        0.487   0.6402   0.9017     C
N       0.4931   0.3113   0.4295     N
C       0.4945   0.4495   0.1383     C
C       0.5055   0.5505   0.8617     C
N       0.5069   0.6887   0.5705     N
C        0.513   0.3598   0.0983     C
H       0.5154     0.86   0.7528     H
C       0.5157   0.0777   0.1382     C
C       0.5182   0.0746   0.2242     C
C       0.5212   0.5826   0.6219     C
O       0.5291   0.0647   0.3929     O
H       0.5368   0.5782   0.3227     H
N       0.5393   0.8267   0.9134     N
H       0.5481   0.8335   0.9618     H
C       0.5505   0.5055   0.3617     C
H       0.5649   0.5833   0.1492     H
C       0.5697   0.9727   0.3667     C
C       0.5707   0.9737   0.2746     C
H       0.5723   0.9813   0.0478     H
C       0.5724   0.9804   0.1045     C
C       0.5766   0.2962   0.4734     C
H       0.5782   0.5368   0.8227     H
C       0.5826   0.5212   0.1219     C
C       0.5826   0.7154   0.8888     C
H       0.5833   0.5649   0.6492     H
H        0.584   0.2254   0.5158     H
O       0.6157   0.8777   0.4109     O
Mn     0.61985  0.83611  0.54414    Mn
C       0.6212   0.3476   0.0401     C
H       0.6258   0.7322   0.8275     H
C       0.6272   0.8794   0.2396     C
C       0.6288   0.8826   0.1534     C
H       0.6383   0.6701    0.923     H
H        0.639   0.2886   0.0098     H
C       0.6402    0.487   0.4017     C
C       0.6524   0.3788   0.4599     C
H       0.6645   0.8135   0.2731     H
H       0.6701   0.6383    0.423     H
N       0.6887   0.5069   0.0705     N
O       0.6929   0.7443   0.6607     O
C       0.6935   0.7827   0.1146     C
O       0.6995   0.7881   0.0351     O
C       0.7038   0.4234   0.0266     C
H       0.7114    0.361   0.4902     H
C       0.7154   0.5826   0.3888     C
H       0.7322   0.6258   0.3275     H
O       0.7443   0.6929   0.1607     O
H       0.7746    0.416   0.9842     H
C       0.7827   0.6935   0.6146     C
O       0.7881   0.6995   0.5351     O
H       0.8135   0.6645   0.7731     H
N       0.8267   0.5393   0.4134     N
H       0.8335   0.5481   0.4618     H
Mn     0.83611  0.61985  0.04414    Mn
H         0.86   0.5154   0.2528     H
O       0.8777   0.6157   0.9109     O
C       0.8794   0.6272   0.7396     C
C       0.8826   0.6288   0.6534     C
C       0.9223   0.4843   0.3618     C
C       0.9254   0.4818   0.2758     C
O       0.9353   0.4709   0.1071     O
C       0.9727   0.5697   0.8667     C
C       0.9737   0.5707   0.7746     C
C       0.9804   0.5724   0.6045     C
H       0.9813   0.5723   0.5478     H
