data_I
_chemical_name_common  '/home/zhangsd/repos/MofS-CGCNN/ML/data/TSD/clean_cifs/LUMYID_clean'
_cell_length_a 24.32100
_cell_length_b  9.40980
_cell_length_c 16.62800
_cell_angle_alpha 90.00000
_cell_angle_beta  119.24000
_cell_angle_gamma 90.00000
_space_group_name_H-M_alt      'P 1'


loop_
_space_group_symop_operation_xyz
  'x, y, z' 

loop_
_atom_site_label
_atom_site_fract_x
_atom_site_fract_y
_atom_site_fract_z
_atom_site_type_symbol
Cu     0.04273  0.17643  0.54115    Cu
Cu     0.04273  0.82357  0.04115    Cu
Cu     0.04277   0.3857  0.87746    Cu
Cu     0.04277   0.6143  0.37746    Cu
N       0.0449   0.4339   0.4306     N
N       0.0449   0.5661   0.9306     N
C       0.0452   0.3317   0.4674     C
C       0.0452   0.6683   0.9674     C
N      0.04642   0.1197   0.9828     N
N      0.04642   0.8803   0.4828     N
N      0.04789   0.3026   0.7074     N
N      0.04789   0.6974   0.2074     N
N      0.07985   0.0073   0.0236     N
N      0.07985   0.9927   0.5236     N
N      0.08176   0.2093   0.9627     N
N      0.08176   0.7907   0.4627     N
N        0.082   0.2362   0.6778     N
N        0.082   0.7638   0.1778     N
N      0.08231   0.3188   0.7991     N
N      0.08231   0.6812   0.2991     N
C       0.1372   0.1443    0.994     C
C       0.1372   0.8557    0.494     C
N       0.1376   0.0185   0.0325     N
N       0.1376   0.9815   0.5325     N
C       0.1377   0.2599   0.8224     C
C       0.1377   0.7401   0.3224     C
N       0.1395   0.2093   0.7489     N
N       0.1395   0.7907   0.2489     N
C       0.1932    0.203   0.9939     C
C       0.1932    0.797   0.4939     C
C       0.1936   0.2562   0.9155     C
C       0.1936   0.7438   0.4155     C
H       0.2491   0.1593   0.1281     H
H       0.2491   0.8407   0.6281     H
C       0.2493   0.1964   0.0764     C
C       0.2493   0.8036   0.5764     C
C       0.2507   0.3036   0.9236     C
C       0.2507   0.6964   0.4236     C
H       0.2509   0.3407   0.8719     H
H       0.2509   0.6593   0.3719     H
C       0.3064   0.2438   0.0845     C
C       0.3064   0.7562   0.5845     C
C       0.3068    0.297   0.0061     C
C       0.3068    0.703   0.5061     C
N       0.3605   0.2907   0.2511     N
N       0.3605   0.7093   0.7511     N
C       0.3623   0.2401   0.1776     C
C       0.3623   0.7599   0.6776     C
N       0.3624   0.4815   0.9675     N
N       0.3624   0.5185   0.4675     N
C       0.3628   0.3557    0.006     C
C       0.3628   0.6443    0.506     C
N      0.41769   0.1812   0.2009     N
N      0.41769   0.8188   0.7009     N
N        0.418   0.2638   0.3222     N
N        0.418   0.7362   0.8222     N
N      0.41824   0.2907   0.0373     N
N      0.41824   0.7093   0.5373     N
N      0.42015   0.4927   0.9764     N
N      0.42015   0.5073   0.4764     N
N      0.45211   0.1974   0.2926     N
N      0.45211   0.8026   0.7926     N
N      0.45358   0.3803   0.0172     N
N      0.45358   0.6197   0.5172     N
C       0.4548   0.1683   0.5326     C
C       0.4548   0.8317   0.0326     C
N       0.4551   0.0661   0.5694     N
N       0.4551   0.9339   0.0694     N
Cu     0.45723   0.1143  0.12254    Cu
Cu     0.45723   0.8857  0.62254    Cu
Cu     0.45727  0.32357  0.45885    Cu
Cu     0.45727  0.67643  0.95885    Cu
Cu     0.54273  0.32357  0.04115    Cu
Cu     0.54273  0.67643  0.54115    Cu
Cu     0.54277   0.1143  0.37746    Cu
Cu     0.54277   0.8857  0.87746    Cu
N       0.5449   0.0661   0.9306     N
N       0.5449   0.9339   0.4306     N
C       0.5452   0.1683   0.9674     C
C       0.5452   0.8317   0.4674     C
N      0.54642   0.3803   0.4828     N
N      0.54642   0.6197   0.9828     N
N      0.54789   0.1974   0.2074     N
N      0.54789   0.8026   0.7074     N
N      0.57985   0.4927   0.5236     N
N      0.57985   0.5073   0.0236     N
N      0.58176   0.2907   0.4627     N
N      0.58176   0.7093   0.9627     N
N        0.582   0.2638   0.1778     N
N        0.582   0.7362   0.6778     N
N      0.58231   0.1812   0.2991     N
N      0.58231   0.8188   0.7991     N
C       0.6372   0.3557    0.494     C
C       0.6372   0.6443    0.994     C
N       0.6376   0.4815   0.5325     N
N       0.6376   0.5185   0.0325     N
C       0.6377   0.2401   0.3224     C
C       0.6377   0.7599   0.8224     C
N       0.6395   0.2907   0.2489     N
N       0.6395   0.7093   0.7489     N
C       0.6932    0.297   0.4939     C
C       0.6932    0.703   0.9939     C
C       0.6936   0.2438   0.4155     C
C       0.6936   0.7562   0.9155     C
H       0.7491   0.3407   0.6281     H
H       0.7491   0.6593   0.1281     H
C       0.7493   0.3036   0.5764     C
C       0.7493   0.6964   0.0764     C
C       0.7507   0.1964   0.4236     C
C       0.7507   0.8036   0.9236     C
H       0.7509   0.1593   0.3719     H
H       0.7509   0.8407   0.8719     H
C       0.8064   0.2562   0.5845     C
C       0.8064   0.7438   0.0845     C
C       0.8068    0.203   0.5061     C
C       0.8068    0.797   0.0061     C
N       0.8605   0.2093   0.7511     N
N       0.8605   0.7907   0.2511     N
C       0.8623   0.2599   0.6776     C
C       0.8623   0.7401   0.1776     C
N       0.8624   0.0185   0.4675     N
N       0.8624   0.9815   0.9675     N
C       0.8628   0.1443    0.506     C
C       0.8628   0.8557    0.006     C
N      0.91769   0.3188   0.7009     N
N      0.91769   0.6812   0.2009     N
N        0.918   0.2362   0.8222     N
N        0.918   0.7638   0.3222     N
N      0.91824   0.2093   0.5373     N
N      0.91824   0.7907   0.0373     N
N      0.92015   0.0073   0.4764     N
N      0.92015   0.9927   0.9764     N
N      0.95211   0.3026   0.7926     N
N      0.95211   0.6974   0.2926     N
N      0.95358   0.1197   0.5172     N
N      0.95358   0.8803   0.0172     N
C       0.9548   0.3317   0.0326     C
C       0.9548   0.6683   0.5326     C
N       0.9551   0.4339   0.0694     N
N       0.9551   0.5661   0.5694     N
Cu     0.95723   0.3857  0.62254    Cu
Cu     0.95723   0.6143  0.12254    Cu
Cu     0.95727  0.17643  0.95885    Cu
Cu     0.95727  0.82357  0.45885    Cu
