data_I
_chemical_name_common  '/home/zhangsd/repos/MofS-CGCNN/ML/data/TSD/clean_cifs/LUMZEA_clean'
_cell_length_a  8.10500
_cell_length_b 16.96900
_cell_length_c 17.66600
_cell_angle_alpha 90.00000
_cell_angle_beta  102.49500
_cell_angle_gamma 90.00000
_space_group_name_H-M_alt      'P 1'


loop_
_space_group_symop_operation_xyz
  'x, y, z' 

loop_
_atom_site_label
_atom_site_fract_x
_atom_site_fract_y
_atom_site_fract_z
_atom_site_type_symbol
Cu     0.00577  0.70429  0.28783    Cu
Cu     0.00577  0.79571  0.78783    Cu
N       0.0103   0.1583   0.3709     N
N       0.0103   0.3417   0.8709     N
H       0.0321   0.5392   0.9233     H
H       0.0321   0.9608   0.4233     H
O       0.0627   0.0044   0.7143     O
O       0.0627   0.4956   0.2143     O
H       0.0739   0.1367   0.4861     H
H       0.0739   0.3633   0.9861     H
C       0.0796   0.5248   0.8137     C
C       0.0796   0.9752   0.3137     C
H       0.0873   0.6191   0.8885     H
H       0.0873   0.8809   0.3885     H
N        0.105   0.1876   0.3222     N
N        0.105   0.3124   0.8222     N
C       0.1085   0.1557   0.4414     C
C       0.1085   0.3443   0.9414     C
C       0.1135   0.5622    0.895     C
C       0.1135   0.9378    0.395     C
O       0.1557   0.7234   0.3897     O
O       0.1557   0.7766   0.8897     O
H       0.1654   0.2309   0.0761     H
H       0.1654   0.2691   0.5761     H
N       0.1722    0.228   0.6854     N
N       0.1722    0.272   0.1854     N
O       0.1947   0.5578   0.0656     O
O       0.1947   0.9422   0.5656     O
O       0.1979   0.5208   0.7773     O
O       0.1979   0.9792   0.2773     O
Cu     0.20535  0.60267  0.17002    Cu
Cu     0.20535  0.89733  0.67002    Cu
O       0.2099   0.6623   0.2626     O
O       0.2099   0.8377   0.7626     O
C       0.2176   0.2341   0.6161     C
C       0.2176   0.2659   0.1161     C
C       0.2579   0.2021   0.3662     C
C       0.2579   0.2979   0.8662     C
N       0.2652   0.1837   0.4411     N
N       0.2652   0.3163   0.9411     N
C       0.2711   0.5553   0.9412     C
C       0.2711   0.9447   0.4412     C
C       0.2799   0.1725   0.7217     C
C       0.2799   0.3275   0.2217     C
H       0.2816   0.1545   0.7727     H
H       0.2816   0.3455   0.2727     H
C       0.2884   0.5872   0.0237     C
C       0.2884   0.9128   0.5237     C
H       0.2981   0.5423   0.3581     H
H       0.2981   0.9577   0.8581     H
C       0.3047   0.6978   0.3974     C
C       0.3047   0.8022   0.8974     C
H       0.3089   0.0009   0.4429     H
H       0.3089   0.4991   0.9429     H
N        0.342   0.1861   0.6102     N
N        0.342   0.3139   0.1102     N
C       0.3482   0.6543   0.3268     C
C       0.3482   0.8457   0.8268     C
H         0.35   0.2228   0.3471     H
H         0.35   0.2772   0.8471     H
N        0.382    0.146   0.6794     N
N        0.382    0.354   0.1794     N
O       0.3824   0.6059   0.9011     O
O       0.3824   0.8941   0.4011     O
C       0.3965   0.5704   0.3462     C
C       0.3965   0.9296   0.8462     C
O       0.4012   0.6378   0.0472     O
O       0.4012   0.8622   0.5472     O
Cu     0.40762  0.58083  0.79756    Cu
Cu     0.40762  0.91917  0.29756    Cu
O       0.4176   0.5512   0.2118     O
O       0.4176   0.9488   0.7118     O
O       0.4187   0.7065   0.4567     O
O       0.4187   0.7935   0.9567     O
H       0.4478   0.6814   0.3134     H
H       0.4478   0.8186   0.8134     H
C       0.4541   0.5276    0.282     C
C       0.4541   0.9724    0.782     C
O        0.463   0.5363   0.7006     O
O        0.463   0.9637   0.2006     O
Cu     0.46442  0.16737  0.52707    Cu
Cu     0.46442  0.33263  0.02707    Cu
H       0.4884   0.5691   0.3933     H
H       0.4884   0.9309   0.8933     H
H       0.5116   0.0691   0.1067     H
H       0.5116   0.4309   0.6067     H
Cu     0.53558  0.66737  0.97293    Cu
Cu     0.53558  0.83263  0.47293    Cu
O        0.537   0.0363   0.7994     O
O        0.537   0.4637   0.2994     O
C       0.5459   0.0276    0.218     C
C       0.5459   0.4724    0.718     C
H       0.5522   0.1814   0.1866     H
H       0.5522   0.3186   0.6866     H
O       0.5813   0.2065   0.0433     O
O       0.5813   0.2935   0.5433     O
O       0.5824   0.0512   0.2882     O
O       0.5824   0.4488   0.7882     O
Cu     0.59238  0.08083  0.70244    Cu
Cu     0.59238  0.41917  0.20244    Cu
O       0.5988   0.1378   0.4528     O
O       0.5988   0.3622   0.9528     O
C       0.6035   0.0704   0.1538     C
C       0.6035   0.4296   0.6538     C
O       0.6176   0.1059   0.5989     O
O       0.6176   0.3941   0.0989     O
N        0.618    0.646   0.8206     N
N        0.618    0.854   0.3206     N
H         0.65   0.7228   0.1529     H
H         0.65   0.7772   0.6529     H
C       0.6518   0.1543   0.1732     C
C       0.6518   0.3457   0.6732     C
N        0.658   0.6861   0.8898     N
N        0.658   0.8139   0.3898     N
H       0.6911   0.5009   0.0571     H
H       0.6911   0.9991   0.5571     H
C       0.6953   0.1978   0.1026     C
C       0.6953   0.3022   0.6026     C
H       0.7019   0.0423   0.1419     H
H       0.7019   0.4577   0.6419     H
C       0.7116   0.0872   0.4763     C
C       0.7116   0.4128   0.9763     C
H       0.7184   0.6545   0.7273     H
H       0.7184   0.8455   0.2273     H
C       0.7201   0.6725   0.7783     C
C       0.7201   0.8275   0.2783     C
C       0.7289   0.0553   0.5588     C
C       0.7289   0.4447   0.0588     C
N       0.7348   0.6837   0.0589     N
N       0.7348   0.8163   0.5589     N
C       0.7421   0.7021   0.1338     C
C       0.7421   0.7979   0.6338     C
C       0.7824   0.7341   0.8839     C
C       0.7824   0.7659   0.3839     C
O       0.7901   0.1623   0.2374     O
O       0.7901   0.3377   0.7374     O
Cu     0.79465  0.10267  0.32998    Cu
Cu     0.79465  0.39733  0.82998    Cu
O       0.8021   0.0208   0.7227     O
O       0.8021   0.4792   0.2227     O
O       0.8053   0.0578   0.4344     O
O       0.8053   0.4422   0.9344     O
N       0.8278    0.728   0.8146     N
N       0.8278    0.772   0.3146     N
H       0.8346   0.7309   0.4239     H
H       0.8346   0.7691   0.9239     H
O       0.8443   0.2234   0.1103     O
O       0.8443   0.2766   0.6103     O
C       0.8865   0.0622    0.605     C
C       0.8865   0.4378    0.105     C
C       0.8915   0.6557   0.0586     C
C       0.8915   0.8443   0.5586     C
N        0.895   0.6876   0.1778     N
N        0.895   0.8124   0.6778     N
H       0.9127   0.1191   0.6115     H
H       0.9127   0.3809   0.1115     H
C       0.9204   0.0248   0.6863     C
C       0.9204   0.4752   0.1863     C
H       0.9261   0.6367   0.0139     H
H       0.9261   0.8633   0.5139     H
O       0.9373   0.5044   0.7857     O
O       0.9373   0.9956   0.2857     O
H       0.9679   0.0392   0.5767     H
H       0.9679   0.4608   0.0767     H
N       0.9897   0.6583   0.1291     N
N       0.9897   0.8417   0.6291     N
Cu     0.99423  0.20429  0.21217    Cu
Cu     0.99423  0.29571  0.71217    Cu
