data_I
_chemical_name_common  '/home/zhangsd/repos/MofS-CGCNN/ML/data/TSD/clean_cifs/LUWYUY_clean'
_cell_length_a 11.73680
_cell_length_b 11.73680
_cell_length_c 15.46200
_cell_angle_alpha 82.00110
_cell_angle_beta  82.00110
_cell_angle_gamma 76.69060
_space_group_name_H-M_alt      'P 1'


loop_
_space_group_symop_operation_xyz
  'x, y, z' 

loop_
_atom_site_label
_atom_site_fract_x
_atom_site_fract_y
_atom_site_fract_z
_atom_site_type_symbol
H       0.0084   0.1536    0.631     H
N      0.01566   0.7355  0.88141     N
C      0.01885  0.97519  0.87283     C
C      0.02222   0.1015  0.86814     C
C      0.02481  0.98115  0.62717     C
N      0.02759  0.33997  0.86215     N
Cd     0.02804  0.53577  0.87155    Cd
O      0.05267  0.58667  0.71492     O
C      0.06268  0.08248   0.6278     C
C      0.06763  0.69323    0.153     C
C      0.07421  0.80921   0.1502     C
C      0.07971  0.18131   0.1238     C
H       0.0817   0.1905   0.3909     H
C      0.08248  0.06268   0.1278     C
H       0.0903   0.8105   0.6245     H
C       0.1015  0.02222  0.36814     C
C      0.11036  0.88276   0.6237     C
C      0.11208  0.77288   0.8809     C
H       0.1151   0.5953   0.5464     H
C      0.11724  0.88964   0.8763     C
C      0.12083  0.25563   0.8763     C
C      0.12215  0.13735   0.8802     C
O      0.12697  0.47899  0.99918     O
H       0.1334   0.6352   0.1661     H
C      0.13735  0.12215   0.3802     C
H       0.1436   0.8278   0.1606     H
H       0.1504   0.2038   0.1249     H
H       0.1536   0.0084    0.131     H
C       0.1628  0.55834  0.71342     C
H       0.1722   0.8564   0.3394     H
C      0.18131  0.07971   0.6238     C
O      0.18212  0.41014  0.12939     O
H       0.1822   0.7168   0.8839     H
H       0.1895   0.9097   0.8755     H
H       0.1898   0.2772   0.8841     H
H       0.1905   0.0817   0.8909     H
C      0.19079  0.92579   0.3498     C
C       0.1924  0.60086  0.54869     C
H       0.2038   0.1504   0.6249     H
C      0.20566   0.4327  0.04794     C
O      0.21156  0.51536  0.78161     O
C      0.22712  0.88792   0.6191     C
H       0.2326   0.6374   0.4188     H
C      0.23839  0.58275  0.62873     C
C      0.25563  0.12083   0.3763     C
C      0.26252  0.62712  0.47266     C
N       0.2645  0.98434  0.61859     N
H       0.2772   0.1898   0.3841     H
H       0.2832   0.8178   0.6161     H
C      0.30677  0.93237    0.347     C
H       0.3152    0.346   0.4956     H
C      0.33261  0.39545  0.00996     C
N      0.33997  0.02759  0.36215     N
H       0.3429   0.5773   0.0766     H
H        0.346   0.3152   0.9956     H
C      0.35304  0.59166  0.63114     C
C      0.36152  0.62328  0.02485     C
H       0.3626   0.7674   0.0812     H
H       0.3648   0.8666   0.3339     H
O      0.36577  0.46799  0.93357     O
C      0.37288  0.73748  0.02734     C
C      0.37672  0.63848  0.47515     C
C      0.37783  0.57769  0.94535     C
H       0.3831   0.3959   0.0545     H
H       0.3845   0.5771   0.6846     H
C      0.39545  0.33261  0.50996     C
H       0.3959   0.3831   0.5545     H
C      0.39914   0.8076  0.95131     C
H       0.4047   0.8849   0.9536     H
C      0.40834  0.64696  0.86886     C
O      0.41014  0.18212  0.62939     O
O      0.41333  0.94733  0.78508     O
C      0.41725  0.76161  0.87127     C
C      0.42231  0.62217  0.55465     C
H       0.4227   0.6571   0.4234     H
H       0.4229   0.6155   0.8154     H
C       0.4327  0.20566  0.54794     C
C      0.44166   0.8372  0.78658     C
Cd     0.46423  0.97196  0.62845    Cd
O      0.46799  0.36577  0.43357     O
O      0.47899  0.12697  0.49918     O
O      0.48464  0.78844  0.71839     O
O      0.51536  0.21156  0.28161     O
O      0.52101  0.87303  0.50082     O
O      0.53201  0.63423  0.56643     O
Cd     0.53577  0.02804  0.37155    Cd
C      0.55834   0.1628  0.21342     C
C       0.5673  0.79434  0.45206     C
H       0.5771   0.3845   0.1846     H
H       0.5773   0.3429   0.5766     H
C      0.57769  0.37783  0.44535     C
C      0.58275  0.23839  0.12873     C
O      0.58667  0.05267  0.21492     O
O      0.58986  0.81788  0.37061     O
C      0.59166  0.35304  0.13114     C
H       0.5953   0.1151   0.0464     H
C      0.60086   0.1924  0.04869     C
H       0.6041   0.6169   0.4455     H
C      0.60455  0.66739  0.49004     C
H       0.6155   0.4229   0.3154     H
H       0.6169   0.6041   0.9455     H
C      0.62217  0.42231  0.05465     C
C      0.62328  0.36152  0.52485     C
C      0.62712  0.26252  0.97266     C
O      0.63423  0.53201  0.06643     O
H       0.6352   0.1334   0.6661     H
H       0.6374   0.2326   0.9188     H
C      0.63848  0.37672  0.97515     C
C      0.64696  0.40834  0.36886     C
H        0.654   0.6848   0.0044     H
H       0.6571   0.4227   0.9234     H
N      0.66003  0.97241  0.63785     N
C      0.66739  0.60455  0.99004     C
H       0.6848    0.654   0.5044     H
C      0.69323  0.06763    0.653     C
H       0.7168   0.1822   0.3839     H
H       0.7228   0.8102   0.6159     H
N       0.7355  0.01566  0.38141     N
C      0.73748  0.37288  0.52734     C
C      0.74437  0.87917   0.6237     C
C      0.76161  0.41725  0.37127     C
H       0.7674   0.3626   0.5812     H
C      0.77288  0.11208   0.3809     C
O      0.78844  0.48464  0.21839     O
C      0.79434   0.5673  0.95206     C
H       0.7962   0.8496   0.3751     H
C       0.8076  0.39914  0.45131     C
C      0.80921  0.07421   0.6502     C
H       0.8095   0.9183   0.1091     H
H       0.8102   0.7228   0.1159     H
H       0.8105   0.0903   0.1245     H
H       0.8178   0.2832   0.1161     H
O      0.81788  0.58986  0.87061     O
C      0.81869  0.92029   0.3762     C
H       0.8278   0.1436   0.6606     H
C       0.8372  0.44166  0.28658     C
H       0.8464   0.9916    0.869     H
H       0.8496   0.7962   0.8751     H
H       0.8564   0.1722   0.8394     H
C      0.86265  0.87785   0.6198     C
H       0.8666   0.3648   0.8339     H
O      0.87303  0.52101  0.00082     O
C      0.87785  0.86265   0.1198     C
C      0.87917  0.74437   0.1237     C
C      0.88276  0.11036   0.1237     C
H       0.8849   0.4047   0.4536     H
C      0.88792  0.22712   0.1191     C
C      0.88964  0.11724   0.3763     C
C       0.8985  0.97778  0.63186     C
H       0.9097   0.1895   0.3755     H
C      0.91752  0.93732   0.8722     C
H       0.9183   0.8095   0.6091     H
C      0.92029  0.81869   0.8762     C
C      0.92579  0.19079   0.8498     C
C      0.93237  0.30677    0.847     C
C      0.93732  0.91752   0.3722     C
O      0.94733  0.41333  0.28508     O
Cd     0.97196  0.46423  0.12845    Cd
N      0.97241  0.66003  0.13785     N
C      0.97519  0.01885  0.37283     C
C      0.97778   0.8985  0.13186     C
C      0.98115  0.02481  0.12717     C
N      0.98434   0.2645  0.11859     N
H       0.9916   0.8464    0.369     H
