data_I
_chemical_name_common  '/home/zhangsd/repos/MofS-CGCNN/ML/data/TSD/clean_cifs/LUYHAP_clean'
_cell_length_a 17.53110
_cell_length_b 17.53110
_cell_length_c 17.53110
_cell_angle_alpha 62.68840
_cell_angle_beta  62.68840
_cell_angle_gamma 62.68840
_space_group_name_H-M_alt      'P 1'


loop_
_space_group_symop_operation_xyz
  'x, y, z' 

loop_
_atom_site_label
_atom_site_fract_x
_atom_site_fract_y
_atom_site_fract_z
_atom_site_type_symbol
H       0.0009    0.475   0.7794     H
H       0.0009   0.7794    0.475     H
O      0.01879  0.48054  0.62955     O
O      0.01879  0.62955  0.48054     O
C       0.0211   0.0211   0.5039     C
C       0.0211   0.5039   0.0211     C
C        0.057    0.057   0.5167     C
C        0.057   0.5167    0.057     C
C      0.05993  0.19053  0.52553     C
C      0.05993  0.52553  0.19053     C
C      0.06091  0.33391  0.52301     C
C      0.06091  0.52301  0.33391     C
Cu     0.07728  0.49936  0.49936    Cu
C       0.1011   0.1011   0.5242     C
C       0.1011   0.5242   0.1011     C
C      0.10494  0.23594  0.52754     C
C      0.10494  0.52754  0.23594     C
O      0.10812  0.37085  0.52184     O
O      0.10812  0.52184  0.37085     O
C      0.19053  0.05993  0.52553     C
C      0.19053  0.52553  0.05993     C
C      0.19258  0.19258  0.52808     C
C      0.19258  0.52808  0.19258     C
H       0.2206    0.525   0.9991     H
H       0.2206   0.9991    0.525     H
H       0.2241   0.2241   0.5287     H
H       0.2241   0.5287   0.2241     H
C      0.23594  0.10494  0.52754     C
C      0.23594  0.52754  0.10494     C
C      0.33391  0.06091  0.52301     C
C      0.33391  0.52301  0.06091     C
O      0.37045  0.51946  0.98121     O
O      0.37045  0.98121  0.51946     O
O      0.37085  0.10812  0.52184     O
O      0.37085  0.52184  0.10812     O
H       0.4713   0.7759   0.7759     H
C      0.47192  0.80742  0.80742     C
C      0.47246  0.76406  0.89506     C
C      0.47246  0.89506  0.76406     C
C      0.47447  0.80947  0.94007     C
C      0.47447  0.94007  0.80947     C
H        0.475   0.0009   0.7794     H
H        0.475   0.7794   0.0009     H
C       0.4758   0.8989   0.8989     C
C      0.47699  0.66609  0.93909     C
C      0.47699  0.93909  0.66609     C
O      0.47816  0.62915  0.89188     O
O      0.47816  0.89188  0.62915     O
O      0.48054  0.01879  0.62955     O
O      0.48054  0.62955  0.01879     O
C       0.4833    0.943    0.943     C
C       0.4961   0.9789   0.9789     C
Cu     0.49936  0.07728  0.49936    Cu
Cu     0.49936  0.49936  0.07728    Cu
Cu     0.50064  0.50064  0.92272    Cu
Cu     0.50064  0.92272  0.50064    Cu
C       0.5039   0.0211   0.0211     C
C       0.5167    0.057    0.057     C
O      0.51946  0.37045  0.98121     O
O      0.51946  0.98121  0.37045     O
O      0.52184  0.10812  0.37085     O
O      0.52184  0.37085  0.10812     O
C      0.52301  0.06091  0.33391     C
C      0.52301  0.33391  0.06091     C
C       0.5242   0.1011   0.1011     C
H        0.525   0.2206   0.9991     H
H        0.525   0.9991   0.2206     H
C      0.52553  0.05993  0.19053     C
C      0.52553  0.19053  0.05993     C
C      0.52754  0.10494  0.23594     C
C      0.52754  0.23594  0.10494     C
C      0.52808  0.19258  0.19258     C
H       0.5287   0.2241   0.2241     H
O      0.62915  0.47816  0.89188     O
O      0.62915  0.89188  0.47816     O
O      0.62955  0.01879  0.48054     O
O      0.62955  0.48054  0.01879     O
C      0.66609  0.47699  0.93909     C
C      0.66609  0.93909  0.47699     C
C      0.76406  0.47246  0.89506     C
C      0.76406  0.89506  0.47246     C
H       0.7759   0.4713   0.7759     H
H       0.7759   0.7759   0.4713     H
H       0.7794   0.0009    0.475     H
H       0.7794    0.475   0.0009     H
C      0.80742  0.47192  0.80742     C
C      0.80742  0.80742  0.47192     C
C      0.80947  0.47447  0.94007     C
C      0.80947  0.94007  0.47447     C
O      0.89188  0.47816  0.62915     O
O      0.89188  0.62915  0.47816     O
C      0.89506  0.47246  0.76406     C
C      0.89506  0.76406  0.47246     C
C       0.8989   0.4758   0.8989     C
C       0.8989   0.8989   0.4758     C
Cu     0.92272  0.50064  0.50064    Cu
C      0.93909  0.47699  0.66609     C
C      0.93909  0.66609  0.47699     C
C      0.94007  0.47447  0.80947     C
C      0.94007  0.80947  0.47447     C
C        0.943   0.4833    0.943     C
C        0.943    0.943   0.4833     C
C       0.9789   0.4961   0.9789     C
C       0.9789   0.9789   0.4961     C
O      0.98121  0.37045  0.51946     O
O      0.98121  0.51946  0.37045     O
H       0.9991   0.2206    0.525     H
H       0.9991    0.525   0.2206     H
