data_I
_chemical_name_common  '/home/zhangsd/repos/MofS-CGCNN/ML/data/TSD/clean_cifs/LUYSOP_clean'
_cell_length_a 21.56450
_cell_length_b 21.56450
_cell_length_c  9.43790
_cell_angle_alpha 90.00000
_cell_angle_beta  90.00000
_cell_angle_gamma 120.00000
_space_group_name_H-M_alt      'P 1'


loop_
_space_group_symop_operation_xyz
  'x, y, z' 

loop_
_atom_site_label
_atom_site_fract_x
_atom_site_fract_y
_atom_site_fract_z
_atom_site_type_symbol
H          0.0    0.418    0.097     H
H          0.0    0.418    0.903     H
N          0.0      0.5   0.1372     N
Co         0.0      0.5  0.35855    Co
Co         0.0      0.5  0.64145    Co
N          0.0      0.5   0.8628     N
H          0.0    0.582    0.097     H
H          0.0    0.582    0.903     H
C       0.0371   0.4631   0.0812     C
C       0.0371   0.4631   0.9188     C
C       0.0371    0.574   0.0812     C
C       0.0371    0.574   0.9188     C
C       0.0761  0.53805   0.0809     C
C       0.0761  0.53805   0.9191     C
O      0.07648  0.47305   0.3818     O
O      0.07648  0.47305   0.6182     O
O      0.07648  0.60343   0.3818     O
O      0.07648  0.60343   0.6182     O
H        0.085   0.5017    0.101     H
H        0.085   0.5017    0.899     H
H        0.085   0.5833    0.101     H
H        0.085   0.5833    0.899     H
C       0.1016    0.469      0.5     C
C       0.1016   0.6326      0.5     C
C       0.1659   0.4608      0.5     C
C       0.1659   0.7051      0.5     C
H       0.1764   0.4599   0.2864     H
H       0.1764   0.4599   0.7136     H
H       0.1764   0.7165   0.2864     H
H       0.1764   0.7165   0.7136     H
C      0.19836   0.4603   0.3739     C
C      0.19836   0.4603   0.6261     C
C      0.19836  0.73806   0.3739     C
C      0.19836  0.73806   0.6261     C
C      0.26194   0.4603   0.3739     C
C      0.26194   0.4603   0.6261     C
C      0.26194  0.80164   0.3739     C
C      0.26194  0.80164   0.6261     C
H       0.2835   0.4599   0.2864     H
H       0.2835   0.4599   0.7136     H
H       0.2835   0.8236   0.2864     H
H       0.2835   0.8236   0.7136     H
C       0.2949   0.4608      0.5     C
C       0.2949   0.8341      0.5     C
C       0.3674    0.469      0.5     C
C       0.3674   0.8984      0.5     C
O      0.39657  0.47305   0.3818     O
O      0.39657  0.47305   0.6182     O
O      0.39657  0.92352   0.3818     O
O      0.39657  0.92352   0.6182     O
H       0.4167   0.5017    0.101     H
H       0.4167   0.5017    0.899     H
H       0.4167    0.915    0.101     H
H       0.4167    0.915    0.899     H
H        0.418      0.0    0.097     H
H        0.418      0.0    0.903     H
H        0.418    0.418    0.097     H
H        0.418    0.418    0.903     H
C        0.426   0.4631   0.0812     C
C        0.426   0.4631   0.9188     C
C        0.426   0.9629   0.0812     C
C        0.426   0.9629   0.9188     C
H       0.4599   0.1764   0.2864     H
H       0.4599   0.1764   0.7136     H
H       0.4599   0.2835   0.2864     H
H       0.4599   0.2835   0.7136     H
C       0.4603  0.19836   0.3739     C
C       0.4603  0.19836   0.6261     C
C       0.4603  0.26194   0.3739     C
C       0.4603  0.26194   0.6261     C
C       0.4608   0.1659      0.5     C
C       0.4608   0.2949      0.5     C
C      0.46195  0.53805   0.0809     C
C      0.46195  0.53805   0.9191     C
C      0.46195   0.9239   0.0809     C
C      0.46195   0.9239   0.9191     C
C       0.4631   0.0371   0.0812     C
C       0.4631   0.0371   0.9188     C
C       0.4631    0.426   0.0812     C
C       0.4631    0.426   0.9188     C
C        0.469   0.1016      0.5     C
C        0.469   0.3674      0.5     C
O      0.47305  0.07648   0.3818     O
O      0.47305  0.07648   0.6182     O
O      0.47305  0.39657   0.3818     O
O      0.47305  0.39657   0.6182     O
H       0.4983   0.5833    0.101     H
H       0.4983   0.5833    0.899     H
H       0.4983    0.915    0.101     H
H       0.4983    0.915    0.899     H
N          0.5      0.0   0.1372     N
Co         0.5      0.0  0.35855    Co
Co         0.5      0.0  0.64145    Co
N          0.5      0.0   0.8628     N
N          0.5      0.5   0.1372     N
Co         0.5      0.5  0.35855    Co
Co         0.5      0.5  0.64145    Co
N          0.5      0.5   0.8628     N
H       0.5017    0.085    0.101     H
H       0.5017    0.085    0.899     H
H       0.5017   0.4167    0.101     H
H       0.5017   0.4167    0.899     H
O      0.52695  0.60343   0.3818     O
O      0.52695  0.60343   0.6182     O
O      0.52695  0.92352   0.3818     O
O      0.52695  0.92352   0.6182     O
C        0.531   0.6326      0.5     C
C        0.531   0.8984      0.5     C
C       0.5369    0.574   0.0812     C
C       0.5369    0.574   0.9188     C
C       0.5369   0.9629   0.0812     C
C       0.5369   0.9629   0.9188     C
C      0.53805   0.0761   0.0809     C
C      0.53805   0.0761   0.9191     C
C      0.53805  0.46195   0.0809     C
C      0.53805  0.46195   0.9191     C
C       0.5392   0.7051      0.5     C
C       0.5392   0.8341      0.5     C
C       0.5397  0.73806   0.3739     C
C       0.5397  0.73806   0.6261     C
C       0.5397  0.80164   0.3739     C
C       0.5397  0.80164   0.6261     C
H       0.5401   0.7165   0.2864     H
H       0.5401   0.7165   0.7136     H
H       0.5401   0.8236   0.2864     H
H       0.5401   0.8236   0.7136     H
C        0.574   0.0371   0.0812     C
C        0.574   0.0371   0.9188     C
C        0.574   0.5369   0.0812     C
C        0.574   0.5369   0.9188     C
H        0.582      0.0    0.097     H
H        0.582      0.0    0.903     H
H        0.582    0.582    0.097     H
H        0.582    0.582    0.903     H
H       0.5833    0.085    0.101     H
H       0.5833    0.085    0.899     H
H       0.5833   0.4983    0.101     H
H       0.5833   0.4983    0.899     H
O      0.60343  0.07648   0.3818     O
O      0.60343  0.07648   0.6182     O
O      0.60343  0.52695   0.3818     O
O      0.60343  0.52695   0.6182     O
C       0.6326   0.1016      0.5     C
C       0.6326    0.531      0.5     C
C       0.7051   0.1659      0.5     C
C       0.7051   0.5392      0.5     C
H       0.7165   0.1764   0.2864     H
H       0.7165   0.1764   0.7136     H
H       0.7165   0.5401   0.2864     H
H       0.7165   0.5401   0.7136     H
C      0.73806  0.19836   0.3739     C
C      0.73806  0.19836   0.6261     C
C      0.73806   0.5397   0.3739     C
C      0.73806   0.5397   0.6261     C
C      0.80164  0.26194   0.3739     C
C      0.80164  0.26194   0.6261     C
C      0.80164   0.5397   0.3739     C
C      0.80164   0.5397   0.6261     C
H       0.8236   0.2835   0.2864     H
H       0.8236   0.2835   0.7136     H
H       0.8236   0.5401   0.2864     H
H       0.8236   0.5401   0.7136     H
C       0.8341   0.2949      0.5     C
C       0.8341   0.5392      0.5     C
C       0.8984   0.3674      0.5     C
C       0.8984    0.531      0.5     C
H        0.915   0.4167    0.101     H
H        0.915   0.4167    0.899     H
H        0.915   0.4983    0.101     H
H        0.915   0.4983    0.899     H
O      0.92352  0.39657   0.3818     O
O      0.92352  0.39657   0.6182     O
O      0.92352  0.52695   0.3818     O
O      0.92352  0.52695   0.6182     O
C       0.9239  0.46195   0.0809     C
C       0.9239  0.46195   0.9191     C
C       0.9629    0.426   0.0812     C
C       0.9629    0.426   0.9188     C
C       0.9629   0.5369   0.0812     C
C       0.9629   0.5369   0.9188     C
