data_I
_chemical_name_common  '/home/zhangsd/repos/MofS-CGCNN/ML/data/TSD/clean_cifs/MAHCIK_clean'
_cell_length_a 33.59880
_cell_length_b 33.59880
_cell_length_c 33.59880
_cell_angle_alpha 90.00000
_cell_angle_beta  90.00000
_cell_angle_gamma 90.00000
_space_group_name_H-M_alt      'P 1'


loop_
_space_group_symop_operation_xyz
  'x, y, z' 

loop_
_atom_site_label
_atom_site_fract_x
_atom_site_fract_y
_atom_site_fract_z
_atom_site_type_symbol
Zn         0.0  0.45616      0.5    Zn
Zn         0.0      0.5  0.04384    Zn
Zn         0.0      0.5  0.95616    Zn
Zn         0.0  0.54384      0.5    Zn
C       0.0012  0.08408  0.58183     C
C       0.0012  0.91592  0.41817     C
C       0.0013   0.0567   0.5505     C
C       0.0013   0.9433   0.4495     C
C      0.00477  0.13096  0.64991     C
C      0.00477  0.86904  0.35009     C
N       0.0062   0.1715   0.6721     N
N       0.0062   0.8285   0.3279     N
H       0.0101   0.2241   0.2712     H
H       0.0101   0.7759   0.7288     H
C      0.03107  0.11373  0.36149     C
C      0.03107  0.88627  0.63851     C
O       0.0313   0.0399   0.4574     O
O       0.0313   0.9601   0.5426     O
C      0.03261  0.18366   0.3097     C
C      0.03261  0.81634   0.6903     C
C       0.0329  0.09029  0.39553     C
C       0.0329  0.90971  0.60447     C
O       0.0332   0.0453   0.5394     O
O       0.0332   0.9547   0.4606     O
C      0.03368  0.21335  0.28092     C
C      0.03368  0.78665  0.71908     C
C       0.0371  0.10131  0.59323     C
C       0.0371  0.89869  0.40677     C
C      0.03883  0.12475  0.62728     C
C      0.03883  0.87525  0.37272     C
H       0.0394   0.1501   0.7289     H
O       0.0394   0.4668   0.4547     O
O       0.0394   0.5332   0.5453     O
H       0.0394   0.8499   0.2711     H
C       0.0398  0.19167  0.68538     C
C       0.0398  0.80833  0.31462     C
O       0.0399   0.4574   0.0313     O
O       0.0399   0.5426   0.9687     O
O       0.0426   0.4687   0.5399     O
O       0.0426   0.5313   0.4601     O
Zn     0.04384      0.0      0.5    Zn
O       0.0453   0.4606   0.9668     O
O       0.0453   0.5394   0.0332     O
C       0.0505   0.4987   0.4433     C
C       0.0505   0.5013   0.5567     C
H       0.0525   0.2363   0.6471     H
H       0.0525   0.7637   0.3529     H
C      0.05441  0.17048  0.71777     C
C      0.05441  0.82952  0.28223     C
C       0.0567   0.4495   0.9987     C
C       0.0567   0.5505   0.0013     C
H       0.0568   0.0788   0.4032     H
H       0.0568   0.9212   0.5968     H
H       0.0598   0.0972   0.5781     H
H       0.0598   0.9028   0.4219     H
C       0.0623  0.22214  0.66875     C
C       0.0623  0.77786  0.33125     C
H       0.0628   0.1363   0.6349     H
H       0.0628   0.8637   0.3651     H
O        0.065   0.1322   0.3512     O
O        0.065   0.8678   0.6488     O
C      0.06788  0.16759  0.32417     C
C      0.06788  0.83241  0.67583     C
C      0.07003  0.22698  0.26661     C
C      0.07003  0.77302  0.73339     C
H       0.0708   0.2469   0.2474     H
H       0.0708   0.7531   0.7526     H
H       0.0781   0.4402   0.4028     H
H       0.0781   0.5598   0.5972     H
H       0.0788   0.4032   0.0568     H
H       0.0788   0.5968   0.9432     H
C      0.08183   0.4988  0.41592     C
C      0.08183   0.5012  0.58408     C
C      0.08408  0.41817   0.9988     C
C      0.08408  0.58183   0.0012     C
C      0.09029  0.39553   0.0329     C
C      0.09029  0.60447   0.9671     C
C      0.09153   0.1798  0.73352     C
C      0.09153   0.8202  0.26648     C
C      0.09323   0.4629  0.39869     C
C      0.09323   0.5371  0.60131     C
H       0.0968   0.4432   0.5788     H
H       0.0968   0.5568   0.4212     H
H       0.0972   0.4219   0.9402     H
H       0.0972   0.5781   0.0598     H
C      0.09941  0.23142   0.6845     C
C      0.09941  0.76858   0.3155     C
H       0.1013   0.1656   0.7552     H
H       0.1013   0.8344   0.2448     H
C      0.10131  0.40677   0.9629     C
C      0.10131  0.59323   0.0371     C
C      0.10422   0.1812  0.30987     C
C      0.10422   0.8188  0.69013     C
C      0.10447   0.4671  0.59029     C
C      0.10447   0.5329  0.40971     C
C       0.1053   0.2109  0.28109     C
C       0.1053   0.7891  0.71891     C
C      0.11373  0.36149  0.03107     C
C      0.11373  0.63851  0.96893     C
C      0.11402   0.2102   0.7169     C
C      0.11402   0.7898   0.2831     C
H       0.1145   0.2518   0.6734     H
H       0.1145   0.7482   0.3266     H
C      0.12475  0.37272  0.96117     C
C      0.12475  0.62728  0.03883     C
C      0.12728  0.46117  0.37525     C
C      0.12728  0.53883  0.62475     C
H       0.1278   0.1705   0.3196     H
H       0.1278   0.8295   0.6804     H
C      0.13096  0.35009  0.99523     C
C      0.13096  0.64991  0.00477     C
O       0.1322   0.3512    0.065     O
O       0.1322   0.6488    0.935     O
H       0.1349   0.4372   0.3637     H
H       0.1349   0.5628   0.6363     H
H       0.1363   0.3651   0.9372     H
H       0.1363   0.6349   0.0628     H
C      0.13851  0.46893  0.61373     C
C      0.13851  0.53107  0.38627     C
H       0.1471   0.4475   0.2637     H
H       0.1471   0.5525   0.7363     H
O       0.1483   0.2497   0.2483     O
O       0.1483   0.7503   0.7517     O
O       0.1488    0.435   0.6322     O
O       0.1488    0.565   0.3678     O
C      0.14991  0.49523  0.36904     C
C      0.14991  0.50477  0.63096     C
H       0.1501   0.2711   0.9606     H
H       0.1501   0.7289   0.0394     H
C       0.1519   0.2102   0.2696     C
C       0.1519   0.7898   0.7304     C
C       0.1591   0.2291   0.7257     C
C       0.1591   0.7709   0.2743     C
H       0.1656   0.2448   0.8987     H
H       0.1656   0.7552   0.1013     H
C      0.16759  0.32417  0.06788     C
C      0.16759  0.67583  0.93212     C
C      0.16875   0.4377  0.27786     C
C      0.16875   0.5623  0.72214     C
C      0.17048  0.28223  0.94559     C
C      0.17048  0.71777  0.05441     C
H       0.1705   0.3196   0.1278     H
H       0.1705   0.6804   0.8722     H
O       0.1712   0.2137   0.7562     O
O       0.1712   0.7863   0.2438     O
N       0.1715   0.3279   0.9938     N
N       0.1715   0.6721   0.0062     N
N       0.1721   0.4938   0.3285     N
N       0.1721   0.5062   0.6715     N
O       0.1727   0.2488   0.6992     O
O       0.1727   0.7512   0.3008     O
H       0.1734   0.3855   0.2482     H
H       0.1734   0.6145   0.7518     H
C      0.17583  0.43212  0.66759     C
C      0.17583  0.56788  0.33241     C
O       0.1775   0.1947   0.2856     O
O       0.1775   0.8053   0.7144     O
C       0.1798  0.26648  0.90847     C
C       0.1798  0.73352  0.09153     C
H       0.1804   0.3722   0.6705     H
H       0.1804   0.6278   0.3295     H
C       0.1812  0.30987  0.10422     C
C       0.1812  0.69013  0.89578     C
C      0.18366   0.3097  0.03261     C
C      0.18366   0.6903  0.96739     C
C       0.1845  0.40059  0.26858     C
C       0.1845  0.59941  0.73142     C
C      0.18538   0.4602  0.30833     C
C      0.18538   0.5398  0.69167     C
C      0.19013  0.39578   0.6812     C
C      0.19013  0.60422   0.3188     C
C       0.1903  0.46739  0.68366     C
C       0.1903  0.53261  0.31634     C
C      0.19167  0.31462   0.9602     C
C      0.19167  0.68538   0.0398     C
O       0.1947   0.2856   0.1775     O
O       0.1947   0.7144   0.8225     O
Zn     0.19688  0.27323  0.22808    Zn
Zn     0.19688  0.72677  0.77192    Zn
O       0.1992   0.3273   0.2512     O
O       0.1992   0.6727   0.7488     O
C       0.2102   0.2696   0.1519     C
C       0.2102   0.2831  0.88598     C
C       0.2102   0.7169  0.11402     C
C       0.2102   0.7304   0.8481     C
C       0.2109  0.28109   0.1053     C
C       0.2109  0.71891   0.8947     C
C      0.21335  0.28092  0.03368     C
C      0.21335  0.71908  0.96632     C
O       0.2137   0.2438   0.8288     O
O       0.2137   0.7562   0.1712     O
O       0.2144   0.3225   0.6947     O
O       0.2144   0.6775   0.3053     O
C       0.2169  0.38598   0.2898     C
C       0.2169  0.61402   0.7102     C
C      0.21777  0.44559  0.32952     C
C      0.21777  0.55441  0.67048     C
C      0.21891   0.3947   0.7109     C
C      0.21891   0.6053   0.2891     C
C      0.21908  0.46632  0.71335     C
C      0.21908  0.53368  0.28665     C
C      0.22214  0.33125   0.9377     C
C      0.22214  0.66875   0.0623     C
Zn     0.22341  0.22341  0.77659    Zn
Zn     0.22341  0.77659  0.22341    Zn
H       0.2241   0.2712   0.0101     H
H       0.2241   0.7288   0.9899     H
C       0.2257   0.3409   0.2709     C
C       0.2257   0.6591   0.7291     C
Zn     0.22677  0.27192  0.69688    Zn
Zn     0.22677  0.72808  0.30312    Zn
C      0.22698  0.26661  0.07003     C
C      0.22698  0.73339  0.92997     C
Zn     0.22808  0.19688  0.27323    Zn
Zn     0.22808  0.80312  0.72677    Zn
H       0.2288   0.4899   0.7241     H
H       0.2288   0.5101   0.2759     H
H       0.2289   0.4606   0.3499     H
H       0.2289   0.5394   0.6501     H
C       0.2291   0.2743   0.8409     C
C       0.2291   0.7257   0.1591     C
C       0.2304   0.3481   0.7102     C
C       0.2304   0.6519   0.2898     C
C      0.23142   0.3155  0.90059     C
C      0.23142   0.6845  0.09941     C
C      0.23339  0.42997  0.72698     C
C      0.23339  0.57003  0.27302     C
C      0.23352  0.40847   0.3202     C
C      0.23352  0.59153   0.6798     C
H       0.2363   0.3529   0.9475     H
H       0.2363   0.6471   0.0525     H
O       0.2438   0.1712   0.7863     O
O       0.2438   0.8288   0.2137     O
O      0.24467  0.24467  0.24467     O
O      0.24467  0.75533  0.75533     O
H       0.2448   0.1013   0.8344     H
H       0.2448   0.8987   0.1656     H
H       0.2469   0.2474   0.0708     H
H       0.2469   0.7526   0.9292     H
H       0.2474   0.0708   0.2469     H
H       0.2474   0.9292   0.7531     H
H       0.2482   0.1734   0.3855     H
H       0.2482   0.8266   0.6145     H
O       0.2483   0.1483   0.2497     O
O       0.2483   0.8517   0.7503     O
O       0.2488   0.3008   0.8273     O
O       0.2488   0.6992   0.1727     O
O       0.2497   0.2483   0.1483     O
O       0.2497   0.7517   0.8517     O
O       0.2503   0.2517   0.6483     O
O       0.2503   0.7483   0.3517     O
O       0.2512   0.1992   0.3273     O
O       0.2512   0.8008   0.6727     O
O       0.2517   0.3517   0.7497     O
O       0.2517   0.6483   0.2503     O
H       0.2518   0.3266   0.8855     H
H       0.2518   0.6734   0.1145     H
H       0.2526   0.4292   0.7469     H
H       0.2526   0.5708   0.2531     H
H       0.2531   0.2526   0.5708     H
H       0.2531   0.7474   0.4292     H
H       0.2552   0.3987   0.3344     H
H       0.2552   0.6013   0.6656     H
O      0.25533  0.25533  0.74467     O
O      0.25533  0.74467  0.25533     O
O       0.2562   0.3288   0.2863     O
O       0.2562   0.6712   0.7137     O
H       0.2637   0.1471   0.4475     H
H       0.2637   0.8529   0.5525     H
C      0.26648  0.09153   0.8202     C
C      0.26648  0.90847   0.1798     C
C      0.26661  0.07003  0.22698     C
C      0.26661  0.92997  0.77302     C
C      0.26858   0.1845  0.40059     C
C      0.26858   0.8155  0.59941     C
C       0.2696   0.1519   0.2102     C
C       0.2696   0.8481   0.7898     C
C       0.2709   0.2257   0.3409     C
C       0.2709   0.7743   0.6591     C
H       0.2711   0.0394   0.8499     H
H       0.2711   0.9606   0.1501     H
H       0.2712   0.0101   0.2241     H
H       0.2712   0.9899   0.7759     H
Zn     0.27192  0.30312  0.77323    Zn
Zn     0.27192  0.69688  0.22677    Zn
C      0.27302  0.23339  0.57003     C
C      0.27302  0.76661  0.42997     C
Zn     0.27323  0.22808  0.19688    Zn
Zn     0.27323  0.77192  0.80312    Zn
C       0.2743   0.1591   0.7709     C
C       0.2743   0.8409   0.2291     C
H       0.2759   0.2288   0.5101     H
H       0.2759   0.7712   0.4899     H
Zn     0.27659  0.27659  0.27659    Zn
Zn     0.27659  0.72341  0.72341    Zn
C      0.27786  0.16875   0.4377     C
C      0.27786  0.83125   0.5623     C
C      0.28092  0.03368  0.21335     C
C      0.28092  0.96632  0.78665     C
C      0.28109   0.1053   0.2109     C
C      0.28109   0.8947   0.7891     C
C      0.28223  0.05441  0.82952     C
C      0.28223  0.94559  0.17048     C
C       0.2831  0.11402   0.7898     C
C       0.2831  0.88598   0.2102     C
O       0.2856   0.1775   0.1947     O
O       0.2856   0.8225   0.8053     O
O       0.2863   0.2562   0.3288     O
O       0.2863   0.7438   0.6712     O
C      0.28665  0.21908  0.53368     C
C      0.28665  0.78092  0.46632     C
C       0.2891  0.21891   0.6053     C
C       0.2891  0.78109   0.3947     C
C       0.2898   0.2169  0.38598     C
C       0.2898   0.2304   0.6519     C
C       0.2898   0.7696   0.3481     C
C       0.2898   0.7831  0.61402     C
O       0.3008   0.1727   0.7512     O
O       0.3008   0.8273   0.2488     O
Zn     0.30312  0.22677  0.72808    Zn
Zn     0.30312  0.77323  0.27192    Zn
O       0.3053   0.2144   0.6775     O
O       0.3053   0.7856   0.3225     O
C      0.30833  0.18538   0.4602     C
C      0.30833  0.81462   0.5398     C
C       0.3097  0.03261  0.18366     C
C       0.3097  0.96739  0.81634     C
C      0.30987  0.10422   0.1812     C
C      0.30987  0.89578   0.8188     C
C      0.31462   0.0398  0.80833     C
C      0.31462   0.9602  0.19167     C
C       0.3155  0.09941  0.76858     C
C       0.3155  0.90059  0.23142     C
C      0.31634   0.1903  0.53261     C
C      0.31634   0.8097  0.46739     C
C       0.3188  0.19013  0.60422     C
C       0.3188  0.80987  0.39578     C
H       0.3196   0.1278   0.1705     H
H       0.3196   0.8722   0.8295     H
C       0.3202  0.23352  0.40847     C
C       0.3202  0.76648  0.59153     C
O       0.3225   0.3053   0.7856     O
O       0.3225   0.6947   0.2144     O
C      0.32417  0.06788  0.16759     C
C      0.32417  0.93212  0.83241     C
H       0.3266   0.1145   0.7482     H
H       0.3266   0.8855   0.2518     H
O       0.3273   0.2512   0.1992     O
O       0.3273   0.7488   0.8008     O
N       0.3279   0.0062   0.8285     N
N       0.3279   0.9938   0.1715     N
N       0.3285   0.1721   0.4938     N
N       0.3285   0.8279   0.5062     N
O       0.3288   0.2863   0.2562     O
O       0.3288   0.7137   0.7438     O
H       0.3295   0.1804   0.6278     H
H       0.3295   0.8196   0.3722     H
C      0.32952  0.21777  0.44559     C
C      0.32952  0.78223  0.55441     C
C      0.33125   0.0623  0.77786     C
C      0.33125   0.9377  0.22214     C
C      0.33241  0.17583  0.56788     C
C      0.33241  0.82417  0.43212     C
H       0.3344   0.2552   0.3987     H
H       0.3344   0.7448   0.6013     H
C       0.3409   0.2709   0.2257     C
C       0.3409   0.7291   0.7743     C
C       0.3481   0.2898   0.7696     C
C       0.3481   0.7102   0.2304     C
H       0.3499   0.2289   0.4606     H
H       0.3499   0.7711   0.5394     H
C      0.35009  0.00477  0.86904     C
C      0.35009  0.99523  0.13096     C
O       0.3512    0.065   0.1322     O
O       0.3512    0.935   0.8678     O
O       0.3517   0.2503   0.7483     O
O       0.3517   0.7497   0.2517     O
H       0.3529   0.0525   0.7637     H
H       0.3529   0.9475   0.2363     H
C      0.36149  0.03107  0.11373     C
C      0.36149  0.96893  0.88627     C
H       0.3637   0.1349   0.4372     H
H       0.3637   0.8651   0.5628     H
H       0.3651   0.0628   0.8637     H
H       0.3651   0.9372   0.1363     H
O       0.3678   0.1488    0.565     O
O       0.3678   0.8512    0.435     O
C      0.36904  0.14991  0.49523     C
C      0.36904  0.85009  0.50477     C
H       0.3722   0.3295   0.8196     H
H       0.3722   0.6705   0.1804     H
C      0.37272  0.03883  0.87525     C
C      0.37272  0.96117  0.12475     C
C      0.37525  0.12728  0.46117     C
C      0.37525  0.87272  0.53883     C
H       0.3855   0.2482   0.1734     H
H       0.3855   0.7518   0.8266     H
C      0.38598   0.2898   0.2169     C
C      0.38598   0.7102   0.7831     C
C      0.38627  0.13851  0.53107     C
C      0.38627  0.86149  0.46893     C
C       0.3947   0.2891  0.78109     C
C       0.3947   0.7109  0.21891     C
C      0.39553   0.0329  0.09029     C
C      0.39553   0.9671  0.90971     C
C      0.39578   0.3188  0.80987     C
C      0.39578   0.6812  0.19013     C
C      0.39869  0.09323   0.4629     C
C      0.39869  0.90677   0.5371     C
H       0.3987   0.3344   0.2552     H
H       0.3987   0.6656   0.7448     H
C      0.40059  0.26858   0.1845     C
C      0.40059  0.73142   0.8155     C
H       0.4028   0.0781   0.4402     H
H       0.4028   0.9219   0.5598     H
H       0.4032   0.0568   0.0788     H
H       0.4032   0.9432   0.9212     H
C      0.40677   0.0371  0.89869     C
C      0.40677   0.9629  0.10131     C
C      0.40847   0.3202  0.23352     C
C      0.40847   0.6798  0.76648     C
C      0.40971  0.10447   0.5329     C
C      0.40971  0.89553   0.4671     C
C      0.41592  0.08183   0.4988     C
C      0.41592  0.91817   0.5012     C
C      0.41817   0.0012  0.91592     C
C      0.41817   0.9988  0.08408     C
H       0.4212   0.0968   0.5568     H
H       0.4212   0.9032   0.4432     H
H       0.4219   0.0598   0.9028     H
H       0.4219   0.9402   0.0972     H
H       0.4292   0.2531   0.7474     H
H       0.4292   0.7469   0.2526     H
C      0.42997  0.27302  0.76661     C
C      0.42997  0.72698  0.23339     C
C      0.43212  0.33241  0.82417     C
C      0.43212  0.66759  0.17583     C
O        0.435   0.3678   0.8512     O
O        0.435   0.6322   0.1488     O
H       0.4372   0.3637   0.1349     H
H       0.4372   0.6363   0.8651     H
C       0.4377  0.27786  0.16875     C
C       0.4377  0.72214  0.83125     C
H       0.4402   0.4028   0.0781     H
H       0.4402   0.5972   0.9219     H
H       0.4432   0.4212   0.9032     H
H       0.4432   0.5788   0.0968     H
C       0.4433   0.0505   0.4987     C
C       0.4433   0.9495   0.5013     C
C      0.44559  0.32952  0.21777     C
C      0.44559  0.67048  0.78223     C
H       0.4475   0.2637   0.1471     H
H       0.4475   0.7363   0.8529     H
C       0.4495   0.0013   0.9433     C
C       0.4495   0.9987   0.0567     C
O       0.4547   0.0394   0.4668     O
O       0.4547   0.9606   0.5332     O
Zn     0.45616      0.5      0.0    Zn
O       0.4574   0.0313   0.0399     O
O       0.4574   0.9687   0.9601     O
O       0.4601   0.0426   0.5313     O
O       0.4601   0.9574   0.4687     O
C       0.4602  0.30833  0.18538     C
C       0.4602  0.69167  0.81462     C
O       0.4606   0.0332   0.9547     O
H       0.4606   0.3499   0.2289     H
H       0.4606   0.6501   0.7711     H
O       0.4606   0.9668   0.0453     O
C      0.46117  0.37525  0.12728     C
C      0.46117  0.62475  0.87272     C
C       0.4629  0.39869  0.09323     C
C       0.4629  0.60131  0.90677     C
C      0.46632  0.28665  0.78092     C
C      0.46632  0.71335  0.21908     C
O       0.4668   0.4547   0.0394     O
O       0.4668   0.5453   0.9606     O
C       0.4671  0.40971  0.89553     C
C       0.4671  0.59029  0.10447     C
C      0.46739  0.31634   0.8097     C
C      0.46739  0.68366   0.1903     C
O       0.4687   0.4601   0.9574     O
O       0.4687   0.5399   0.0426     O
C      0.46893  0.38627  0.86149     C
C      0.46893  0.61373  0.13851     C
H       0.4899   0.2759   0.7712     H
H       0.4899   0.7241   0.2288     H
N       0.4938   0.3285   0.1721     N
N       0.4938   0.6715   0.8279     N
C      0.49523  0.36904  0.14991     C
C      0.49523  0.63096  0.85009     C
C       0.4987   0.4433   0.0505     C
C       0.4987   0.5567   0.9495     C
C       0.4988  0.41592  0.08183     C
C       0.4988  0.58408  0.91817     C
Zn         0.5      0.0  0.45616    Zn
Zn         0.5      0.0  0.54384    Zn
Zn         0.5  0.04384      0.0    Zn
Zn         0.5  0.95616      0.0    Zn
C       0.5012  0.41592  0.91817     C
C       0.5012  0.58408  0.08183     C
C       0.5013   0.4433   0.9495     C
C       0.5013   0.5567   0.0505     C
C      0.50477  0.36904  0.85009     C
C      0.50477  0.63096  0.14991     C
N       0.5062   0.3285   0.8279     N
N       0.5062   0.6715   0.1721     N
H       0.5101   0.2759   0.2288     H
H       0.5101   0.7241   0.7712     H
C      0.53107  0.38627  0.13851     C
C      0.53107  0.61373  0.86149     C
O       0.5313   0.4601   0.0426     O
O       0.5313   0.5399   0.9574     O
C      0.53261  0.31634   0.1903     C
C      0.53261  0.68366   0.8097     C
C       0.5329  0.40971  0.10447     C
C       0.5329  0.59029  0.89553     C
O       0.5332   0.4547   0.9606     O
O       0.5332   0.5453   0.0394     O
C      0.53368  0.28665  0.21908     C
C      0.53368  0.71335  0.78092     C
C       0.5371  0.39869  0.90677     C
C       0.5371  0.60131  0.09323     C
C      0.53883  0.37525  0.87272     C
C      0.53883  0.62475  0.12728     C
O       0.5394   0.0332   0.0453     O
H       0.5394   0.3499   0.7711     H
H       0.5394   0.6501   0.2289     H
O       0.5394   0.9668   0.9547     O
C       0.5398  0.30833  0.81462     C
C       0.5398  0.69167  0.18538     C
O       0.5399   0.0426   0.4687     O
O       0.5399   0.9574   0.5313     O
O       0.5426   0.0313   0.9601     O
O       0.5426   0.9687   0.0399     O
Zn     0.54384      0.5      0.0    Zn
O       0.5453   0.0394   0.5332     O
O       0.5453   0.9606   0.4668     O
C       0.5505   0.0013   0.0567     C
C       0.5505   0.9987   0.9433     C
H       0.5525   0.2637   0.8529     H
H       0.5525   0.7363   0.1471     H
C      0.55441  0.32952  0.78223     C
C      0.55441  0.67048  0.21777     C
C       0.5567   0.0505   0.5013     C
C       0.5567   0.9495   0.4987     C
H       0.5568   0.4212   0.0968     H
H       0.5568   0.5788   0.9032     H
H       0.5598   0.4028   0.9219     H
H       0.5598   0.5972   0.0781     H
C       0.5623  0.27786  0.83125     C
C       0.5623  0.72214  0.16875     C
H       0.5628   0.3637   0.8651     H
H       0.5628   0.6363   0.1349     H
O        0.565   0.3678   0.1488     O
O        0.565   0.6322   0.8512     O
C      0.56788  0.33241  0.17583     C
C      0.56788  0.66759  0.82417     C
C      0.57003  0.27302  0.23339     C
C      0.57003  0.72698  0.76661     C
H       0.5708   0.2531   0.2526     H
H       0.5708   0.7469   0.7474     H
H       0.5781   0.0598   0.0972     H
H       0.5781   0.9402   0.9028     H
H       0.5788   0.0968   0.4432     H
H       0.5788   0.9032   0.5568     H
C      0.58183   0.0012  0.08408     C
C      0.58183   0.9988  0.91592     C
C      0.58408  0.08183   0.5012     C
C      0.58408  0.91817   0.4988     C
C      0.59029  0.10447   0.4671     C
C      0.59029  0.89553   0.5329     C
C      0.59153   0.3202  0.76648     C
C      0.59153   0.6798  0.23352     C
C      0.59323   0.0371  0.10131     C
C      0.59323   0.9629  0.89869     C
H       0.5968   0.0568   0.9212     H
H       0.5968   0.9432   0.0788     H
H       0.5972   0.0781   0.5598     H
H       0.5972   0.9219   0.4402     H
C      0.59941  0.26858   0.8155     C
C      0.59941  0.73142   0.1845     C
H       0.6013   0.3344   0.7448     H
H       0.6013   0.6656   0.2552     H
C      0.60131  0.09323   0.5371     C
C      0.60131  0.90677   0.4629     C
C      0.60422   0.3188  0.19013     C
C      0.60422   0.6812  0.80987     C
C      0.60447   0.0329  0.90971     C
C      0.60447   0.9671  0.09029     C
C       0.6053   0.2891  0.21891     C
C       0.6053   0.7109  0.78109     C
C      0.61373  0.13851  0.46893     C
C      0.61373  0.86149  0.53107     C
C      0.61402   0.2898   0.7831     C
C      0.61402   0.7102   0.2169     C
H       0.6145   0.2482   0.8266     H
H       0.6145   0.7518   0.1734     H
C      0.62475  0.12728  0.53883     C
C      0.62475  0.87272  0.46117     C
C      0.62728  0.03883  0.12475     C
C      0.62728  0.96117  0.87525     C
H       0.6278   0.3295   0.1804     H
H       0.6278   0.6705   0.8196     H
C      0.63096  0.14991  0.50477     C
C      0.63096  0.85009  0.49523     C
O       0.6322   0.1488    0.435     O
O       0.6322   0.8512    0.565     O
H       0.6349   0.0628   0.1363     H
H       0.6349   0.9372   0.8637     H
H       0.6363   0.1349   0.5628     H
H       0.6363   0.8651   0.4372     H
C      0.63851  0.03107  0.88627     C
C      0.63851  0.96893  0.11373     C
H       0.6471   0.0525   0.2363     H
H       0.6471   0.9475   0.7637     H
O       0.6483   0.2503   0.2517     O
O       0.6483   0.7497   0.7483     O
O       0.6488    0.065   0.8678     O
O       0.6488    0.935   0.1322     O
C      0.64991  0.00477  0.13096     C
C      0.64991  0.99523  0.86904     C
H       0.6501   0.2289   0.5394     H
H       0.6501   0.7711   0.4606     H
C       0.6519   0.2898   0.2304     C
C       0.6519   0.7102   0.7696     C
C       0.6591   0.2709   0.7743     C
C       0.6591   0.7291   0.2257     C
H       0.6656   0.2552   0.6013     H
H       0.6656   0.7448   0.3987     H
C      0.66759  0.17583  0.43212     C
C      0.66759  0.82417  0.56788     C
C      0.66875   0.0623  0.22214     C
C      0.66875   0.9377  0.77786     C
C      0.67048  0.21777  0.55441     C
C      0.67048  0.78223  0.44559     C
H       0.6705   0.1804   0.3722     H
H       0.6705   0.8196   0.6278     H
O       0.6712   0.2863   0.7438     O
O       0.6712   0.7137   0.2562     O
N       0.6715   0.1721   0.5062     N
N       0.6715   0.8279   0.4938     N
N       0.6721   0.0062   0.1715     N
N       0.6721   0.9938   0.8285     N
O       0.6727   0.2512   0.8008     O
O       0.6727   0.7488   0.1992     O
H       0.6734   0.1145   0.2518     H
H       0.6734   0.8855   0.7482     H
C      0.67583  0.06788  0.83241     C
C      0.67583  0.93212  0.16759     C
O       0.6775   0.3053   0.2144     O
O       0.6775   0.6947   0.7856     O
C       0.6798  0.23352  0.59153     C
C       0.6798  0.76648  0.40847     C
H       0.6804   0.1278   0.8295     H
H       0.6804   0.8722   0.1705     H
C       0.6812  0.19013  0.39578     C
C       0.6812  0.80987  0.60422     C
C      0.68366   0.1903  0.46739     C
C      0.68366   0.8097  0.53261     C
C       0.6845  0.09941  0.23142     C
C       0.6845  0.90059  0.76858     C
C      0.68538   0.0398  0.19167     C
C      0.68538   0.9602  0.80833     C
C      0.69013  0.10422   0.8188     C
C      0.69013  0.89578   0.1812     C
C       0.6903  0.03261  0.81634     C
C       0.6903  0.96739  0.18366     C
C      0.69167  0.18538   0.5398     C
C      0.69167  0.81462   0.4602     C
O       0.6947   0.2144   0.3225     O
O       0.6947   0.7856   0.6775     O
Zn     0.69688  0.22677  0.27192    Zn
Zn     0.69688  0.77323  0.72808    Zn
O       0.6992   0.1727   0.2488     O
O       0.6992   0.8273   0.7512     O
C       0.7102   0.2169  0.61402     C
C       0.7102   0.2304   0.3481     C
C       0.7102   0.7696   0.6519     C
C       0.7102   0.7831  0.38598     C
C       0.7109  0.21891   0.3947     C
C       0.7109  0.78109   0.6053     C
C      0.71335  0.21908  0.46632     C
C      0.71335  0.78092  0.53368     C
O       0.7137   0.2562   0.6712     O
O       0.7137   0.7438   0.3288     O
O       0.7144   0.1775   0.8053     O
O       0.7144   0.8225   0.1947     O
C       0.7169  0.11402   0.2102     C
C       0.7169  0.88598   0.7898     C
C      0.71777  0.05441  0.17048     C
C      0.71777  0.94559  0.82952     C
C      0.71891   0.1053   0.7891     C
C      0.71891   0.8947   0.2109     C
C      0.71908  0.03368  0.78665     C
C      0.71908  0.96632  0.21335     C
C      0.72214  0.16875   0.5623     C
C      0.72214  0.83125   0.4377     C
Zn     0.72341  0.27659  0.72341    Zn
Zn     0.72341  0.72341  0.27659    Zn
H       0.7241   0.2288   0.4899     H
H       0.7241   0.7712   0.5101     H
C       0.7257   0.1591   0.2291     C
C       0.7257   0.8409   0.7709     C
Zn     0.72677  0.22808  0.80312    Zn
Zn     0.72677  0.77192  0.19688    Zn
C      0.72698  0.23339  0.42997     C
C      0.72698  0.76661  0.57003     C
Zn     0.72808  0.30312  0.22677    Zn
Zn     0.72808  0.69688  0.77323    Zn
H       0.7288   0.0101   0.7759     H
H       0.7288   0.9899   0.2241     H
H       0.7289   0.0394   0.1501     H
H       0.7289   0.9606   0.8499     H
C       0.7291   0.2257   0.6591     C
C       0.7291   0.7743   0.3409     C
C       0.7304   0.1519   0.7898     C
C       0.7304   0.8481   0.2102     C
C      0.73142   0.1845  0.59941     C
C      0.73142   0.8155  0.40059     C
C      0.73339  0.07003  0.77302     C
C      0.73339  0.92997  0.22698     C
C      0.73352  0.09153   0.1798     C
C      0.73352  0.90847   0.8202     C
H       0.7363   0.1471   0.5525     H
H       0.7363   0.8529   0.4475     H
O       0.7438   0.3288   0.7137     O
O       0.7438   0.6712   0.2863     O
O      0.74467  0.25533  0.25533     O
O      0.74467  0.74467  0.74467     O
H       0.7448   0.3987   0.6656     H
H       0.7448   0.6013   0.3344     H
H       0.7469   0.2526   0.4292     H
H       0.7469   0.7474   0.5708     H
H       0.7474   0.4292   0.2531     H
H       0.7474   0.5708   0.7469     H
H       0.7482   0.3266   0.1145     H
H       0.7482   0.6734   0.8855     H
O       0.7483   0.3517   0.2503     O
O       0.7483   0.6483   0.7497     O
O       0.7488   0.1992   0.6727     O
O       0.7488   0.8008   0.3273     O
O       0.7497   0.2517   0.3517     O
O       0.7497   0.7483   0.6483     O
O       0.7503   0.2483   0.8517     O
O       0.7503   0.7517   0.1483     O
O       0.7512   0.3008   0.1727     O
O       0.7512   0.6992   0.8273     O
O       0.7517   0.1483   0.7503     O
O       0.7517   0.8517   0.2497     O
H       0.7518   0.1734   0.6145     H
H       0.7518   0.8266   0.3855     H
H       0.7526   0.0708   0.7531     H
H       0.7526   0.9292   0.2469     H
H       0.7531   0.2474   0.9292     H
H       0.7531   0.7526   0.0708     H
H       0.7552   0.1013   0.1656     H
H       0.7552   0.8987   0.8344     H
O      0.75533  0.24467  0.75533     O
O      0.75533  0.75533  0.24467     O
O       0.7562   0.1712   0.2137     O
O       0.7562   0.8288   0.7863     O
H       0.7637   0.3529   0.0525     H
H       0.7637   0.6471   0.9475     H
C      0.76648  0.40847   0.6798     C
C      0.76648  0.59153   0.3202     C
C      0.76661  0.42997  0.27302     C
C      0.76661  0.57003  0.72698     C
C      0.76858   0.3155  0.09941     C
C      0.76858   0.6845  0.90059     C
C       0.7696   0.3481   0.2898     C
C       0.7696   0.6519   0.7102     C
C       0.7709   0.2743   0.1591     C
C       0.7709   0.7257   0.8409     C
H       0.7711   0.4606   0.6501     H
H       0.7711   0.5394   0.3499     H
H       0.7712   0.4899   0.2759     H
H       0.7712   0.5101   0.7241     H
Zn     0.77192  0.19688  0.72677    Zn
Zn     0.77192  0.80312  0.27323    Zn
C      0.77302  0.26661  0.92997     C
C      0.77302  0.73339  0.07003     C
Zn     0.77323  0.27192  0.30312    Zn
Zn     0.77323  0.72808  0.69688    Zn
C       0.7743   0.3409   0.7291     C
C       0.7743   0.6591   0.2709     C
H       0.7759   0.2712   0.9899     H
H       0.7759   0.7288   0.0101     H
Zn     0.77659  0.22341  0.22341    Zn
Zn     0.77659  0.77659  0.77659    Zn
C      0.77786  0.33125   0.0623     C
C      0.77786  0.66875   0.9377     C
C      0.78092  0.46632  0.28665     C
C      0.78092  0.53368  0.71335     C
C      0.78109   0.3947   0.2891     C
C      0.78109   0.6053   0.7109     C
C      0.78223  0.44559  0.67048     C
C      0.78223  0.55441  0.32952     C
C       0.7831  0.38598   0.7102     C
C       0.7831  0.61402   0.2898     C
O       0.7856   0.3225   0.3053     O
O       0.7856   0.6775   0.6947     O
O       0.7863   0.2438   0.1712     O
O       0.7863   0.7562   0.8288     O
C      0.78665  0.28092  0.96632     C
C      0.78665  0.71908  0.03368     C
C       0.7891  0.28109   0.8947     C
C       0.7891  0.71891   0.1053     C
C       0.7898   0.2696   0.8481     C
C       0.7898   0.2831  0.11402     C
C       0.7898   0.7169  0.88598     C
C       0.7898   0.7304   0.1519     C
O       0.8008   0.3273   0.7488     O
O       0.8008   0.6727   0.2512     O
Zn     0.80312  0.27323  0.77192    Zn
Zn     0.80312  0.72677  0.22808    Zn
O       0.8053   0.2856   0.8225     O
O       0.8053   0.7144   0.1775     O
C      0.80833  0.31462   0.0398     C
C      0.80833  0.68538   0.9602     C
C       0.8097  0.46739  0.31634     C
C       0.8097  0.53261  0.68366     C
C      0.80987  0.39578   0.3188     C
C      0.80987  0.60422   0.6812     C
C      0.81462   0.4602  0.69167     C
C      0.81462   0.5398  0.30833     C
C       0.8155  0.40059  0.73142     C
C       0.8155  0.59941  0.26858     C
C      0.81634   0.3097  0.96739     C
C      0.81634   0.6903  0.03261     C
C       0.8188  0.30987  0.89578     C
C       0.8188  0.69013  0.10422     C
H       0.8196   0.3722   0.3295     H
H       0.8196   0.6278   0.6705     H
C       0.8202  0.26648  0.09153     C
C       0.8202  0.73352  0.90847     C
O       0.8225   0.1947   0.7144     O
O       0.8225   0.8053   0.2856     O
C      0.82417  0.43212  0.33241     C
C      0.82417  0.56788  0.66759     C
H       0.8266   0.3855   0.7518     H
H       0.8266   0.6145   0.2482     H
O       0.8273   0.2488   0.3008     O
O       0.8273   0.7512   0.6992     O
N       0.8279   0.4938   0.6715     N
N       0.8279   0.5062   0.3285     N
N       0.8285   0.3279   0.0062     N
N       0.8285   0.6721   0.9938     N
O       0.8288   0.2137   0.2438     O
O       0.8288   0.7863   0.7562     O
H       0.8295   0.3196   0.8722     H
H       0.8295   0.6804   0.1278     H
C      0.82952  0.28223  0.05441     C
C      0.82952  0.71777  0.94559     C
C      0.83125   0.4377  0.72214     C
C      0.83125   0.5623  0.27786     C
C      0.83241  0.32417  0.93212     C
C      0.83241  0.67583  0.06788     C
H       0.8344   0.2448   0.1013     H
H       0.8344   0.7552   0.8987     H
C       0.8409   0.2291   0.2743     C
C       0.8409   0.7709   0.7257     C
C       0.8481   0.2102   0.7304     C
C       0.8481   0.7898   0.2696     C
H       0.8499   0.2711   0.0394     H
H       0.8499   0.7289   0.9606     H
C      0.85009  0.49523  0.63096     C
C      0.85009  0.50477  0.36904     C
O       0.8512    0.435   0.3678     O
O       0.8512    0.565   0.6322     O
O       0.8517   0.2497   0.7517     O
O       0.8517   0.7503   0.2483     O
H       0.8529   0.4475   0.7363     H
H       0.8529   0.5525   0.2637     H
C      0.86149  0.46893  0.38627     C
C      0.86149  0.53107  0.61373     C
H       0.8637   0.3651   0.0628     H
H       0.8637   0.6349   0.9372     H
H       0.8651   0.4372   0.6363     H
H       0.8651   0.5628   0.3637     H
O       0.8678   0.3512    0.935     O
O       0.8678   0.6488    0.065     O
C      0.86904  0.35009  0.00477     C
C      0.86904  0.64991  0.99523     C
H       0.8722   0.1705   0.6804     H
H       0.8722   0.8295   0.3196     H
C      0.87272  0.46117  0.62475     C
C      0.87272  0.53883  0.37525     C
C      0.87525  0.37272  0.03883     C
C      0.87525  0.62728  0.96117     C
H       0.8855   0.2518   0.3266     H
H       0.8855   0.7482   0.6734     H
C      0.88598   0.2102   0.2831     C
C      0.88598   0.7898   0.7169     C
C      0.88627  0.36149  0.96893     C
C      0.88627  0.63851  0.03107     C
C       0.8947   0.2109  0.71891     C
C       0.8947   0.7891  0.28109     C
C      0.89553   0.4671  0.40971     C
C      0.89553   0.5329  0.59029     C
C      0.89578   0.1812  0.69013     C
C      0.89578   0.8188  0.30987     C
C      0.89869  0.40677   0.0371     C
C      0.89869  0.59323   0.9629     C
H       0.8987   0.1656   0.2448     H
H       0.8987   0.8344   0.7552     H
C      0.90059  0.23142   0.3155     C
C      0.90059  0.76858   0.6845     C
H       0.9028   0.4219   0.0598     H
H       0.9028   0.5781   0.9402     H
H       0.9032   0.4432   0.4212     H
H       0.9032   0.5568   0.5788     H
C      0.90677   0.4629  0.60131     C
C      0.90677   0.5371  0.39869     C
C      0.90847   0.1798  0.26648     C
C      0.90847   0.8202  0.73352     C
C      0.90971  0.39553   0.9671     C
C      0.90971  0.60447   0.0329     C
C      0.91592  0.41817   0.0012     C
C      0.91592  0.58183   0.9988     C
C      0.91817   0.4988  0.58408     C
C      0.91817   0.5012  0.41592     C
H       0.9212   0.4032   0.9432     H
H       0.9212   0.5968   0.0568     H
H       0.9219   0.4402   0.5972     H
H       0.9219   0.5598   0.4028     H
H       0.9292   0.2469   0.7526     H
H       0.9292   0.7531   0.2474     H
C      0.92997  0.22698  0.73339     C
C      0.92997  0.77302  0.26661     C
C      0.93212  0.16759  0.67583     C
C      0.93212  0.83241  0.32417     C
O        0.935   0.1322   0.6488     O
O        0.935   0.8678   0.3512     O
H       0.9372   0.1363   0.3651     H
H       0.9372   0.8637   0.6349     H
C       0.9377  0.22214  0.33125     C
C       0.9377  0.77786  0.66875     C
H       0.9402   0.0972   0.4219     H
H       0.9402   0.9028   0.5781     H
H       0.9432   0.0788   0.5968     H
H       0.9432   0.9212   0.4032     H
C       0.9433   0.4495   0.0013     C
C       0.9433   0.5505   0.9987     C
C      0.94559  0.17048  0.28223     C
C      0.94559  0.82952  0.71777     C
H       0.9475   0.2363   0.3529     H
H       0.9475   0.7637   0.6471     H
C       0.9495   0.4987   0.5567     C
C       0.9495   0.5013   0.4433     C
O       0.9547   0.4606   0.0332     O
O       0.9547   0.5394   0.9668     O
Zn     0.95616      0.0      0.5    Zn
O       0.9574   0.4687   0.4601     O
O       0.9574   0.5313   0.5399     O
O       0.9601   0.4574   0.9687     O
O       0.9601   0.5426   0.0313     O
C       0.9602  0.19167  0.31462     C
C       0.9602  0.80833  0.68538     C
H       0.9606   0.1501   0.2711     H
O       0.9606   0.4668   0.5453     O
O       0.9606   0.5332   0.4547     O
H       0.9606   0.8499   0.7289     H
C      0.96117  0.12475  0.37272     C
C      0.96117  0.87525  0.62728     C
C       0.9629  0.10131  0.40677     C
C       0.9629  0.89869  0.59323     C
C      0.96632  0.21335  0.71908     C
C      0.96632  0.78665  0.28092     C
O       0.9668   0.0453   0.4606     O
O       0.9668   0.9547   0.5394     O
C       0.9671  0.09029  0.60447     C
C       0.9671  0.90971  0.39553     C
C      0.96739  0.18366   0.6903     C
C      0.96739  0.81634   0.3097     C
O       0.9687   0.0399   0.5426     O
O       0.9687   0.9601   0.4574     O
C      0.96893  0.11373  0.63851     C
C      0.96893  0.88627  0.36149     C
H       0.9899   0.2241   0.7288     H
H       0.9899   0.7759   0.2712     H
N       0.9938   0.1715   0.3279     N
N       0.9938   0.8285   0.6721     N
C      0.99523  0.13096  0.35009     C
C      0.99523  0.86904  0.64991     C
C       0.9987   0.0567   0.4495     C
C       0.9987   0.9433   0.5505     C
C       0.9988  0.08408  0.41817     C
C       0.9988  0.91592  0.58183     C
