data_I
_chemical_name_common  '/home/zhangsd/repos/MofS-CGCNN/ML/data/TSD/clean_cifs/MAHCEG_clean'
_cell_length_a 33.75530
_cell_length_b 33.75530
_cell_length_c 33.75530
_cell_angle_alpha 90.00000
_cell_angle_beta  90.00000
_cell_angle_gamma 90.00000
_space_group_name_H-M_alt      'P 1'


loop_
_space_group_symop_operation_xyz
  'x, y, z' 

loop_
_atom_site_label
_atom_site_fract_x
_atom_site_fract_y
_atom_site_fract_z
_atom_site_type_symbol
Cu         0.0  0.46119      0.5    Cu
Cu         0.0      0.5  0.03881    Cu
Cu         0.0      0.5  0.96119    Cu
Cu         0.0  0.53881      0.5    Cu
C        0.002  0.05213  0.44687     C
C        0.002  0.94787  0.55313     C
C       0.0031   0.0827   0.4153     C
C       0.0031   0.9173   0.5847     C
N      0.00364   0.1685   0.3251     N
N      0.00364   0.8315   0.6749     N
C      0.00471   0.1394    0.355     C
C      0.00471   0.8606    0.645     C
H       0.0133   0.2247   0.7259     H
H       0.0133   0.7753   0.2741     H
C       0.0311    0.124   0.6309     C
C       0.0311    0.876   0.3691     C
O      0.03142  0.04004  0.54198     O
O      0.03142  0.95996  0.45802     O
C      0.03185   0.0967   0.6013     C
C      0.03185   0.9033   0.3987     C
C      0.03243   0.1833   0.6876     C
C      0.03243   0.8167   0.3124     C
O      0.03484  0.04125  0.46011     O
O      0.03484  0.95875  0.53989     O
C        0.036   0.2131   0.7155     C
C        0.036   0.7869   0.2845     C
C       0.0382    0.098    0.401     C
C       0.0382    0.902    0.599     C
Cu     0.03881      0.0      0.5    Cu
C       0.0391   0.1257   0.3716     C
C       0.0391   0.8743   0.6284     C
O      0.03989  0.46516  0.54125     O
O      0.03989  0.53484  0.45875     O
O      0.04004  0.45802  0.96858     O
O      0.04004  0.54198  0.03142     O
C       0.0403   0.1849   0.3108     C
C       0.0403   0.8151   0.6892     C
O      0.04125  0.46011  0.03484     O
O      0.04125  0.53989  0.96516     O
O      0.04198  0.46858  0.45996     O
O      0.04198  0.53142  0.54004     O
H       0.0437   0.1514    0.263     H
H       0.0437   0.8486    0.737     H
H       0.0465   0.2265    0.354     H
H       0.0465   0.7735    0.646     H
C      0.05213  0.44687    0.002     C
C      0.05213  0.55313    0.998     C
C      0.05313    0.498  0.55213     C
C      0.05313    0.502  0.44787     C
H        0.056   0.0873   0.5921     H
H        0.056   0.9127   0.4079     H
C       0.0574     0.17    0.278     C
C       0.0574     0.83    0.722     C
C       0.0586   0.2148   0.3322     C
C       0.0586   0.7852   0.6678     C
H        0.062   0.0892   0.4118     H
H        0.062   0.9108   0.5882     H
H       0.0634   0.1354   0.3627     H
H       0.0634   0.8646   0.6373     H
O      0.06689   0.1347    0.647     O
O      0.06689   0.8653    0.353     O
C      0.06764   0.1648   0.6741     C
C      0.06764   0.8352   0.3259     C
C      0.07317    0.226   0.7282     C
C      0.07317    0.774   0.2718     C
H       0.0752   0.2469   0.7459     H
H       0.0752   0.7531   0.2541     H
C       0.0827   0.4153   0.0031     C
C       0.0827   0.5847   0.9969     C
C       0.0847   0.4969   0.5827     C
C       0.0847   0.5031   0.4173     C
H       0.0873   0.4079    0.944     H
H       0.0873   0.5921    0.056     H
H       0.0882    0.438   0.5892     H
H       0.0882    0.562   0.4108     H
H       0.0892   0.4118    0.062     H
H       0.0892   0.5882    0.938     H
H       0.0921    0.444   0.4127     H
H       0.0921    0.556   0.5873     H
C       0.0954   0.1819   0.2659     C
C       0.0954   0.8181   0.7341     C
C       0.0962   0.2263   0.3196     C
C       0.0962   0.7737   0.6804     C
C       0.0967   0.3987  0.96815     C
C       0.0967   0.6013  0.03185     C
C        0.098    0.401   0.0382     C
C        0.098    0.599   0.9618     C
C        0.099   0.4618    0.598     C
C        0.099   0.5382    0.402     C
C       0.1013  0.46815   0.4033     C
C       0.1013  0.53185   0.5967     C
C      0.10424   0.1778   0.6865     C
C      0.10424   0.8222   0.3135     C
C      0.10698   0.2076   0.7143     C
C      0.10698   0.7924   0.2857     C
H       0.1074   0.1704    0.244     H
H       0.1074   0.8296    0.756     H
H       0.1095   0.2456    0.334     H
H       0.1095   0.7544    0.666     H
C      0.11436   0.2107   0.2871     C
C      0.11436   0.7893   0.7129     C
C        0.124   0.3691   0.9689     C
C        0.124   0.6309   0.0311     C
C       0.1257   0.3716   0.0391     C
C       0.1257   0.6284   0.9609     C
H       0.1271   0.1665   0.6762     H
H       0.1271   0.8335   0.3238     H
C       0.1284   0.4609   0.6257     C
C       0.1284   0.5391   0.3743     C
C       0.1309   0.4689    0.376     C
C       0.1309   0.5311    0.624     C
O       0.1347    0.353  0.93311     O
O       0.1347    0.647  0.06689     O
H       0.1354   0.3627   0.0634     H
H       0.1354   0.6373   0.9366     H
H       0.1373   0.4366   0.6354     H
H       0.1373   0.5634   0.3646     H
C       0.1394    0.355  0.00471     C
C       0.1394    0.645  0.99529     C
C        0.145  0.49529   0.6394     C
C        0.145  0.50471   0.3606     C
H        0.146   0.4535   0.7265     H
H        0.146   0.5465   0.2735     H
O        0.147  0.43311   0.3653     O
O        0.147  0.56689   0.6347     O
C      0.14762   0.2196   0.7272     C
C      0.14762   0.7804   0.2728     C
O      0.15031  0.24993   0.7494     O
O      0.15031  0.75007   0.2506     O
H       0.1514    0.263   0.0437     H
H       0.1514    0.737   0.9563     H
C      0.15514   0.2236    0.276     C
C      0.15514   0.7764    0.724     C
C       0.1648   0.3259  0.93236     C
C       0.1648   0.6741  0.06764     C
H        0.166   0.3905   0.7456     H
H        0.166   0.6095   0.2544     H
H       0.1665   0.3238   0.8729     H
H       0.1665   0.6762   0.1271     H
C       0.1678   0.4414   0.7148     C
C       0.1678   0.5586   0.2852     C
N       0.1685   0.3251  0.00364     N
N       0.1685   0.6749  0.99636     N
O       0.1689  0.21035  0.24417     O
O       0.1689  0.78965  0.75583     O
C         0.17    0.278   0.0574     C
C         0.17    0.722   0.9426     C
H       0.1704    0.244   0.1074     H
H       0.1704    0.756   0.8926     H
O      0.17244  0.24622  0.29942     O
O      0.17244  0.75378  0.70058     O
C       0.1741  0.43236   0.3352     C
C       0.1741  0.56764   0.6648     C
N       0.1749  0.49636   0.6685     N
N       0.1749  0.50364   0.3315     N
O      0.17521  0.19759  0.71652     O
O      0.17521  0.80241  0.28348     O
H       0.1762   0.3729   0.3335     H
H       0.1762   0.6271   0.6665     H
C       0.1778   0.3135  0.89576     C
C       0.1778   0.6865  0.10424     C
C       0.1804   0.4038   0.7263     C
C       0.1804   0.5962   0.2737     C
C       0.1819   0.2659   0.0954     C
C       0.1819   0.7341   0.9046     C
C       0.1833   0.3124  0.96757     C
C       0.1833   0.6876  0.03243     C
C       0.1849   0.3108   0.0403     C
C       0.1849   0.6892   0.9597     C
C       0.1865  0.39576   0.3222     C
C       0.1865  0.60424   0.6778     C
C       0.1876  0.46757   0.3167     C
C       0.1876  0.53243   0.6833     C
C       0.1892   0.4597   0.6849     C
C       0.1892   0.5403   0.3151     C
O      0.19759  0.28348  0.82479     O
O      0.19759  0.71652  0.17521     O
Zn     0.19831  0.27404  0.76854    Zn
Zn     0.19831  0.72596  0.23146    Zn
O      0.20058  0.32756  0.74622     O
O      0.20058  0.67244  0.25378     O
C       0.2076   0.2857  0.89302     C
C       0.2076   0.7143  0.10698     C
O      0.21035  0.24417   0.1689     O
O      0.21035  0.75583   0.8311     O
C       0.2107   0.2871  0.11436     C
C       0.2107   0.7129  0.88564     C
C       0.2129  0.38564   0.7107     C
C       0.2129  0.61436   0.2893     C
C       0.2131   0.2845    0.964     C
C       0.2131   0.7155    0.036     C
C       0.2143  0.39302   0.2924     C
C       0.2143  0.60698   0.7076     C
C       0.2148   0.3322   0.0586     C
C       0.2148   0.6678   0.9414     C
C       0.2155    0.464   0.2869     C
C       0.2155    0.536   0.7131     C
O      0.21652  0.32479  0.30241     O
O      0.21652  0.67521  0.69759     O
C       0.2196   0.2728  0.85238     C
C       0.2196   0.7272  0.14762     C
Zn     0.22066  0.22066  0.22066    Zn
Zn     0.22066  0.77934  0.77934    Zn
C        0.222   0.4426     0.67     C
C        0.222   0.5574     0.33     C
C       0.2236    0.276  0.15514     C
C       0.2236    0.724  0.84486     C
C        0.224  0.34486   0.7236     C
C        0.224  0.65514   0.2764     C
H       0.2247   0.2741   0.9867     H
H       0.2247   0.7259   0.0133     H
H       0.2259   0.4867   0.2753     H
H       0.2259   0.5133   0.7247     H
Zn     0.22596  0.26854  0.30169    Zn
Zn     0.22596  0.73146  0.69831    Zn
C        0.226   0.2718  0.92683     C
C        0.226   0.7282  0.07317     C
C       0.2263   0.3196   0.0962     C
C       0.2263   0.6804   0.9038     C
H       0.2265    0.354   0.0465     H
H       0.2265    0.646   0.9535     H
C       0.2272  0.35238   0.2804     C
C       0.2272  0.64762   0.7196     C
C       0.2282  0.42683    0.274     C
C       0.2282  0.57317    0.726     C
Zn     0.23146  0.19831  0.72596    Zn
Zn     0.23146  0.80169  0.27404    Zn
C       0.2341   0.4046   0.6819     C
C       0.2341   0.5954   0.3181     C
H        0.237   0.4563   0.6514     H
H        0.237   0.5437   0.3486     H
H        0.244   0.1074   0.1704     H
H        0.244   0.8926   0.8296     H
O      0.24417   0.1689  0.21035     O
O      0.24417   0.8311  0.78965     O
H       0.2456    0.334   0.1095     H
H       0.2456    0.666   0.8905     H
H       0.2459   0.4248   0.2531     H
H       0.2459   0.5752   0.7469     H
O      0.24622  0.29942  0.17244     O
O      0.24622  0.70058  0.82756     O
O      0.24628  0.24628  0.75372     O
O      0.24628  0.75372  0.24628     O
H       0.2469   0.2541   0.9248     H
H       0.2469   0.7459   0.0752     H
O       0.2494  0.34969  0.25007     O
O       0.2494  0.65031  0.74993     O
O      0.24993   0.2506  0.84969     O
O      0.24993   0.7494  0.15031     O
O      0.25007   0.2494  0.34969     O
O      0.25007   0.7506  0.65031     O
O       0.2506  0.15031  0.75007     O
O       0.2506  0.84969  0.24993     O
H       0.2531   0.2459   0.4248     H
H       0.2531   0.7541   0.5752     H
O      0.25372  0.25372  0.25372     O
O      0.25372  0.74628  0.74628     O
O      0.25378  0.20058  0.67244     O
O      0.25378  0.79942  0.32756     O
H       0.2541   0.0752   0.7531     H
H       0.2541   0.9248   0.2469     H
H       0.2544    0.166   0.6095     H
H       0.2544    0.834   0.3905     H
O      0.25583   0.3311  0.71035     O
O      0.25583   0.6689  0.28965     O
H        0.256   0.3926   0.6704     H
H        0.256   0.6074   0.3296     H
H        0.263   0.0437   0.1514     H
H        0.263   0.9563   0.8486     H
C       0.2659   0.0954   0.1819     C
C       0.2659   0.9046   0.8181     C
Zn     0.26854  0.30169  0.22596    Zn
Zn     0.26854  0.69831  0.77404    Zn
C       0.2718  0.07317    0.774     C
C       0.2718  0.92683    0.226     C
C       0.2728  0.14762   0.7804     C
C       0.2728  0.85238   0.2196     C
H       0.2735    0.146   0.5465     H
H       0.2735    0.854   0.4535     H
C       0.2737   0.1804   0.5962     C
C       0.2737   0.8196   0.4038     C
C        0.274   0.2282  0.42683     C
C        0.274   0.7718  0.57317     C
Zn     0.27404  0.23146  0.80169    Zn
Zn     0.27404  0.76854  0.19831    Zn
H       0.2741   0.0133   0.7753     H
H       0.2741   0.9867   0.2247     H
H       0.2753   0.2259   0.4867     H
H       0.2753   0.7741   0.5133     H
C        0.276  0.15514   0.2236     C
C        0.276  0.84486   0.7764     C
C       0.2764    0.224  0.65514     C
C       0.2764    0.776  0.34486     C
C        0.278   0.0574     0.17     C
C        0.278   0.9426     0.83     C
Zn     0.27934  0.27934  0.72066    Zn
Zn     0.27934  0.72066  0.27934    Zn
C       0.2804   0.2272  0.35238     C
C       0.2804   0.7728  0.64762     C
O      0.28348  0.17521  0.80241     O
O      0.28348  0.82479  0.19759     O
C       0.2845    0.036   0.7869     C
C       0.2845    0.964   0.2131     C
C       0.2852   0.1678   0.5586     C
C       0.2852   0.8322   0.4414     C
C       0.2857  0.10698   0.7924     C
C       0.2857  0.89302   0.2076     C
C       0.2869   0.2155    0.464     C
C       0.2869   0.7845    0.536     C
C       0.2871  0.11436   0.2107     C
C       0.2871  0.88564   0.7893     C
C       0.2893   0.2129  0.61436     C
C       0.2893   0.7871  0.38564     C
O      0.28965  0.25583   0.6689     O
O      0.28965  0.74417   0.3311     O
C       0.2924   0.2143  0.39302     C
C       0.2924   0.7857  0.60698     C
O      0.29942  0.17244  0.24622     O
O      0.29942  0.82756  0.75378     O
Zn     0.30169  0.22596  0.26854    Zn
Zn     0.30169  0.77404  0.73146    Zn
O      0.30241  0.21652  0.32479     O
O      0.30241  0.78348  0.67521     O
C       0.3108   0.0403   0.1849     C
C       0.3108   0.9597   0.8151     C
C       0.3124  0.03243   0.8167     C
C       0.3124  0.96757   0.1833     C
C       0.3135  0.10424   0.8222     C
C       0.3135  0.89576   0.1778     C
C       0.3151   0.1892   0.5403     C
C       0.3151   0.8108   0.4597     C
C       0.3167   0.1876  0.46757     C
C       0.3167   0.8124  0.53243     C
C       0.3181   0.2341   0.5954     C
C       0.3181   0.7659   0.4046     C
C       0.3196   0.0962   0.2263     C
C       0.3196   0.9038   0.7737     C
C       0.3222   0.1865  0.39576     C
C       0.3222   0.8135  0.60424     C
H       0.3238   0.1271   0.8335     H
H       0.3238   0.8729   0.1665     H
O      0.32479  0.30241  0.21652     O
O      0.32479  0.69759  0.78348     O
N       0.3251  0.00364   0.1685     N
N       0.3251  0.99636   0.8315     N
C       0.3259  0.06764   0.8352     C
C       0.3259  0.93236   0.1648     C
O      0.32756  0.25378  0.79942     O
O      0.32756  0.74622  0.20058     O
H       0.3296    0.256   0.6074     H
H       0.3296    0.744   0.3926     H
C         0.33    0.222   0.5574     C
C         0.33    0.778   0.4426     C
O       0.3311  0.28965  0.74417     O
O       0.3311  0.71035  0.25583     O
N       0.3315   0.1749  0.50364     N
N       0.3315   0.8251  0.49636     N
C       0.3322   0.0586   0.2148     C
C       0.3322   0.9414   0.7852     C
H       0.3335   0.1762   0.3729     H
H       0.3335   0.8238   0.6271     H
H        0.334   0.1095   0.2456     H
H        0.334   0.8905   0.7544     H
C       0.3352   0.1741  0.43236     C
C       0.3352   0.8259  0.56764     C
C      0.34486   0.2764    0.776     C
C      0.34486   0.7236    0.224     C
H       0.3486    0.237   0.5437     H
H       0.3486    0.763   0.4563     H
O      0.34969  0.25007   0.2494     O
O      0.34969  0.74993   0.7506     O
C      0.35238   0.2804   0.2272     C
C      0.35238   0.7196   0.7728     C
O        0.353  0.06689   0.8653     O
O        0.353  0.93311   0.1347     O
H        0.354   0.0465   0.2265     H
H        0.354   0.9535   0.7735     H
C        0.355  0.00471   0.1394     C
C        0.355  0.99529   0.8606     C
C       0.3606    0.145  0.50471     C
C       0.3606    0.855  0.49529     C
H       0.3627   0.0634   0.1354     H
H       0.3627   0.9366   0.8646     H
H       0.3646   0.1373   0.5634     H
H       0.3646   0.8627   0.4366     H
O       0.3653    0.147  0.43311     O
O       0.3653    0.853  0.56689     O
C       0.3691   0.0311    0.876     C
C       0.3691   0.9689    0.124     C
C       0.3716   0.0391   0.1257     C
C       0.3716   0.9609   0.8743     C
H       0.3729   0.3335   0.1762     H
H       0.3729   0.6665   0.8238     H
C       0.3743   0.1284   0.5391     C
C       0.3743   0.8716   0.4609     C
C        0.376   0.1309   0.4689     C
C        0.376   0.8691   0.5311     C
C      0.38564   0.2893   0.7871     C
C      0.38564   0.7107   0.2129     C
H       0.3905   0.2544    0.834     H
H       0.3905   0.7456    0.166     H
H       0.3926   0.3296    0.744     H
H       0.3926   0.6704    0.256     H
C      0.39302   0.2924   0.2143     C
C      0.39302   0.7076   0.7857     C
C      0.39576   0.3222   0.1865     C
C      0.39576   0.6778   0.8135     C
C       0.3987  0.03185   0.9033     C
C       0.3987  0.96815   0.0967     C
C        0.401   0.0382    0.098     C
C        0.401   0.9618    0.902     C
C        0.402    0.099   0.5382     C
C        0.402    0.901   0.4618     C
C       0.4033   0.1013  0.46815     C
C       0.4033   0.8987  0.53185     C
C       0.4038   0.2737   0.8196     C
C       0.4038   0.7263   0.1804     C
C       0.4046   0.3181   0.7659     C
C       0.4046   0.6819   0.2341     C
H       0.4079    0.056   0.9127     H
H       0.4079    0.944   0.0873     H
H       0.4108   0.0882    0.562     H
H       0.4108   0.9118    0.438     H
H       0.4118    0.062   0.0892     H
H       0.4118    0.938   0.9108     H
H       0.4127   0.0921    0.444     H
H       0.4127   0.9079    0.556     H
C       0.4153   0.0031   0.0827     C
C       0.4153   0.9969   0.9173     C
C       0.4173   0.0847   0.5031     C
C       0.4173   0.9153   0.4969     C
H       0.4248   0.2531   0.2459     H
H       0.4248   0.7469   0.7541     H
C      0.42683    0.274   0.2282     C
C      0.42683    0.726   0.7718     C
C      0.43236   0.3352   0.1741     C
C      0.43236   0.6648   0.8259     C
O      0.43311   0.3653    0.147     O
O      0.43311   0.6347    0.853     O
H       0.4366   0.3646   0.8627     H
H       0.4366   0.6354   0.1373     H
H        0.438   0.4108   0.9118     H
H        0.438   0.5892   0.0882     H
C       0.4414   0.2852   0.8322     C
C       0.4414   0.7148   0.1678     C
C       0.4426     0.33    0.778     C
C       0.4426     0.67    0.222     C
H        0.444   0.4127   0.0921     H
H        0.444   0.5873   0.9079     H
C      0.44687    0.002  0.05213     C
C      0.44687    0.998  0.94787     C
C      0.44787  0.05313    0.502     C
C      0.44787  0.94687    0.498     C
H       0.4535   0.2735    0.854     H
H       0.4535   0.7265    0.146     H
H       0.4563   0.3486    0.763     H
H       0.4563   0.6514    0.237     H
O      0.45802  0.03142  0.95996     O
O      0.45802  0.96858  0.04004     O
O      0.45875  0.03989  0.53484     O
O      0.45875  0.96011  0.46516     O
C       0.4597   0.3151   0.8108     C
C       0.4597   0.6849   0.1892     C
O      0.45996  0.04198  0.46858     O
O      0.45996  0.95802  0.53142     O
O      0.46011  0.03484  0.04125     O
O      0.46011  0.96516  0.95875     O
C       0.4609   0.3743   0.8716     C
C       0.4609   0.6257   0.1284     C
Cu     0.46119      0.5      0.0    Cu
C       0.4618    0.402    0.901     C
C       0.4618    0.598    0.099     C
C        0.464   0.2869   0.2155     C
C        0.464   0.7131   0.7845     C
O      0.46516  0.45875  0.96011     O
O      0.46516  0.54125  0.03989     O
C      0.46757   0.3167   0.1876     C
C      0.46757   0.6833   0.8124     C
C      0.46815   0.4033   0.1013     C
C      0.46815   0.5967   0.8987     C
O      0.46858  0.45996  0.04198     O
O      0.46858  0.54004  0.95802     O
C       0.4689    0.376   0.1309     C
C       0.4689    0.624   0.8691     C
H       0.4867   0.2753   0.2259     H
H       0.4867   0.7247   0.7741     H
C      0.49529   0.3606    0.855     C
C      0.49529   0.6394    0.145     C
N      0.49636   0.3315   0.8251     N
N      0.49636   0.6685   0.1749     N
C       0.4969   0.4173   0.9153     C
C       0.4969   0.5827   0.0847     C
C        0.498  0.44787  0.94687     C
C        0.498  0.55213  0.05313     C
Cu         0.5      0.0  0.46119    Cu
Cu         0.5      0.0  0.53881    Cu
Cu         0.5  0.03881      0.0    Cu
Cu         0.5  0.96119      0.0    Cu
C        0.502  0.44787  0.05313     C
C        0.502  0.55213  0.94687     C
C       0.5031   0.4173   0.0847     C
C       0.5031   0.5827   0.9153     C
N      0.50364   0.3315   0.1749     N
N      0.50364   0.6685   0.8251     N
C      0.50471   0.3606    0.145     C
C      0.50471   0.6394    0.855     C
H       0.5133   0.2753   0.7741     H
H       0.5133   0.7247   0.2259     H
C       0.5311    0.376   0.8691     C
C       0.5311    0.624   0.1309     C
O      0.53142  0.45996  0.95802     O
O      0.53142  0.54004  0.04198     O
C      0.53185   0.4033   0.8987     C
C      0.53185   0.5967   0.1013     C
C      0.53243   0.3167   0.8124     C
C      0.53243   0.6833   0.1876     C
O      0.53484  0.45875  0.03989     O
O      0.53484  0.54125  0.96011     O
C        0.536   0.2869   0.7845     C
C        0.536   0.7131   0.2155     C
C       0.5382    0.402    0.099     C
C       0.5382    0.598    0.901     C
Cu     0.53881      0.5      0.0    Cu
C       0.5391   0.3743   0.1284     C
C       0.5391   0.6257   0.8716     C
O      0.53989  0.03484  0.95875     O
O      0.53989  0.96516  0.04125     O
O      0.54004  0.04198  0.53142     O
O      0.54004  0.95802  0.46858     O
C       0.5403   0.3151   0.1892     C
C       0.5403   0.6849   0.8108     C
O      0.54125  0.03989  0.46516     O
O      0.54125  0.96011  0.53484     O
O      0.54198  0.03142  0.04004     O
O      0.54198  0.96858  0.95996     O
H       0.5437   0.3486    0.237     H
H       0.5437   0.6514    0.763     H
H       0.5465   0.2735    0.146     H
H       0.5465   0.7265    0.854     H
C      0.55213  0.05313    0.498     C
C      0.55213  0.94687    0.502     C
C      0.55313    0.002  0.94787     C
C      0.55313    0.998  0.05213     C
H        0.556   0.4127   0.9079     H
H        0.556   0.5873   0.0921     H
C       0.5574     0.33    0.222     C
C       0.5574     0.67    0.778     C
C       0.5586   0.2852   0.1678     C
C       0.5586   0.7148   0.8322     C
H        0.562   0.4108   0.0882     H
H        0.562   0.5892   0.9118     H
H       0.5634   0.3646   0.1373     H
H       0.5634   0.6354   0.8627     H
O      0.56689   0.3653    0.853     O
O      0.56689   0.6347    0.147     O
C      0.56764   0.3352   0.8259     C
C      0.56764   0.6648   0.1741     C
C      0.57317    0.274   0.7718     C
C      0.57317    0.726   0.2282     C
H       0.5752   0.2531   0.7541     H
H       0.5752   0.7469   0.2459     H
C       0.5827   0.0847   0.4969     C
C       0.5827   0.9153   0.5031     C
C       0.5847   0.0031   0.9173     C
C       0.5847   0.9969   0.0827     C
H       0.5873   0.0921    0.556     H
H       0.5873   0.9079    0.444     H
H       0.5882    0.062   0.9108     H
H       0.5882    0.938   0.0892     H
H       0.5892   0.0882    0.438     H
H       0.5892   0.9118    0.562     H
H       0.5921    0.056   0.0873     H
H       0.5921    0.944   0.9127     H
C       0.5954   0.3181   0.2341     C
C       0.5954   0.6819   0.7659     C
C       0.5962   0.2737   0.1804     C
C       0.5962   0.7263   0.8196     C
C       0.5967   0.1013  0.53185     C
C       0.5967   0.8987  0.46815     C
C        0.598    0.099   0.4618     C
C        0.598    0.901   0.5382     C
C        0.599   0.0382    0.902     C
C        0.599   0.9618    0.098     C
C       0.6013  0.03185   0.0967     C
C       0.6013  0.96815   0.9033     C
C      0.60424   0.3222   0.8135     C
C      0.60424   0.6778   0.1865     C
C      0.60698   0.2924   0.7857     C
C      0.60698   0.7076   0.2143     C
H       0.6074   0.3296    0.256     H
H       0.6074   0.6704    0.744     H
H       0.6095   0.2544    0.166     H
H       0.6095   0.7456    0.834     H
C      0.61436   0.2893   0.2129     C
C      0.61436   0.7107   0.7871     C
C        0.624   0.1309   0.5311     C
C        0.624   0.8691   0.4689     C
C       0.6257   0.1284   0.4609     C
C       0.6257   0.8716   0.5391     C
H       0.6271   0.3335   0.8238     H
H       0.6271   0.6665   0.1762     H
C       0.6284   0.0391   0.8743     C
C       0.6284   0.9609   0.1257     C
C       0.6309   0.0311    0.124     C
C       0.6309   0.9689    0.876     C
O       0.6347    0.147  0.56689     O
O       0.6347    0.853  0.43311     O
H       0.6354   0.1373   0.4366     H
H       0.6354   0.8627   0.5634     H
H       0.6373   0.0634   0.8646     H
H       0.6373   0.9366   0.1354     H
C       0.6394    0.145  0.49529     C
C       0.6394    0.855  0.50471     C
C        0.645  0.00471   0.8606     C
C        0.645  0.99529   0.1394     C
H        0.646   0.0465   0.7735     H
H        0.646   0.9535   0.2265     H
O        0.647  0.06689   0.1347     O
O        0.647  0.93311   0.8653     O
C      0.64762   0.2804   0.7728     C
C      0.64762   0.7196   0.2272     C
O      0.65031  0.25007   0.7506     O
O      0.65031  0.74993   0.2494     O
H       0.6514    0.237   0.4563     H
H       0.6514    0.763   0.5437     H
C      0.65514   0.2764    0.224     C
C      0.65514   0.7236    0.776     C
C       0.6648   0.1741  0.56764     C
C       0.6648   0.8259  0.43236     C
H        0.666   0.1095   0.7544     H
H        0.666   0.8905   0.2456     H
H       0.6665   0.1762   0.6271     H
H       0.6665   0.8238   0.3729     H
C       0.6678   0.0586   0.7852     C
C       0.6678   0.9414   0.2148     C
N       0.6685   0.1749  0.49636     N
N       0.6685   0.8251  0.50364     N
O       0.6689  0.28965  0.25583     O
O       0.6689  0.71035  0.74417     O
C         0.67    0.222   0.4426     C
C         0.67    0.778   0.5574     C
H       0.6704    0.256   0.3926     H
H       0.6704    0.744   0.6074     H
O      0.67244  0.25378  0.20058     O
O      0.67244  0.74622  0.79942     O
C       0.6741  0.06764   0.1648     C
C       0.6741  0.93236   0.8352     C
N       0.6749  0.00364   0.8315     N
N       0.6749  0.99636   0.1685     N
O      0.67521  0.30241  0.78348     O
O      0.67521  0.69759  0.21652     O
H       0.6762   0.1271   0.1665     H
H       0.6762   0.8729   0.8335     H
C       0.6778   0.1865  0.60424     C
C       0.6778   0.8135  0.39576     C
C       0.6804   0.0962   0.7737     C
C       0.6804   0.9038   0.2263     C
C       0.6819   0.2341   0.4046     C
C       0.6819   0.7659   0.5954     C
C       0.6833   0.1876  0.53243     C
C       0.6833   0.8124  0.46757     C
C       0.6849   0.1892   0.4597     C
C       0.6849   0.8108   0.5403     C
C       0.6865  0.10424   0.1778     C
C       0.6865  0.89576   0.8222     C
C       0.6876  0.03243   0.1833     C
C       0.6876  0.96757   0.8167     C
C       0.6892   0.0403   0.8151     C
C       0.6892   0.9597   0.1849     C
O      0.69759  0.21652  0.67521     O
O      0.69759  0.78348  0.32479     O
Zn     0.69831  0.22596  0.73146    Zn
Zn     0.69831  0.77404  0.26854    Zn
O      0.70058  0.17244  0.75378     O
O      0.70058  0.82756  0.24622     O
C       0.7076   0.2143  0.60698     C
C       0.7076   0.7857  0.39302     C
O      0.71035  0.25583   0.3311     O
O      0.71035  0.74417   0.6689     O
C       0.7107   0.2129  0.38564     C
C       0.7107   0.7871  0.61436     C
C       0.7129  0.11436   0.7893     C
C       0.7129  0.88564   0.2107     C
C       0.7131   0.2155    0.536     C
C       0.7131   0.7845    0.464     C
C       0.7143  0.10698   0.2076     C
C       0.7143  0.89302   0.7924     C
C       0.7148   0.1678   0.4414     C
C       0.7148   0.8322   0.5586     C
C       0.7155    0.036   0.2131     C
C       0.7155    0.964   0.7869     C
O      0.71652  0.17521  0.19759     O
O      0.71652  0.82479  0.80241     O
C       0.7196   0.2272  0.64762     C
C       0.7196   0.7728  0.35238     C
Zn     0.72066  0.27934  0.27934    Zn
Zn     0.72066  0.72066  0.72066    Zn
C        0.722   0.0574     0.83     C
C        0.722   0.9426     0.17     C
C       0.7236    0.224  0.34486     C
C       0.7236    0.776  0.65514     C
C        0.724  0.15514   0.7764     C
C        0.724  0.84486   0.2236     C
H       0.7247   0.2259   0.5133     H
H       0.7247   0.7741   0.4867     H
H       0.7259   0.0133   0.2247     H
H       0.7259   0.9867   0.7753     H
Zn     0.72596  0.23146  0.19831    Zn
Zn     0.72596  0.76854  0.80169    Zn
C        0.726   0.2282  0.57317     C
C        0.726   0.7718  0.42683     C
C       0.7263   0.1804   0.4038     C
C       0.7263   0.8196   0.5962     C
H       0.7265    0.146   0.4535     H
H       0.7265    0.854   0.5465     H
C       0.7272  0.14762   0.2196     C
C       0.7272  0.85238   0.7804     C
C       0.7282  0.07317    0.226     C
C       0.7282  0.92683    0.774     C
Zn     0.73146  0.30169  0.77404    Zn
Zn     0.73146  0.69831  0.22596    Zn
C       0.7341   0.0954   0.8181     C
C       0.7341   0.9046   0.1819     C
H        0.737   0.0437   0.8486     H
H        0.737   0.9563   0.1514     H
H        0.744   0.3926   0.3296     H
H        0.744   0.6074   0.6704     H
O      0.74417   0.3311  0.28965     O
O      0.74417   0.6689  0.71035     O
H       0.7456    0.166   0.3905     H
H       0.7456    0.834   0.6095     H
H       0.7459   0.0752   0.2469     H
H       0.7459   0.9248   0.7531     H
O      0.74622  0.20058  0.32756     O
O      0.74622  0.79942  0.67244     O
O      0.74628  0.25372  0.74628     O
O      0.74628  0.74628  0.25372     O
H       0.7469   0.2459   0.5752     H
H       0.7469   0.7541   0.4248     H
O       0.7494  0.15031  0.24993     O
O       0.7494  0.84969  0.75007     O
O      0.74993   0.2494  0.65031     O
O      0.74993   0.7506  0.34969     O
O      0.75007   0.2506  0.15031     O
O      0.75007   0.7494  0.84969     O
O       0.7506  0.34969  0.74993     O
O       0.7506  0.65031  0.25007     O
H       0.7531   0.2541   0.0752     H
H       0.7531   0.7459   0.9248     H
O      0.75372  0.24628  0.24628     O
O      0.75372  0.75372  0.75372     O
O      0.75378  0.29942  0.82756     O
O      0.75378  0.70058  0.17244     O
H       0.7541   0.4248   0.7469     H
H       0.7541   0.5752   0.2531     H
H       0.7544    0.334   0.8905     H
H       0.7544    0.666   0.1095     H
O      0.75583   0.1689  0.78965     O
O      0.75583   0.8311  0.21035     O
H        0.756   0.1074   0.8296     H
H        0.756   0.8926   0.1704     H
H        0.763   0.4563   0.3486     H
H        0.763   0.5437   0.6514     H
C       0.7659   0.4046   0.3181     C
C       0.7659   0.5954   0.6819     C
Zn     0.76854  0.19831  0.27404    Zn
Zn     0.76854  0.80169  0.72596    Zn
C       0.7718  0.42683    0.726     C
C       0.7718  0.57317    0.274     C
C       0.7728  0.35238   0.7196     C
C       0.7728  0.64762   0.2804     C
H       0.7735    0.354   0.9535     H
H       0.7735    0.646   0.0465     H
C       0.7737   0.3196   0.9038     C
C       0.7737   0.6804   0.0962     C
C        0.774   0.2718  0.07317     C
C        0.774   0.7282  0.92683     C
Zn     0.77404  0.26854  0.69831    Zn
Zn     0.77404  0.73146  0.30169    Zn
H       0.7741   0.4867   0.7247     H
H       0.7741   0.5133   0.2753     H
H       0.7753   0.2741   0.0133     H
H       0.7753   0.7259   0.9867     H
C        0.776  0.34486   0.2764     C
C        0.776  0.65514   0.7236     C
C       0.7764    0.276  0.84486     C
C       0.7764    0.724  0.15514     C
C        0.778   0.4426     0.33     C
C        0.778   0.5574     0.67     C
Zn     0.77934  0.22066  0.77934    Zn
Zn     0.77934  0.77934  0.22066    Zn
C       0.7804   0.2728  0.14762     C
C       0.7804   0.7272  0.85238     C
O      0.78348  0.32479  0.69759     O
O      0.78348  0.67521  0.30241     O
C       0.7845    0.464   0.7131     C
C       0.7845    0.536   0.2869     C
C       0.7852   0.3322   0.9414     C
C       0.7852   0.6678   0.0586     C
C       0.7857  0.39302   0.7076     C
C       0.7857  0.60698   0.2924     C
C       0.7869   0.2845    0.036     C
C       0.7869   0.7155    0.964     C
C       0.7871  0.38564   0.2893     C
C       0.7871  0.61436   0.7107     C
C       0.7893   0.2871  0.88564     C
C       0.7893   0.7129  0.11436     C
O      0.78965  0.24417   0.8311     O
O      0.78965  0.75583   0.1689     O
C       0.7924   0.2857  0.10698     C
C       0.7924   0.7143  0.89302     C
O      0.79942  0.32756  0.25378     O
O      0.79942  0.67244  0.74622     O
Zn     0.80169  0.27404  0.23146    Zn
Zn     0.80169  0.72596  0.76854    Zn
O      0.80241  0.28348  0.17521     O
O      0.80241  0.71652  0.82479     O
C       0.8108   0.4597   0.3151     C
C       0.8108   0.5403   0.6849     C
C       0.8124  0.46757   0.6833     C
C       0.8124  0.53243   0.3167     C
C       0.8135  0.39576   0.6778     C
C       0.8135  0.60424   0.3222     C
C       0.8151   0.3108   0.9597     C
C       0.8151   0.6892   0.0403     C
C       0.8167   0.3124  0.03243     C
C       0.8167   0.6876  0.96757     C
C       0.8181   0.2659   0.9046     C
C       0.8181   0.7341   0.0954     C
C       0.8196   0.4038   0.2737     C
C       0.8196   0.5962   0.7263     C
C       0.8222   0.3135  0.10424     C
C       0.8222   0.6865  0.89576     C
H       0.8238   0.3729   0.6665     H
H       0.8238   0.6271   0.3335     H
O      0.82479  0.19759  0.28348     O
O      0.82479  0.80241  0.71652     O
N       0.8251  0.49636   0.3315     N
N       0.8251  0.50364   0.6685     N
C       0.8259  0.43236   0.6648     C
C       0.8259  0.56764   0.3352     C
O      0.82756  0.24622  0.70058     O
O      0.82756  0.75378  0.29942     O
H       0.8296    0.244   0.8926     H
H       0.8296    0.756   0.1074     H
C         0.83    0.278   0.9426     C
C         0.83    0.722   0.0574     C
O       0.8311  0.21035  0.75583     O
O       0.8311  0.78965  0.24417     O
N       0.8315   0.3251  0.99636     N
N       0.8315   0.6749  0.00364     N
C       0.8322   0.4414   0.2852     C
C       0.8322   0.5586   0.7148     C
H       0.8335   0.3238   0.1271     H
H       0.8335   0.6762   0.8729     H
H        0.834   0.3905   0.2544     H
H        0.834   0.6095   0.7456     H
C       0.8352   0.3259  0.06764     C
C       0.8352   0.6741  0.93236     C
C      0.84486   0.2236    0.724     C
C      0.84486   0.7764    0.276     C
H       0.8486    0.263   0.9563     H
H       0.8486    0.737   0.0437     H
O      0.84969  0.24993   0.2506     O
O      0.84969  0.75007   0.7494     O
C      0.85238   0.2196   0.2728     C
C      0.85238   0.7804   0.7272     C
O        0.853  0.43311   0.6347     O
O        0.853  0.56689   0.3653     O
H        0.854   0.4535   0.2735     H
H        0.854   0.5465   0.7265     H
C        0.855  0.49529   0.3606     C
C        0.855  0.50471   0.6394     C
C       0.8606    0.355  0.99529     C
C       0.8606    0.645  0.00471     C
H       0.8627   0.4366   0.3646     H
H       0.8627   0.5634   0.6354     H
H       0.8646   0.3627   0.9366     H
H       0.8646   0.6373   0.0634     H
O       0.8653    0.353  0.06689     O
O       0.8653    0.647  0.93311     O
C       0.8691   0.4689    0.624     C
C       0.8691   0.5311    0.376     C
C       0.8716   0.4609   0.3743     C
C       0.8716   0.5391   0.6257     C
H       0.8729   0.1665   0.3238     H
H       0.8729   0.8335   0.6762     H
C       0.8743   0.3716   0.9609     C
C       0.8743   0.6284   0.0391     C
C        0.876   0.3691   0.0311     C
C        0.876   0.6309   0.9689     C
C      0.88564   0.2107   0.7129     C
C      0.88564   0.7893   0.2871     C
H       0.8905   0.2456    0.666     H
H       0.8905   0.7544    0.334     H
H       0.8926   0.1704    0.756     H
H       0.8926   0.8296    0.244     H
C      0.89302   0.2076   0.2857     C
C      0.89302   0.7924   0.7143     C
C      0.89576   0.1778   0.3135     C
C      0.89576   0.8222   0.6865     C
C       0.8987  0.46815   0.5967     C
C       0.8987  0.53185   0.4033     C
C        0.901   0.4618    0.402     C
C        0.901   0.5382    0.598     C
C        0.902    0.401   0.9618     C
C        0.902    0.599   0.0382     C
C       0.9033   0.3987  0.03185     C
C       0.9033   0.6013  0.96815     C
C       0.9038   0.2263   0.6804     C
C       0.9038   0.7737   0.3196     C
C       0.9046   0.1819   0.7341     C
C       0.9046   0.8181   0.2659     C
H       0.9079    0.444   0.5873     H
H       0.9079    0.556   0.4127     H
H       0.9108   0.4118    0.938     H
H       0.9108   0.5882    0.062     H
H       0.9118    0.438   0.4108     H
H       0.9118    0.562   0.5892     H
H       0.9127   0.4079    0.056     H
H       0.9127   0.5921    0.944     H
C       0.9153   0.4969   0.4173     C
C       0.9153   0.5031   0.5827     C
C       0.9173   0.4153   0.9969     C
C       0.9173   0.5847   0.0031     C
H       0.9248   0.2469   0.2541     H
H       0.9248   0.7531   0.7459     H
C      0.92683    0.226   0.2718     C
C      0.92683    0.774   0.7282     C
C      0.93236   0.1648   0.3259     C
C      0.93236   0.8352   0.6741     C
O      0.93311   0.1347    0.353     O
O      0.93311   0.8653    0.647     O
H       0.9366   0.1354   0.6373     H
H       0.9366   0.8646   0.3627     H
H        0.938   0.0892   0.5882     H
H        0.938   0.9108   0.4118     H
C       0.9414   0.2148   0.6678     C
C       0.9414   0.7852   0.3322     C
C       0.9426     0.17    0.722     C
C       0.9426     0.83    0.278     C
H        0.944   0.0873   0.4079     H
H        0.944   0.9127   0.5921     H
C      0.94687    0.498  0.44787     C
C      0.94687    0.502  0.55213     C
C      0.94787  0.44687    0.998     C
C      0.94787  0.55313    0.002     C
H       0.9535   0.2265    0.646     H
H       0.9535   0.7735    0.354     H
H       0.9563   0.1514    0.737     H
H       0.9563   0.8486    0.263     H
O      0.95802  0.46858  0.54004     O
O      0.95802  0.53142  0.45996     O
O      0.95875  0.46011  0.96516     O
O      0.95875  0.53989  0.03484     O
C       0.9597   0.1849   0.6892     C
C       0.9597   0.8151   0.3108     C
O      0.95996  0.45802  0.03142     O
O      0.95996  0.54198  0.96858     O
O      0.96011  0.46516  0.45875     O
O      0.96011  0.53484  0.54125     O
C       0.9609   0.1257   0.6284     C
C       0.9609   0.8743   0.3716     C
Cu     0.96119      0.0      0.5    Cu
C       0.9618    0.098    0.599     C
C       0.9618    0.902    0.401     C
C        0.964   0.2131   0.2845     C
C        0.964   0.7869   0.7155     C
O      0.96516  0.04125  0.53989     O
O      0.96516  0.95875  0.46011     O
C      0.96757   0.1833   0.3124     C
C      0.96757   0.8167   0.6876     C
C      0.96815   0.0967   0.3987     C
C      0.96815   0.9033   0.6013     C
O      0.96858  0.04004  0.45802     O
O      0.96858  0.95996  0.54198     O
C       0.9689    0.124   0.3691     C
C       0.9689    0.876   0.6309     C
H       0.9867   0.2247   0.2741     H
H       0.9867   0.7753   0.7259     H
C      0.99529   0.1394    0.645     C
C      0.99529   0.8606    0.355     C
N      0.99636   0.1685   0.6749     N
N      0.99636   0.8315   0.3251     N
C       0.9969   0.0827   0.5847     C
C       0.9969   0.9173   0.4153     C
C        0.998  0.05213  0.55313     C
C        0.998  0.94787  0.44687     C
