data_I
_chemical_name_common  '/home/zhangsd/repos/MofS-CGCNN/ML/data/TSD/clean_cifs/MALWUU_clean'
_cell_length_a 20.78030
_cell_length_b  7.91540
_cell_length_c 17.29900
_cell_angle_alpha 90.00000
_cell_angle_beta  90.00000
_cell_angle_gamma 90.00000
_space_group_name_H-M_alt      'P 1'


loop_
_space_group_symop_operation_xyz
  'x, y, z' 

loop_
_atom_site_label
_atom_site_fract_x
_atom_site_fract_y
_atom_site_fract_z
_atom_site_type_symbol
Cd         0.0      0.5     0.25    Cd
Cd         0.0      0.5     0.75    Cd
O       0.0376   0.3139   0.1611     O
O       0.0376   0.3139   0.8389     O
O       0.0376   0.6861   0.3389     O
O       0.0376   0.6861   0.6611     O
H       0.0571   0.4328      0.0     H
H       0.0571   0.5672      0.5     H
C       0.0875   0.3905   0.1403     C
C       0.0875   0.3905   0.8597     C
C       0.0875   0.6095   0.3597     C
C       0.0875   0.6095   0.6403     C
C       0.0949   0.3701      0.0     C
C       0.0949   0.6299      0.5     C
O       0.1069   0.4756   0.3304     O
O       0.1069   0.4756   0.6696     O
O       0.1069   0.5244   0.1696     O
O       0.1069   0.5244   0.8304     O
C       0.1216   0.3258   0.0699     C
C       0.1216   0.3258   0.9301     C
C       0.1216   0.6742   0.4301     C
C       0.1216   0.6742   0.5699     C
C       0.1767   0.2243   0.0701     C
C       0.1767   0.2243   0.9299     C
C       0.1767   0.7757   0.4299     C
C       0.1767   0.7757   0.5701     C
O       0.1848   0.2203   0.2076     O
O       0.1848   0.2203   0.7924     O
O       0.1848   0.7797   0.2924     O
O       0.1848   0.7797   0.7076     O
Cd     0.19818      0.5     0.25    Cd
Cd     0.19818      0.5     0.75    Cd
C       0.2026   0.1704      0.0     C
C       0.2026   0.8296      0.5     C
C       0.2065    0.167   0.1446     C
C       0.2065    0.167   0.8554     C
C       0.2065    0.833   0.3554     C
C       0.2065    0.833   0.6446     C
H       0.2377   0.0974      0.0     H
H       0.2377   0.9026      0.5     H
O       0.2454    0.431     0.36     O
O       0.2454    0.431     0.64     O
O       0.2454    0.569     0.14     O
O       0.2454    0.569     0.86     O
O       0.2546    0.069     0.14     O
O       0.2546    0.069     0.86     O
O       0.2546    0.931     0.36     O
O       0.2546    0.931     0.64     O
H       0.2623   0.4026      0.5     H
H       0.2623   0.5974      0.0     H
C       0.2935    0.333   0.3554     C
C       0.2935    0.333   0.6446     C
C       0.2935    0.667   0.1446     C
C       0.2935    0.667   0.8554     C
C       0.2974   0.3296      0.5     C
C       0.2974   0.6704      0.0     C
Cd     0.30182      0.0     0.25    Cd
Cd     0.30182      0.0     0.75    Cd
O       0.3152   0.2797   0.2924     O
O       0.3152   0.2797   0.7076     O
O       0.3152   0.7203   0.2076     O
O       0.3152   0.7203   0.7924     O
C       0.3233   0.2757   0.4299     C
C       0.3233   0.2757   0.5701     C
C       0.3233   0.7243   0.0701     C
C       0.3233   0.7243   0.9299     C
C       0.3784   0.1742   0.4301     C
C       0.3784   0.1742   0.5699     C
C       0.3784   0.8258   0.0699     C
C       0.3784   0.8258   0.9301     C
O       0.3931   0.0244   0.1696     O
O       0.3931   0.0244   0.8304     O
O       0.3931   0.9756   0.3304     O
O       0.3931   0.9756   0.6696     O
C       0.4051   0.1299      0.5     C
C       0.4051   0.8701      0.0     C
C       0.4125   0.1095   0.3597     C
C       0.4125   0.1095   0.6403     C
C       0.4125   0.8905   0.1403     C
C       0.4125   0.8905   0.8597     C
H       0.4429   0.0672      0.5     H
H       0.4429   0.9328      0.0     H
O       0.4624   0.1861   0.3389     O
O       0.4624   0.1861   0.6611     O
O       0.4624   0.8139   0.1611     O
O       0.4624   0.8139   0.8389     O
Cd         0.5      0.0     0.25    Cd
Cd         0.5      0.0     0.75    Cd
O       0.5376   0.1861   0.1611     O
O       0.5376   0.1861   0.8389     O
O       0.5376   0.8139   0.3389     O
O       0.5376   0.8139   0.6611     O
H       0.5571   0.0672      0.0     H
H       0.5571   0.9328      0.5     H
C       0.5875   0.1095   0.1403     C
C       0.5875   0.1095   0.8597     C
C       0.5875   0.8905   0.3597     C
C       0.5875   0.8905   0.6403     C
C       0.5949   0.1299      0.0     C
C       0.5949   0.8701      0.5     C
O       0.6069   0.0244   0.3304     O
O       0.6069   0.0244   0.6696     O
O       0.6069   0.9756   0.1696     O
O       0.6069   0.9756   0.8304     O
C       0.6216   0.1742   0.0699     C
C       0.6216   0.1742   0.9301     C
C       0.6216   0.8258   0.4301     C
C       0.6216   0.8258   0.5699     C
C       0.6767   0.2757   0.0701     C
C       0.6767   0.2757   0.9299     C
C       0.6767   0.7243   0.4299     C
C       0.6767   0.7243   0.5701     C
O       0.6848   0.2797   0.2076     O
O       0.6848   0.2797   0.7924     O
O       0.6848   0.7203   0.2924     O
O       0.6848   0.7203   0.7076     O
Cd     0.69818      0.0     0.25    Cd
Cd     0.69818      0.0     0.75    Cd
C       0.7026   0.3296      0.0     C
C       0.7026   0.6704      0.5     C
C       0.7065    0.333   0.1446     C
C       0.7065    0.333   0.8554     C
C       0.7065    0.667   0.3554     C
C       0.7065    0.667   0.6446     C
H       0.7377   0.4026      0.0     H
H       0.7377   0.5974      0.5     H
O       0.7454    0.069     0.36     O
O       0.7454    0.069     0.64     O
O       0.7454    0.931     0.14     O
O       0.7454    0.931     0.86     O
O       0.7546    0.431     0.14     O
O       0.7546    0.431     0.86     O
O       0.7546    0.569     0.36     O
O       0.7546    0.569     0.64     O
H       0.7623   0.0974      0.5     H
H       0.7623   0.9026      0.0     H
C       0.7935    0.167   0.3554     C
C       0.7935    0.167   0.6446     C
C       0.7935    0.833   0.1446     C
C       0.7935    0.833   0.8554     C
C       0.7974   0.1704      0.5     C
C       0.7974   0.8296      0.0     C
Cd     0.80182      0.5     0.25    Cd
Cd     0.80182      0.5     0.75    Cd
O       0.8152   0.2203   0.2924     O
O       0.8152   0.2203   0.7076     O
O       0.8152   0.7797   0.2076     O
O       0.8152   0.7797   0.7924     O
C       0.8233   0.2243   0.4299     C
C       0.8233   0.2243   0.5701     C
C       0.8233   0.7757   0.0701     C
C       0.8233   0.7757   0.9299     C
C       0.8784   0.3258   0.4301     C
C       0.8784   0.3258   0.5699     C
C       0.8784   0.6742   0.0699     C
C       0.8784   0.6742   0.9301     C
O       0.8931   0.4756   0.1696     O
O       0.8931   0.4756   0.8304     O
O       0.8931   0.5244   0.3304     O
O       0.8931   0.5244   0.6696     O
C       0.9051   0.3701      0.5     C
C       0.9051   0.6299      0.0     C
C       0.9125   0.3905   0.3597     C
C       0.9125   0.3905   0.6403     C
C       0.9125   0.6095   0.1403     C
C       0.9125   0.6095   0.8597     C
H       0.9429   0.4328      0.5     H
H       0.9429   0.5672      0.0     H
O       0.9624   0.3139   0.3389     O
O       0.9624   0.3139   0.6611     O
O       0.9624   0.6861   0.1611     O
O       0.9624   0.6861   0.8389     O
