data_I
_chemical_name_common  '/home/zhangsd/repos/MofS-CGCNN/ML/data/TSD/clean_cifs/MAPLEX_clean'
_cell_length_a 19.66750
_cell_length_b 11.94570
_cell_length_c 21.97730
_cell_angle_alpha 90.00000
_cell_angle_beta  97.16600
_cell_angle_gamma 90.00000
_space_group_name_H-M_alt      'P 1'


loop_
_space_group_symop_operation_xyz
  'x, y, z' 

loop_
_atom_site_label
_atom_site_fract_x
_atom_site_fract_y
_atom_site_fract_z
_atom_site_type_symbol
H       0.0111   0.4488   0.0924     H
H       0.0111   0.5512   0.5924     H
C       0.0239   0.3473    0.479     C
C       0.0239   0.6527    0.979     C
C       0.0264   0.4354   0.4384     C
C       0.0264   0.5646   0.9384     C
C       0.0403   0.2796   0.0227     C
C       0.0403   0.7204   0.5227     C
O      0.05136   0.2213  0.97731     O
O      0.05136   0.7787  0.47731     O
H       0.0777   0.2651   0.5511     H
H       0.0777   0.7349   0.0511     H
C       0.0799    0.325    0.523     C
C       0.0799    0.675    0.023     C
C       0.0837   0.4956    0.943     C
C       0.0837   0.5044    0.443     C
O      0.08393   0.2849  0.06972     O
O      0.08393   0.7151  0.56972     O
H       0.0842   0.4325   0.9167     H
H       0.0842   0.5675   0.4167     H
O      0.09562   0.0907  0.59829     O
O      0.09562   0.9093  0.09829     O
C       0.1344   0.0244   0.6308     C
C       0.1344   0.9756   0.1308     C
C       0.1395   0.3909   0.5258     C
C       0.1395   0.6091   0.0258     C
C       0.1409   0.4814   0.4861     C
C       0.1409   0.5186   0.9861     C
H       0.1491   0.1944   0.3165     H
H       0.1491   0.8056   0.8165     H
H       0.1514   0.2286   0.6808     H
H       0.1514   0.7714   0.1808     H
O       0.1515   0.0712  0.11433     O
O       0.1515   0.9288  0.61433     O
C       0.1602   0.0603   0.6955     C
C       0.1602   0.9397   0.1955     C
C       0.1643   0.1732   0.7111     C
C       0.1643   0.8268   0.2111     C
Eu     0.16845  0.17011  0.02568    Eu
Eu     0.16845  0.82989  0.52568    Eu
O      0.17794   0.1358  0.91845     O
O      0.17794   0.8642  0.41845     O
H       0.1794   0.0972   0.2291     H
H       0.1794   0.9028   0.7291     H
C       0.1801   0.0203   0.2402     C
C       0.1801   0.9797   0.7402     C
C       0.1872   0.2049   0.7707     C
C       0.1872   0.7951   0.2707     C
C       0.1883   0.1816   0.3455     C
C       0.1883   0.8184   0.8455     C
H       0.1907   0.3351   0.3862     H
H       0.1907   0.6649   0.8862     H
H        0.192   0.2821   0.7807     H
H        0.192   0.7179   0.2807     H
O      0.19987   0.3439  0.98439     O
O      0.19987   0.6561  0.48439     O
C       0.2002   0.3637   0.5716     C
C       0.2002   0.6363   0.0716     C
C       0.2011   0.0105   0.8012     C
C       0.2011   0.9895   0.3012     C
C       0.2033   0.4505    0.983     C
C       0.2033   0.5495    0.483     C
C       0.2035   0.1239   0.8163     C
C       0.2035   0.8761   0.3163     C
H       0.2112   0.2014   0.5441     H
H       0.2112   0.7986   0.0441     H
C       0.2128   0.2644   0.3865     C
C       0.2128   0.7356   0.8865     C
C       0.2184   0.1665   0.8814     C
C       0.2184   0.8335   0.3814     C
C       0.2225   0.0786   0.3474     C
C       0.2225   0.9214   0.8474     C
N       0.2232   0.4451  0.61077     N
N       0.2232   0.5549  0.11077     N
C         0.23   0.2576   0.5719     C
C         0.23   0.7424   0.0719     C
O      0.23329   0.2669  0.10824     O
O      0.23329   0.7331  0.60824     O
O      0.24169   0.0007  0.02346     O
O      0.24169   0.9993  0.52346     O
O      0.25831   0.4993  0.97654     O
O      0.25831   0.5007  0.47654     O
O      0.26671   0.2331  0.89176     O
O      0.26671   0.7669  0.39176     O
C         0.27   0.2424   0.4281     C
C         0.27   0.7576   0.9281     C
N       0.2768   0.0549  0.38923     N
N       0.2768   0.9451  0.88923     N
C       0.2775   0.4214   0.6526     C
C       0.2775   0.5786   0.1526     C
C       0.2816   0.3335   0.1186     C
C       0.2816   0.6665   0.6186     C
C       0.2872   0.2356   0.6135     C
C       0.2872   0.7644   0.1135     C
H       0.2888   0.2986   0.4559     H
H       0.2888   0.7014   0.9559     H
C       0.2965   0.3761   0.1837     C
C       0.2965   0.6239   0.6837     C
C       0.2967   0.0495    0.017     C
C       0.2967   0.9505    0.517     C
C       0.2989   0.4895   0.1988     C
C       0.2989   0.5105   0.6988     C
C       0.2998   0.1363   0.4284     C
C       0.2998   0.8637   0.9284     C
O      0.30013   0.1561  0.01561     O
O      0.30013   0.8439  0.51561     O
H        0.308   0.2179   0.2193     H
H        0.308   0.7821   0.7193     H
H       0.3093   0.1649   0.6138     H
H       0.3093   0.8351   0.1138     H
C       0.3117   0.3184   0.6545     C
C       0.3117   0.6816   0.1545     C
C       0.3128   0.2951   0.2293     C
C       0.3128   0.7049   0.7293     C
C       0.3199   0.4797   0.7598     C
C       0.3199   0.5203   0.2598     C
H       0.3206   0.4028   0.7709     H
H       0.3206   0.5972   0.2709     H
O      0.32206   0.3642  0.08155     O
O      0.32206   0.6358  0.58155     O
Eu     0.33155  0.32989  0.97432    Eu
Eu     0.33155  0.67011  0.47432    Eu
C       0.3357   0.3268   0.2889     C
C       0.3357   0.6732   0.7889     C
C       0.3398   0.4397   0.3045     C
C       0.3398   0.5603   0.8045     C
O       0.3485   0.4288  0.88567     O
O       0.3485   0.5712  0.38567     O
H       0.3486   0.2714   0.3192     H
H       0.3486   0.7286   0.8192     H
H       0.3509   0.3056   0.6835     H
H       0.3509   0.6944   0.1835     H
C       0.3591   0.0186   0.5139     C
C       0.3591   0.9814   0.0139     C
C       0.3605   0.1091   0.4742     C
C       0.3605   0.8909   0.9742     C
C       0.3656   0.4756   0.3692     C
C       0.3656   0.5244   0.8692     C
O      0.40438   0.4093  0.40171     O
O      0.40438   0.5907  0.90171     O
H       0.4158   0.0675   0.0833     H
H       0.4158   0.9325   0.5833     H
O      0.41607   0.2151  0.93028     O
O      0.41607   0.7849  0.43028     O
C       0.4163   0.0044    0.057     C
C       0.4163   0.9956    0.557     C
C       0.4201    0.175    0.477     C
C       0.4201    0.825    0.977     C
H       0.4223   0.2349   0.4489     H
H       0.4223   0.7651   0.9489     H
O      0.44864   0.2787  0.02269     O
O      0.44864   0.7213  0.52269     O
C       0.4597   0.2204   0.9773     C
C       0.4597   0.7796   0.4773     C
C       0.4736   0.0646   0.5616     C
C       0.4736   0.9354   0.0616     C
C       0.4761   0.1527    0.521     C
C       0.4761   0.8473    0.021     C
H       0.4889   0.0512   0.9076     H
H       0.4889   0.9488   0.4076     H
H       0.5111   0.0512   0.5924     H
H       0.5111   0.9488   0.0924     H
C       0.5239   0.1527    0.979     C
C       0.5239   0.8473    0.479     C
C       0.5264   0.0646   0.9384     C
C       0.5264   0.9354   0.4384     C
C       0.5403   0.2204   0.5227     C
C       0.5403   0.7796   0.0227     C
O      0.55136   0.2787  0.47731     O
O      0.55136   0.7213  0.97731     O
H       0.5777   0.2349   0.0511     H
H       0.5777   0.7651   0.5511     H
C       0.5799    0.175    0.023     C
C       0.5799    0.825    0.523     C
C       0.5837   0.0044    0.443     C
C       0.5837   0.9956    0.943     C
O      0.58393   0.2151  0.56972     O
O      0.58393   0.7849  0.06972     O
H       0.5842   0.0675   0.4167     H
H       0.5842   0.9325   0.9167     H
O      0.59562   0.4093  0.09829     O
O      0.59562   0.5907  0.59829     O
C       0.6344   0.4756   0.1308     C
C       0.6344   0.5244   0.6308     C
C       0.6395   0.1091   0.0258     C
C       0.6395   0.8909   0.5258     C
C       0.6409   0.0186   0.9861     C
C       0.6409   0.9814   0.4861     C
H       0.6491   0.3056   0.8165     H
H       0.6491   0.6944   0.3165     H
H       0.6514   0.2714   0.1808     H
H       0.6514   0.7286   0.6808     H
O       0.6515   0.4288  0.61433     O
O       0.6515   0.5712  0.11433     O
C       0.6602   0.4397   0.1955     C
C       0.6602   0.5603   0.6955     C
C       0.6643   0.3268   0.2111     C
C       0.6643   0.6732   0.7111     C
Eu     0.66845  0.32989  0.52568    Eu
Eu     0.66845  0.67011  0.02568    Eu
O      0.67794   0.3642  0.41845     O
O      0.67794   0.6358  0.91845     O
H       0.6794   0.4028   0.7291     H
H       0.6794   0.5972   0.2291     H
C       0.6801   0.4797   0.7402     C
C       0.6801   0.5203   0.2402     C
C       0.6872   0.2951   0.2707     C
C       0.6872   0.7049   0.7707     C
C       0.6883   0.3184   0.8455     C
C       0.6883   0.6816   0.3455     C
H       0.6907   0.1649   0.8862     H
H       0.6907   0.8351   0.3862     H
H        0.692   0.2179   0.2807     H
H        0.692   0.7821   0.7807     H
O      0.69987   0.1561  0.48439     O
O      0.69987   0.8439  0.98439     O
C       0.7002   0.1363   0.0716     C
C       0.7002   0.8637   0.5716     C
C       0.7011   0.4895   0.3012     C
C       0.7011   0.5105   0.8012     C
C       0.7033   0.0495    0.483     C
C       0.7033   0.9505    0.983     C
C       0.7035   0.3761   0.3163     C
C       0.7035   0.6239   0.8163     C
H       0.7112   0.2986   0.0441     H
H       0.7112   0.7014   0.5441     H
C       0.7128   0.2356   0.8865     C
C       0.7128   0.7644   0.3865     C
C       0.7184   0.3335   0.3814     C
C       0.7184   0.6665   0.8814     C
C       0.7225   0.4214   0.8474     C
C       0.7225   0.5786   0.3474     C
N       0.7232   0.0549  0.11077     N
N       0.7232   0.9451  0.61077     N
C         0.73   0.2424   0.0719     C
C         0.73   0.7576   0.5719     C
O      0.73329   0.2331  0.60824     O
O      0.73329   0.7669  0.10824     O
O      0.74169   0.4993  0.52346     O
O      0.74169   0.5007  0.02346     O
O      0.75831   0.0007  0.47654     O
O      0.75831   0.9993  0.97654     O
O      0.76671   0.2669  0.39176     O
O      0.76671   0.7331  0.89176     O
C         0.77   0.2576   0.9281     C
C         0.77   0.7424   0.4281     C
N       0.7768   0.4451  0.88923     N
N       0.7768   0.5549  0.38923     N
C       0.7775   0.0786   0.1526     C
C       0.7775   0.9214   0.6526     C
C       0.7816   0.1665   0.6186     C
C       0.7816   0.8335   0.1186     C
C       0.7872   0.2644   0.1135     C
C       0.7872   0.7356   0.6135     C
H       0.7888   0.2014   0.9559     H
H       0.7888   0.7986   0.4559     H
C       0.7965   0.1239   0.6837     C
C       0.7965   0.8761   0.1837     C
C       0.7967   0.4505    0.517     C
C       0.7967   0.5495    0.017     C
C       0.7989   0.0105   0.6988     C
C       0.7989   0.9895   0.1988     C
C       0.7998   0.3637   0.9284     C
C       0.7998   0.6363   0.4284     C
O      0.80013   0.3439  0.51561     O
O      0.80013   0.6561  0.01561     O
H        0.808   0.2821   0.7193     H
H        0.808   0.7179   0.2193     H
H       0.8093   0.3351   0.1138     H
H       0.8093   0.6649   0.6138     H
C       0.8117   0.1816   0.1545     C
C       0.8117   0.8184   0.6545     C
C       0.8128   0.2049   0.7293     C
C       0.8128   0.7951   0.2293     C
C       0.8199   0.0203   0.2598     C
C       0.8199   0.9797   0.7598     C
H       0.8206   0.0972   0.2709     H
H       0.8206   0.9028   0.7709     H
O      0.82206   0.1358  0.58155     O
O      0.82206   0.8642  0.08155     O
Eu     0.83155  0.17011  0.47432    Eu
Eu     0.83155  0.82989  0.97432    Eu
C       0.8357   0.1732   0.7889     C
C       0.8357   0.8268   0.2889     C
C       0.8398   0.0603   0.8045     C
C       0.8398   0.9397   0.3045     C
O       0.8485   0.0712  0.38567     O
O       0.8485   0.9288  0.88567     O
H       0.8486   0.2286   0.8192     H
H       0.8486   0.7714   0.3192     H
H       0.8509   0.1944   0.1835     H
H       0.8509   0.8056   0.6835     H
C       0.8591   0.4814   0.0139     C
C       0.8591   0.5186   0.5139     C
C       0.8605   0.3909   0.9742     C
C       0.8605   0.6091   0.4742     C
C       0.8656   0.0244   0.8692     C
C       0.8656   0.9756   0.3692     C
O      0.90438   0.0907  0.90171     O
O      0.90438   0.9093  0.40171     O
H       0.9158   0.4325   0.5833     H
H       0.9158   0.5675   0.0833     H
O      0.91607   0.2849  0.43028     O
O      0.91607   0.7151  0.93028     O
C       0.9163   0.4956    0.557     C
C       0.9163   0.5044    0.057     C
C       0.9201    0.325    0.977     C
C       0.9201    0.675    0.477     C
H       0.9223   0.2651   0.9489     H
H       0.9223   0.7349   0.4489     H
O      0.94864   0.2213  0.52269     O
O      0.94864   0.7787  0.02269     O
C       0.9597   0.2796   0.4773     C
C       0.9597   0.7204   0.9773     C
C       0.9736   0.4354   0.0616     C
C       0.9736   0.5646   0.5616     C
C       0.9761   0.3473    0.021     C
C       0.9761   0.6527    0.521     C
H       0.9889   0.4488   0.4076     H
H       0.9889   0.5512   0.9076     H
