data_I
_chemical_name_common  '/home/zhangsd/repos/MofS-CGCNN/ML/data/TSD/clean_cifs/MARJAQ_clean'
_cell_length_a 17.49410
_cell_length_b 32.39300
_cell_length_c 10.07490
_cell_angle_alpha 90.00000
_cell_angle_beta  90.00000
_cell_angle_gamma 90.00000
_space_group_name_H-M_alt      'P 1'


loop_
_space_group_symop_operation_xyz
  'x, y, z' 

loop_
_atom_site_label
_atom_site_fract_x
_atom_site_fract_y
_atom_site_fract_z
_atom_site_type_symbol
O       0.0001   0.0586   0.6924     O
O       0.0007   0.9254   0.9291     O
O       0.0038   0.4414   0.2885     O
O       0.0044   0.9169   0.4227     O
O       0.0067   0.4273   0.5562     O
O        0.012   0.5857   0.5595     O
Ga     0.01392   0.0256  0.53538    Ga
Ga     0.01609  0.47561  0.44141    Ga
P       0.0186  0.45188   0.1413     P
O       0.0195    0.993   0.3753     O
P       0.0214  0.04666   0.8344     P
F       0.0224   0.9717   0.6313     F
O        0.023   0.5082   0.6025     O
F       0.0258   0.5295   0.3494     F
O       0.0411   0.8929   0.7121     O
O       0.0424   0.6058   0.2663     O
P        0.063  0.59057   0.1258     P
P       0.0679  0.90707   0.8544     P
Ga     0.07404  0.92055  0.56059    Ga
Ga      0.0802  0.58125  0.41799    Ga
O       0.0882   0.6293   0.0429     O
F        0.096   0.5152    0.929     F
O       0.0962   0.8682   0.9255     O
F       0.1003   0.9841   0.0416     F
O        0.105   0.4561   0.1162     O
O       0.1077   0.7166    0.091     O
O       0.1082   0.0418    0.848     O
O       0.1128   0.7919   0.0263     O
O       0.1243   0.0295   0.5372     O
O       0.1248   0.8722   0.4921     O
O       0.1277   0.4724   0.4406     O
O       0.1329   0.5614   0.1382     O
O       0.1343   0.9377   0.8343     O
O       0.1364   0.6309   0.4729     O
O       0.1398   0.7712   0.2598     O
O       0.1452   0.7972   0.5262     O
P      0.14975  0.75867   0.1146     P
Ga     0.15626  0.82191  0.87423    Ga
Ga     0.15693   0.5061  0.09414    Ga
O       0.1584   0.7056   0.4411     O
Ga     0.15886  0.66766  0.09885    Ga
Ga     0.15986   0.9925  0.87555    Ga
O       0.1607    0.952   0.5249     O
O       0.1663   0.5488   0.4488     O
P       0.1815  0.84055   0.5473     P
P       0.1869  0.99637   0.5605     P
P       0.1886  0.50369   0.4089     P
P       0.1902  0.66274   0.4115     P
O       0.1947   0.8468   0.6961     O
Ga     0.19969  0.75887  0.42093    Ga
O       0.2022   0.6554   0.2589     O
O       0.2086   0.7702   0.8265     O
O       0.2123   0.5024   0.2617     O
O       0.2161   0.9971   0.7056     O
O       0.2284   0.6584   0.9676     O
O       0.2352   0.7511    0.085     O
O       0.2413   0.4924   0.9953     O
O       0.2441   0.8435   0.9689     O
O       0.2467    0.007   0.9706     O
O       0.2533    0.007   0.4706     O
O       0.2559   0.8435   0.4689     O
O       0.2587   0.4924   0.4953     O
O       0.2648   0.7511    0.585     O
O       0.2716   0.6584   0.4676     O
O       0.2839   0.9971   0.2056     O
O       0.2877   0.5024   0.7617     O
O       0.2914   0.7702   0.3265     O
O       0.2978   0.6554   0.7589     O
Ga     0.30031  0.75887  0.92093    Ga
O       0.3053   0.8468   0.1961     O
P       0.3098  0.66274   0.9115     P
P       0.3114  0.50369   0.9089     P
P       0.3131  0.99637   0.0605     P
P       0.3185  0.84055   0.0473     P
O       0.3337   0.5488   0.9488     O
O       0.3393    0.952   0.0249     O
Ga     0.34014   0.9925  0.37555    Ga
Ga     0.34114  0.66766  0.59885    Ga
O       0.3416   0.7056   0.9411     O
Ga     0.34307   0.5061  0.59414    Ga
Ga     0.34374  0.82191  0.37423    Ga
P      0.35025  0.75867   0.6146     P
O       0.3548   0.7972   0.0262     O
O       0.3602   0.7712   0.7598     O
O       0.3636   0.6309   0.9729     O
O       0.3657   0.9377   0.3343     O
O       0.3671   0.5614   0.6382     O
O       0.3723   0.4724   0.9406     O
O       0.3752   0.8722   0.9921     O
O       0.3757   0.0295   0.0372     O
O       0.3872   0.7919   0.5263     O
O       0.3918   0.0418    0.348     O
O       0.3923   0.7166    0.591     O
O        0.395   0.4561   0.6162     O
F       0.3997   0.9841   0.5416     F
O       0.4038   0.8682   0.4255     O
F        0.404   0.5152    0.429     F
O       0.4118   0.6293   0.5429     O
Ga      0.4198  0.58125  0.91799    Ga
Ga     0.42596  0.92055  0.06059    Ga
P       0.4321  0.90707   0.3544     P
P        0.437  0.59057   0.6258     P
O       0.4576   0.6058   0.7663     O
O       0.4589   0.8929   0.2121     O
F       0.4742   0.5295   0.8494     F
O        0.477   0.5082   0.1025     O
F       0.4776   0.9717   0.1313     F
P       0.4786  0.04666   0.3344     P
O       0.4805    0.993   0.8753     O
P       0.4814  0.45188   0.6413     P
Ga     0.48391  0.47561  0.94141    Ga
Ga     0.48608   0.0256  0.03538    Ga
O        0.488   0.5857   0.0595     O
O       0.4933   0.4273   0.0562     O
O       0.4956   0.9169   0.9227     O
O       0.4962   0.4414   0.7885     O
O       0.4993   0.9254   0.4291     O
O       0.4999   0.0586   0.1924     O
O       0.5001   0.9414   0.6924     O
O       0.5007   0.0746   0.9291     O
O       0.5038   0.5586   0.2885     O
O       0.5044   0.0831   0.4227     O
O       0.5067   0.5727   0.5562     O
O        0.512   0.4143   0.5595     O
Ga     0.51392   0.9744  0.53538    Ga
Ga     0.51609  0.52439  0.44141    Ga
P       0.5186  0.54812   0.1413     P
O       0.5195    0.007   0.3753     O
P       0.5214  0.95334   0.8344     P
F       0.5224   0.0283   0.6313     F
O        0.523   0.4918   0.6025     O
F       0.5258   0.4705   0.3494     F
O       0.5411   0.1071   0.7121     O
O       0.5424   0.3942   0.2663     O
P        0.563  0.40943   0.1258     P
P       0.5679  0.09293   0.8544     P
Ga     0.57404  0.07945  0.56059    Ga
Ga      0.5802  0.41875  0.41799    Ga
O       0.5882   0.3707   0.0429     O
F        0.596   0.4848    0.929     F
O       0.5962   0.1318   0.9255     O
F       0.6003   0.0159   0.0416     F
O        0.605   0.5439   0.1162     O
O       0.6077   0.2834    0.091     O
O       0.6082   0.9582    0.848     O
O       0.6128   0.2081   0.0263     O
O       0.6243   0.9705   0.5372     O
O       0.6248   0.1278   0.4921     O
O       0.6277   0.5276   0.4406     O
O       0.6329   0.4386   0.1382     O
O       0.6343   0.0623   0.8343     O
O       0.6364   0.3691   0.4729     O
O       0.6398   0.2288   0.2598     O
O       0.6452   0.2028   0.5262     O
P      0.64975  0.24133   0.1146     P
Ga     0.65626  0.17809  0.87423    Ga
Ga     0.65693   0.4939  0.09414    Ga
O       0.6584   0.2944   0.4411     O
Ga     0.65886  0.33234  0.09885    Ga
Ga     0.65986   0.0075  0.87555    Ga
O       0.6607    0.048   0.5249     O
O       0.6663   0.4512   0.4488     O
P       0.6815  0.15945   0.5473     P
P       0.6869  0.00363   0.5605     P
P       0.6886  0.49631   0.4089     P
P       0.6902  0.33726   0.4115     P
O       0.6947   0.1532   0.6961     O
Ga     0.69969  0.24113  0.42093    Ga
O       0.7022   0.3446   0.2589     O
O       0.7086   0.2298   0.8265     O
O       0.7123   0.4976   0.2617     O
O       0.7161   0.0029   0.7056     O
O       0.7284   0.3416   0.9676     O
O       0.7352   0.2489    0.085     O
O       0.7413   0.5076   0.9953     O
O       0.7441   0.1565   0.9689     O
O       0.7467    0.993   0.9706     O
O       0.7533    0.993   0.4706     O
O       0.7559   0.1565   0.4689     O
O       0.7587   0.5076   0.4953     O
O       0.7648   0.2489    0.585     O
O       0.7716   0.3416   0.4676     O
O       0.7839   0.0029   0.2056     O
O       0.7877   0.4976   0.7617     O
O       0.7914   0.2298   0.3265     O
O       0.7978   0.3446   0.7589     O
Ga     0.80031  0.24113  0.92093    Ga
O       0.8053   0.1532   0.1961     O
P       0.8098  0.33726   0.9115     P
P       0.8114  0.49631   0.9089     P
P       0.8131  0.00363   0.0605     P
P       0.8185  0.15945   0.0473     P
O       0.8337   0.4512   0.9488     O
O       0.8393    0.048   0.0249     O
Ga     0.84014   0.0075  0.37555    Ga
Ga     0.84114  0.33234  0.59885    Ga
O       0.8416   0.2944   0.9411     O
Ga     0.84307   0.4939  0.59414    Ga
Ga     0.84374  0.17809  0.37423    Ga
P      0.85025  0.24133   0.6146     P
O       0.8548   0.2028   0.0262     O
O       0.8602   0.2288   0.7598     O
O       0.8636   0.3691   0.9729     O
O       0.8657   0.0623   0.3343     O
O       0.8671   0.4386   0.6382     O
O       0.8723   0.5276   0.9406     O
O       0.8752   0.1278   0.9921     O
O       0.8757   0.9705   0.0372     O
O       0.8872   0.2081   0.5263     O
O       0.8918   0.9582    0.348     O
O       0.8923   0.2834    0.591     O
O        0.895   0.5439   0.6162     O
F       0.8997   0.0159   0.5416     F
O       0.9038   0.1318   0.4255     O
F        0.904   0.4848    0.429     F
O       0.9118   0.3707   0.5429     O
Ga      0.9198  0.41875  0.91799    Ga
Ga     0.92596  0.07945  0.06059    Ga
P       0.9321  0.09293   0.3544     P
P        0.937  0.40943   0.6258     P
O       0.9576   0.3942   0.7663     O
O       0.9589   0.1071   0.2121     O
F       0.9742   0.4705   0.8494     F
O        0.977   0.4918   0.1025     O
F       0.9776   0.0283   0.1313     F
P       0.9786  0.95334   0.3344     P
O       0.9805    0.007   0.8753     O
P       0.9814  0.54812   0.6413     P
Ga     0.98391  0.52439  0.94141    Ga
Ga     0.98608   0.9744  0.03538    Ga
O        0.988   0.4143   0.0595     O
O       0.9933   0.5727   0.0562     O
O       0.9956   0.0831   0.9227     O
O       0.9962   0.5586   0.7885     O
O       0.9993   0.0746   0.4291     O
O       0.9999   0.9414   0.1924     O
