data_I
_chemical_name_common  '/home/zhangsd/repos/MofS-CGCNN/ML/data/TSD/clean_cifs/MASZOX_clean'
_cell_length_a 15.01860
_cell_length_b 15.01860
_cell_length_c 17.94700
_cell_angle_alpha 94.55080
_cell_angle_beta  94.55080
_cell_angle_gamma 90.28860
_space_group_name_H-M_alt      'P 1'


loop_
_space_group_symop_operation_xyz
  'x, y, z' 

loop_
_atom_site_label
_atom_site_fract_x
_atom_site_fract_y
_atom_site_fract_z
_atom_site_type_symbol
H       0.0002   0.4244   0.1358     H
H       0.0088    0.201   0.5992     H
C         0.01   0.5152   0.8693     C
C       0.0126   0.6402   0.1711     C
C       0.0202     0.18   0.6464     C
C       0.0225   0.9127   0.2623     C
C       0.0303   0.5501   0.1838     C
H       0.0336    0.615    0.325     H
C       0.0345   0.8779   0.3328     C
H       0.0378   0.6864   0.2036     H
C       0.0433   0.3425   0.8909     C
C       0.0499   0.1187    0.783     C
H       0.0547   0.2829   0.8983     H
H       0.0607   0.0995   0.8309     H
C       0.0643   0.4887   0.9284     C
C       0.0721   0.5669   0.3203     C
N       0.0809   0.4015   0.9394     N
H       0.0833   0.8971   0.3654     H
C       0.0836    0.526   0.2519     C
C       0.0873   0.9775   0.2377     C
H        0.091   0.5324   0.9626     H
N        0.094    0.212     0.69     N
H       0.0995   0.0607   0.3309     H
H       0.1029   0.9167   0.1346     H
C       0.1078   0.1798   0.7565     C
H       0.1119   0.5669   0.4302     H
C       0.1184   0.5364   0.3838     C
C       0.1187   0.0499    0.283     C
C       0.1221   0.9655   0.1672     C
S      0.12525  0.35537   0.5449     S
C       0.1402    0.453   0.2495     C
H       0.1489   0.4223   0.2036     H
H       0.1558   0.4222   0.7641     H
H       0.1583   0.1989    0.787     H
S      0.16347  0.26721  0.08949     S
N       0.1717   0.4655   0.3808     N
C       0.1798   0.1078   0.2565     C
C         0.18   0.0202   0.1464     C
C       0.1823   0.4261   0.3125     C
Cu     0.19209  0.28293  0.64081    Cu
Mo      0.1954  0.23302   0.4953    Mo
Cu     0.19786  0.37232   0.0125    Cu
H       0.1989   0.1583    0.287     H
H        0.201   0.0088   0.0992     H
N        0.212    0.094     0.19     N
C       0.2179   0.4229   0.7664     C
H       0.2206   0.3778   0.3085     H
Cu     0.22965  0.40579  0.47253    Cu
H       0.2325   0.5197   0.8499     H
Mo     0.23302   0.1954   0.9953    Mo
I      0.24634  0.51782  0.07039     I
H       0.2524   0.6006   0.5364     H
N       0.2597   0.3649   0.7193     N
C       0.2637   0.4827   0.8173     C
S      0.26721  0.16347  0.58949     S
S      0.28038  0.30004  0.92382     S
H       0.2829   0.0547   0.3983     H
Cu     0.28293  0.19209  0.14081    Cu
S      0.30004  0.28038  0.42382     S
C       0.3066    0.576   0.5524     C
H       0.3127   0.6497   0.8839     H
H       0.3136   0.9622   0.2964     H
N        0.322   0.4932   0.5283     N
H       0.3382   0.3802   0.1868     H
C       0.3425   0.0433   0.3909     C
C       0.3497   0.3723    0.722     C
H       0.3503   0.6873   0.6161     H
C       0.3546    0.488   0.8205     C
S      0.35537  0.12525   0.0449     S
C       0.3598   0.9874   0.3289     C
N       0.3649   0.2597   0.2193     N
C       0.3653   0.6293   0.6002     C
C       0.3707   0.6347   0.8998     C
C       0.3723   0.3497    0.222     C
Cu     0.37232  0.19786   0.5125    Cu
H       0.3778   0.2206   0.8085     H
H       0.3802   0.3382   0.6868     H
H        0.385   0.9664    0.175     H
C       0.3961   0.4263   0.7729     C
H       0.3994   0.7476   0.9636     H
N       0.4015   0.0809   0.4394     N
C       0.4025   0.4613   0.5509     C
H       0.4038    0.417   0.0329     H
Cu     0.40579  0.22965  0.97253    Cu
C       0.4061   0.5519    0.876     C
H        0.417   0.4038   0.5329     H
H       0.4222   0.1558   0.2641     H
H       0.4223   0.1489   0.7036     H
C       0.4229   0.2179   0.2664     C
H       0.4229   0.4581    0.277     H
C        0.424   0.6934   0.9476     C
H       0.4244   0.0002   0.6358     H
C       0.4261   0.1823   0.8125     C
C       0.4263   0.3961   0.2729     C
H       0.4331   0.8881   0.0698     H
C       0.4331   0.9279   0.1797     C
C       0.4481   0.5939    0.624     C
C       0.4499   0.9697   0.3162     C
C        0.453   0.1402   0.7495     C
H       0.4581   0.4229    0.777     H
C       0.4613   0.4025   0.0509     C
C       0.4628   0.5076   0.5977     C
C       0.4636   0.8816   0.1162     C
N       0.4655   0.1717   0.8808     N
H       0.4676    0.909   0.5374     H
C        0.474   0.9164   0.2481     C
H       0.4803   0.7675   0.6501     H
H       0.4804    0.516   0.1129     H
I      0.48218  0.75366  0.42961     I
C       0.4827   0.2637   0.3173     C
H        0.484   0.5196   0.3871     H
C       0.4848     0.99   0.6307     C
C        0.488   0.3546   0.3205     C
C       0.4887   0.0643   0.4284     C
C       0.4924   0.5372   0.9023     C
N       0.4932    0.322   0.0283     N
N       0.5068    0.678   0.9717     N
C       0.5076   0.4628   0.0977     C
C       0.5113   0.9357   0.5716     C
C        0.512   0.6454   0.6795     C
C       0.5152     0.01   0.3693     C
H        0.516   0.4804   0.6129     H
C       0.5173   0.7363   0.6827     C
I      0.51782  0.24634  0.57039     I
H       0.5196    0.484   0.8871     H
H       0.5197   0.2325   0.3499     H
C        0.526   0.0836   0.7519     C
H       0.5324    0.091   0.4626     H
N       0.5345   0.8283   0.1192     N
C       0.5364   0.1184   0.8838     C
C       0.5372   0.4924   0.4023     C
C       0.5387   0.5975   0.9491     C
H       0.5419   0.5771    0.223     H
C        0.547   0.8598   0.2505     C
C       0.5501   0.0303   0.6838     C
C       0.5519   0.4061    0.376     C
C       0.5669   0.0721   0.8203     C
H       0.5669   0.1119   0.9302     H
C       0.5737   0.6039   0.7271     C
C       0.5739   0.8177   0.1875     C
H       0.5756   0.9998   0.3642     H
C        0.576   0.3066   0.0524     C
H       0.5771   0.5419    0.723     H
C       0.5771   0.7821   0.7336     C
H       0.5777   0.8511   0.2964     H
H       0.5778   0.8442   0.7359     H
H        0.583   0.5962   0.4671     H
C       0.5939   0.4481    0.124     C
Cu     0.59421  0.77035  0.02747    Cu
H       0.5962    0.583   0.9671     H
C       0.5975   0.5387   0.4491     C
N       0.5985   0.9191   0.5606     N
H       0.6006   0.2524   0.0364     H
C       0.6039   0.5737   0.2271     C
H        0.615   0.0336    0.825     H
H       0.6198   0.6618   0.3132     H
H       0.6222   0.7794   0.1915     H
Cu     0.62768  0.80214   0.4875    Cu
C       0.6277   0.6503    0.778     C
C       0.6293   0.3653   0.1002     C
C       0.6347   0.3707   0.3998     C
N       0.6351   0.7403   0.7807     N
C       0.6402   0.0126   0.6711     C
S      0.64463  0.87475   0.9551     S
C       0.6454    0.512   0.1795     C
H       0.6497   0.3127   0.3839     H
C       0.6503   0.6277    0.278     C
C       0.6575   0.9567   0.6091     C
H       0.6618   0.6198   0.8132     H
N        0.678   0.5068   0.4717     N
H       0.6864   0.0378   0.7036     H
H       0.6873   0.3503   0.1161     H
C       0.6934    0.424   0.4476     C
S      0.69996  0.71962  0.57618     S
Cu     0.71707  0.80791  0.85919    Cu
H       0.7171   0.9453   0.6017     H
S      0.71962  0.69996  0.07618     S
S      0.73279  0.83653  0.41051     S
C       0.7363   0.5173   0.1827     C
N       0.7403   0.6351   0.2807     N
H       0.7476   0.3994   0.4636     H
I      0.75366  0.48218  0.92961     I
Mo     0.76698   0.8046   0.0047    Mo
H       0.7675   0.4803   0.1501     H
Cu     0.77035  0.59421  0.52747    Cu
H       0.7794   0.6222   0.6915     H
C       0.7821   0.5771   0.2336     C
N        0.788    0.906     0.81     N
H        0.799   0.9912   0.9008     H
H       0.8011   0.8417    0.713     H
Cu     0.80214  0.62768   0.9875    Cu
Mo      0.8046  0.76698   0.5047    Mo
Cu     0.80791  0.71707  0.35919    Cu
C       0.8177   0.5739   0.6875     C
C         0.82   0.9798   0.8536     C
C       0.8202   0.8922   0.7435     C
N       0.8283   0.5345   0.6192     N
S      0.83653  0.73279  0.91051     S
H       0.8417   0.8011    0.213     H
H       0.8442   0.5778   0.2359     H
H       0.8511   0.5777   0.7964     H
C       0.8598    0.547   0.7505     C
S      0.87475  0.64463   0.4551     S
C       0.8779   0.0345   0.8328     C
C       0.8813   0.9501    0.717     C
C       0.8816   0.4636   0.6162     C
H       0.8881   0.4331   0.5698     H
C       0.8922   0.8202   0.2435     C
H       0.8971   0.0833   0.8654     H
H       0.9005   0.9393   0.6691     H
N        0.906    0.788     0.31     N
H        0.909   0.4676   0.0374     H
C       0.9127   0.0225   0.7623     C
C       0.9164    0.474   0.7481     C
H       0.9167   0.1029   0.6346     H
N       0.9191   0.5985   0.0606     N
C       0.9279   0.4331   0.6797     C
C       0.9357   0.5113   0.0716     C
H       0.9393   0.9005   0.1691     H
H       0.9453   0.7171   0.1017     H
C       0.9501   0.8813    0.217     C
C       0.9567   0.6575   0.1091     C
H       0.9622   0.3136   0.7964     H
C       0.9655   0.1221   0.6672     C
H       0.9664    0.385    0.675     H
C       0.9697   0.4499   0.8162     C
C       0.9775   0.0873   0.7377     C
C       0.9798     0.82   0.3536     C
C       0.9874   0.3598   0.8289     C
C         0.99   0.4848   0.1307     C
H       0.9912    0.799   0.4008     H
H       0.9998   0.5756   0.8642     H
