data_I
_chemical_name_common  '/home/zhangsd/repos/MofS-CGCNN/ML/data/TSD/clean_cifs/MATPUV_clean'
_cell_length_a 28.09960
_cell_length_b 13.81220
_cell_length_c 22.46190
_cell_angle_alpha 90.00000
_cell_angle_beta  99.35660
_cell_angle_gamma 90.00000
_space_group_name_H-M_alt      'P 1'


loop_
_space_group_symop_operation_xyz
  'x, y, z' 

loop_
_atom_site_label
_atom_site_fract_x
_atom_site_fract_y
_atom_site_fract_z
_atom_site_type_symbol
O      0.00103  0.46316  0.94259     O
O      0.00103  0.53684  0.44259     O
H       0.0199    0.425   0.5728     H
H       0.0199    0.575   0.0728     H
H       0.0205    0.458    0.918     H
H       0.0205    0.542    0.418     H
Tb      0.0332  0.37557  0.04244    Tb
Tb      0.0332  0.62443  0.54244    Tb
O       0.0483  0.33926  0.48358     O
O       0.0483  0.66074  0.98358     O
O      0.06847  0.33366  0.58423     O
O      0.06847  0.66634  0.08423     O
C      0.07485   0.3139  0.53204     C
C      0.07485   0.6861  0.03204     C
O      0.07807  0.35102  0.21114     O
O      0.07807  0.64898  0.71114     O
O      0.07814   0.4452  0.13037     O
O      0.07814   0.5548  0.63037     O
O      0.08685  0.47749  0.90799     O
O      0.08685  0.52251  0.40799     O
O       0.0935  0.26399  0.07578     O
O       0.0935  0.73601  0.57578     O
C      0.09515   0.4159   0.1823     C
C      0.09515   0.5841   0.6823     C
O      0.09723   0.4472  0.00713     O
O      0.09723   0.5528  0.50713     O
O      0.10156   0.1395  0.01445     O
O      0.10156   0.8605  0.51445     O
C      0.11056   0.4796   0.9599     C
C      0.11056   0.5204   0.4599     C
H       0.1118   0.2583   0.4342     H
H       0.1118   0.7417   0.9342     H
C      0.11407   0.1884  0.06079     C
C      0.11407   0.8116  0.56079     C
C      0.11899   0.2544  0.52526     C
C      0.11899   0.7456  0.02526     C
H       0.1313   0.4053   0.6704     H
H       0.1313   0.5947   0.1704     H
C      0.13164   0.2373  0.46907     C
C      0.13164   0.7627  0.96907     C
H       0.1395   0.2292    0.613     H
H       0.1395   0.7708    0.113     H
C      0.14023   0.4655  0.21329     C
C      0.14023   0.5345  0.71329     C
C      0.14836   0.2187  0.57541     C
C      0.14836   0.7813  0.07541     C
C      0.15075   0.4392  0.70086     C
C      0.15075   0.5608  0.20086     C
C      0.15782   0.1571  0.10442     C
C      0.15782   0.8429  0.60442     C
H       0.1585   0.0205    0.075     H
H       0.1585   0.9795    0.575     H
C       0.1602   0.4757  0.46897     C
C       0.1602   0.5243  0.96897     C
H       0.1655   0.3511   0.2641     H
H       0.1655   0.6489   0.7641     H
H       0.1662   0.4688    0.382     H
H       0.1662   0.5312    0.882     H
H       0.1708   0.4659   0.5603     H
H       0.1708   0.5341   0.0603     H
C      0.17212   0.4154  0.25629     C
C      0.17212   0.5846  0.75629     C
H       0.1732   0.2842   0.1471     H
H       0.1732   0.7158   0.6471     H
C      0.17444   0.1883   0.4654     C
C      0.17444   0.8117   0.9654     C
C      0.17445   0.0629  0.10366     C
C      0.17445   0.9371  0.60366     C
C      0.18251   0.4544  0.42038     C
C      0.18251   0.5456  0.92038     C
C      0.18321   0.2203   0.1456     C
C      0.18321   0.7797   0.6456     C
H       0.1839    0.177   0.4282     H
H       0.1839    0.823   0.9282     H
C      0.18453   0.4523  0.52625     C
C      0.18453   0.5477  0.02625     C
N      0.18926   0.1696  0.57288     N
N      0.18926   0.8304  0.07288     N
C      0.19096   0.3949  0.73481     C
C      0.19096   0.6051  0.23481     C
H       0.1977     0.33   0.7288     H
H       0.1977     0.67   0.2288     H
C      0.20269   0.1568   0.5183     C
C      0.20269   0.8432   0.0183     C
N      0.21221   0.4562  0.28704     N
N      0.21221   0.5438  0.78704     N
N      0.21236   0.0298  0.14223     N
N      0.21236   0.9702  0.64223     N
C      0.22074   0.4493  0.77754     C
C      0.22074   0.5507  0.27754     C
C       0.2231   0.1891  0.18428     C
C       0.2231   0.8109  0.68428     C
Cl     0.22567  0.22787  0.33415    Cl
Cl     0.22567  0.77213  0.83415    Cl
N      0.22626   0.4143  0.42525     N
N      0.22626   0.5857  0.92525     N
C      0.22945   0.4085  0.53204     C
C      0.22945   0.5915  0.03204     C
C      0.23686   0.0926  0.18226     C
C      0.23686   0.9074  0.68226     C
Co     0.23739  0.11682  0.64813    Co
Co     0.23739  0.88318  0.14813    Co
H       0.2407   0.2318   0.2114     H
H       0.2407   0.7682   0.7114     H
H       0.2458    0.391   0.5699     H
H       0.2458    0.609   0.0699     H
C       0.2497   0.3911  0.48072     C
C       0.2497   0.6089  0.98072     C
C       0.2503   0.1089  0.51928     C
C       0.2503   0.8911  0.01928     C
H       0.2542    0.109   0.4301     H
H       0.2542    0.891   0.9301     H
H       0.2593   0.2682   0.7886     H
H       0.2593   0.7318   0.2886     H
Co     0.26261  0.38318  0.35187    Co
Co     0.26261  0.61682  0.85187    Co
C      0.26314   0.4074  0.81774     C
C      0.26314   0.5926  0.31774     C
C      0.27055   0.0915  0.46796     C
C      0.27055   0.9085  0.96796     C
N      0.27374   0.0857  0.57475     N
N      0.27374   0.9143  0.07475     N
Cl     0.27433  0.27213  0.66585    Cl
Cl     0.27433  0.72787  0.16585    Cl
C       0.2769   0.3109  0.81572     C
C       0.2769   0.6891  0.31572     C
C      0.27926   0.0507  0.22246     C
C      0.27926   0.9493  0.72246     C
N      0.28764   0.4702  0.85777     N
N      0.28764   0.5298  0.35777     N
N      0.28779   0.0438  0.71296     N
N      0.28779   0.9562  0.21296     N
C      0.29731   0.3432   0.4817     C
C      0.29731   0.6568   0.9817     C
H       0.3023     0.17   0.2712     H
H       0.3023     0.83   0.7712     H
C      0.30904   0.1051  0.26519     C
C      0.30904   0.8949  0.76519     C
N      0.31074   0.3304  0.42712     N
N      0.31074   0.6696  0.92712     N
C      0.31547   0.0477  0.47375     C
C      0.31547   0.9523  0.97375     C
H       0.3161    0.323   0.5718     H
H       0.3161    0.677   0.0718     H
C      0.31679   0.2797   0.8544     C
C      0.31679   0.7203   0.3544     C
C      0.31749   0.0456  0.57962     C
C      0.31749   0.9544  0.07962     C
C      0.32555   0.4371  0.89634     C
C      0.32555   0.5629  0.39634     C
C      0.32556   0.3117   0.5346     C
C      0.32556   0.6883   0.0346     C
H       0.3268   0.2158   0.8529     H
H       0.3268   0.7842   0.3529     H
C      0.32788   0.0846  0.74371     C
C      0.32788   0.9154  0.24371     C
H       0.3292   0.0341   0.4397     H
H       0.3292   0.9659   0.9397     H
H       0.3338   0.0312    0.618     H
H       0.3338   0.9688    0.118     H
H       0.3345   0.1489   0.7359     H
H       0.3345   0.8511   0.2359     H
C       0.3398   0.0243  0.53103     C
C       0.3398   0.9757  0.03103     C
H       0.3415   0.4795    0.925     H
H       0.3415   0.5205    0.425     H
C      0.34218   0.3429  0.89558     C
C      0.34218   0.6571  0.39558     C
C      0.34925   0.0608  0.29914     C
C      0.34925   0.9392  0.79914     C
C      0.35164   0.2813  0.42459     C
C      0.35164   0.7187  0.92459     C
C      0.35977   0.0345  0.78671     C
C      0.35977   0.9655  0.28671     C
H       0.3605   0.2708    0.387     H
H       0.3605   0.7292    0.887     H
C      0.36836   0.2627  0.53093     C
C      0.36836   0.7373  0.03093     C
H       0.3687   0.0947   0.3296     H
H       0.3687   0.9053   0.8296     H
C      0.38101   0.2456  0.47474     C
C      0.38101   0.7544  0.97474     C
C      0.38593   0.3116  0.93921     C
C      0.38593   0.6884  0.43921     C
H       0.3882   0.2417   0.5658     H
H       0.3882   0.7583   0.0658     H
C      0.38944   0.0204   0.0401     C
C      0.38944   0.9796   0.5401     C
O      0.39844   0.3605  0.98555     O
O      0.39844   0.6395  0.48555     O
O      0.40277   0.0528  0.99287     O
O      0.40277   0.9472  0.49287     O
C      0.40485   0.0841   0.8177     C
C      0.40485   0.9159   0.3177     C
O       0.4065  0.23601  0.92422     O
O       0.4065  0.76399  0.42422     O
O      0.41315  0.02251  0.09201     O
O      0.41315  0.97749  0.59201     O
O      0.42186   0.0548  0.86963     O
O      0.42186   0.9452  0.36963     O
O      0.42193  0.14898  0.78886     O
O      0.42193  0.85102  0.28886     O
C      0.42515   0.1861  0.46796     C
C      0.42515   0.8139  0.96796     C
O      0.43153  0.16634  0.41577     O
O      0.43153  0.83366  0.91577     O
O       0.4517  0.16074  0.51642     O
O       0.4517  0.83926  0.01642     O
Tb      0.4668  0.12443  0.95756    Tb
Tb      0.4668  0.87557  0.45756    Tb
H       0.4795    0.042    0.082     H
H       0.4795    0.958    0.582     H
H       0.4801    0.075   0.4272     H
H       0.4801    0.925   0.9272     H
O      0.49897  0.03684  0.05741     O
O      0.49897  0.96316  0.55741     O
O      0.50103  0.03684  0.44259     O
O      0.50103  0.96316  0.94259     O
H       0.5199    0.075   0.0728     H
H       0.5199    0.925   0.5728     H
H       0.5205    0.042    0.418     H
H       0.5205    0.958    0.918     H
Tb      0.5332  0.12443  0.54244    Tb
Tb      0.5332  0.87557  0.04244    Tb
O       0.5483  0.16074  0.98358     O
O       0.5483  0.83926  0.48358     O
O      0.56847  0.16634  0.08423     O
O      0.56847  0.83366  0.58423     O
C      0.57485   0.1861  0.03204     C
C      0.57485   0.8139  0.53204     C
O      0.57807  0.14898  0.71114     O
O      0.57807  0.85102  0.21114     O
O      0.57814   0.0548  0.63037     O
O      0.57814   0.9452  0.13037     O
O      0.58685  0.02251  0.40799     O
O      0.58685  0.97749  0.90799     O
O       0.5935  0.23601  0.57578     O
O       0.5935  0.76399  0.07578     O
C      0.59515   0.0841   0.6823     C
C      0.59515   0.9159   0.1823     C
O      0.59723   0.0528  0.50713     O
O      0.59723   0.9472  0.00713     O
O      0.60156   0.3605  0.51445     O
O      0.60156   0.6395  0.01445     O
C      0.61056   0.0204   0.4599     C
C      0.61056   0.9796   0.9599     C
H       0.6118   0.2417   0.9342     H
H       0.6118   0.7583   0.4342     H
C      0.61407   0.3116  0.56079     C
C      0.61407   0.6884  0.06079     C
C      0.61899   0.2456  0.02526     C
C      0.61899   0.7544  0.52526     C
H       0.6313   0.0947   0.1704     H
H       0.6313   0.9053   0.6704     H
C      0.63164   0.2627  0.96907     C
C      0.63164   0.7373  0.46907     C
H       0.6395   0.2708    0.113     H
H       0.6395   0.7292    0.613     H
C      0.64023   0.0345  0.71329     C
C      0.64023   0.9655  0.21329     C
C      0.64836   0.2813  0.07541     C
C      0.64836   0.7187  0.57541     C
C      0.65075   0.0608  0.20086     C
C      0.65075   0.9392  0.70086     C
C      0.65782   0.3429  0.60442     C
C      0.65782   0.6571  0.10442     C
H       0.6585   0.4795    0.575     H
H       0.6585   0.5205    0.075     H
C       0.6602   0.0243  0.96897     C
C       0.6602   0.9757  0.46897     C
H       0.6655   0.1489   0.7641     H
H       0.6655   0.8511   0.2641     H
H       0.6662   0.0312    0.882     H
H       0.6662   0.9688    0.382     H
H       0.6708   0.0341   0.0603     H
H       0.6708   0.9659   0.5603     H
C      0.67212   0.0846  0.75629     C
C      0.67212   0.9154  0.25629     C
H       0.6732   0.2158   0.6471     H
H       0.6732   0.7842   0.1471     H
C      0.67444   0.3117   0.9654     C
C      0.67444   0.6883   0.4654     C
C      0.67445   0.4371  0.60366     C
C      0.67445   0.5629  0.10366     C
C      0.68251   0.0456  0.92038     C
C      0.68251   0.9544  0.42038     C
C      0.68321   0.2797   0.6456     C
C      0.68321   0.7203   0.1456     C
H       0.6839    0.323   0.9282     H
H       0.6839    0.677   0.4282     H
C      0.68453   0.0477  0.02625     C
C      0.68453   0.9523  0.52625     C
N      0.68926   0.3304  0.07288     N
N      0.68926   0.6696  0.57288     N
C      0.69096   0.1051  0.23481     C
C      0.69096   0.8949  0.73481     C
H       0.6977     0.17   0.2288     H
H       0.6977     0.83   0.7288     H
C      0.70269   0.3432   0.0183     C
C      0.70269   0.6568   0.5183     C
N      0.71221   0.0438  0.78704     N
N      0.71221   0.9562  0.28704     N
N      0.71236   0.4702  0.64223     N
N      0.71236   0.5298  0.14223     N
C      0.72074   0.0507  0.27754     C
C      0.72074   0.9493  0.77754     C
C       0.7231   0.3109  0.68428     C
C       0.7231   0.6891  0.18428     C
Cl     0.72567  0.27213  0.83415    Cl
Cl     0.72567  0.72787  0.33415    Cl
N      0.72626   0.0857  0.92525     N
N      0.72626   0.9143  0.42525     N
C      0.72945   0.0915  0.03204     C
C      0.72945   0.9085  0.53204     C
C      0.73686   0.4074  0.68226     C
C      0.73686   0.5926  0.18226     C
Co     0.73739  0.38318  0.14813    Co
Co     0.73739  0.61682  0.64813    Co
H       0.7407   0.2682   0.7114     H
H       0.7407   0.7318   0.2114     H
H       0.7458    0.109   0.0699     H
H       0.7458    0.891   0.5699     H
C       0.7497   0.1089  0.98072     C
C       0.7497   0.8911  0.48072     C
C       0.7503   0.3911  0.01928     C
C       0.7503   0.6089  0.51928     C
H       0.7542    0.391   0.9301     H
H       0.7542    0.609   0.4301     H
H       0.7593   0.2318   0.2886     H
H       0.7593   0.7682   0.7886     H
Co     0.76261  0.11682  0.85187    Co
Co     0.76261  0.88318  0.35187    Co
C      0.76314   0.0926  0.31774     C
C      0.76314   0.9074  0.81774     C
C      0.77055   0.4085  0.96796     C
C      0.77055   0.5915  0.46796     C
N      0.77374   0.4143  0.07475     N
N      0.77374   0.5857  0.57475     N
Cl     0.77433  0.22787  0.16585    Cl
Cl     0.77433  0.77213  0.66585    Cl
C       0.7769   0.1891  0.31572     C
C       0.7769   0.8109  0.81572     C
C      0.77926   0.4493  0.72246     C
C      0.77926   0.5507  0.22246     C
N      0.78764   0.0298  0.35777     N
N      0.78764   0.9702  0.85777     N
N      0.78779   0.4562  0.21296     N
N      0.78779   0.5438  0.71296     N
C      0.79731   0.1568   0.9817     C
C      0.79731   0.8432   0.4817     C
H       0.8023     0.33   0.7712     H
H       0.8023     0.67   0.2712     H
C      0.80904   0.3949  0.76519     C
C      0.80904   0.6051  0.26519     C
N      0.81074   0.1696  0.92712     N
N      0.81074   0.8304  0.42712     N
C      0.81547   0.4523  0.97375     C
C      0.81547   0.5477  0.47375     C
H       0.8161    0.177   0.0718     H
H       0.8161    0.823   0.5718     H
C      0.81679   0.2203   0.3544     C
C      0.81679   0.7797   0.8544     C
C      0.81749   0.4544  0.07962     C
C      0.81749   0.5456  0.57962     C
C      0.82555   0.0629  0.39634     C
C      0.82555   0.9371  0.89634     C
C      0.82556   0.1883   0.0346     C
C      0.82556   0.8117   0.5346     C
H       0.8268   0.2842   0.3529     H
H       0.8268   0.7158   0.8529     H
C      0.82788   0.4154  0.24371     C
C      0.82788   0.5846  0.74371     C
H       0.8292   0.4659   0.9397     H
H       0.8292   0.5341   0.4397     H
H       0.8338   0.4688    0.118     H
H       0.8338   0.5312    0.618     H
H       0.8345   0.3511   0.2359     H
H       0.8345   0.6489   0.7359     H
C       0.8398   0.4757  0.03103     C
C       0.8398   0.5243  0.53103     C
H       0.8415   0.0205    0.425     H
H       0.8415   0.9795    0.925     H
C      0.84218   0.1571  0.39558     C
C      0.84218   0.8429  0.89558     C
C      0.84925   0.4392  0.79914     C
C      0.84925   0.5608  0.29914     C
C      0.85164   0.2187  0.92459     C
C      0.85164   0.7813  0.42459     C
C      0.85977   0.4655  0.28671     C
C      0.85977   0.5345  0.78671     C
H       0.8605   0.2292    0.887     H
H       0.8605   0.7708    0.387     H
C      0.86836   0.2373  0.03093     C
C      0.86836   0.7627  0.53093     C
H       0.8687   0.4053   0.8296     H
H       0.8687   0.5947   0.3296     H
C      0.88101   0.2544  0.97474     C
C      0.88101   0.7456  0.47474     C
C      0.88593   0.1884  0.43921     C
C      0.88593   0.8116  0.93921     C
H       0.8882   0.2583   0.0658     H
H       0.8882   0.7417   0.5658     H
C      0.88944   0.4796   0.5401     C
C      0.88944   0.5204   0.0401     C
O      0.89844   0.1395  0.48555     O
O      0.89844   0.8605  0.98555     O
O      0.90277   0.4472  0.49287     O
O      0.90277   0.5528  0.99287     O
C      0.90485   0.4159   0.3177     C
C      0.90485   0.5841   0.8177     C
O       0.9065  0.26399  0.42422     O
O       0.9065  0.73601  0.92422     O
O      0.91315  0.47749  0.59201     O
O      0.91315  0.52251  0.09201     O
O      0.92186   0.4452  0.36963     O
O      0.92186   0.5548  0.86963     O
O      0.92193  0.35102  0.28886     O
O      0.92193  0.64898  0.78886     O
C      0.92515   0.3139  0.96796     C
C      0.92515   0.6861  0.46796     C
O      0.93153  0.33366  0.91577     O
O      0.93153  0.66634  0.41577     O
O       0.9517  0.33926  0.01642     O
O       0.9517  0.66074  0.51642     O
Tb      0.9668  0.37557  0.45756    Tb
Tb      0.9668  0.62443  0.95756    Tb
H       0.9795    0.458    0.582     H
H       0.9795    0.542    0.082     H
H       0.9801    0.425   0.9272     H
H       0.9801    0.575   0.4272     H
O      0.99897  0.46316  0.55741     O
O      0.99897  0.53684  0.05741     O
