data_I
_chemical_name_common  '/home/zhangsd/repos/MofS-CGCNN/ML/data/TSD/clean_cifs/MATPOP_clean'
_cell_length_a 27.99270
_cell_length_b 13.97550
_cell_length_c 22.61840
_cell_angle_alpha 90.00000
_cell_angle_beta  99.52720
_cell_angle_gamma 90.00000
_space_group_name_H-M_alt      'P 1'


loop_
_space_group_symop_operation_xyz
  'x, y, z' 

loop_
_atom_site_label
_atom_site_fract_x
_atom_site_fract_y
_atom_site_fract_z
_atom_site_type_symbol
O      0.00021  0.03716   0.4431     O
O      0.00021  0.96284   0.9431     O
H       0.0214    0.042   0.4224     H
H       0.0214    0.958   0.9224     H
H       0.0228    0.077   0.0747     H
H       0.0228    0.923   0.5747     H
Tb     0.03293  0.12343    0.543    Tb
Tb     0.03293  0.87657    0.043    Tb
O      0.04915  0.15797  0.98235     O
O      0.04915  0.84203  0.48235     O
O      0.06994  0.16354  0.08247     O
O      0.06994  0.83646  0.58247     O
C      0.07587  0.18404  0.03066     C
C      0.07587  0.81596  0.53066     C
O      0.07725  0.14379   0.7117     O
O      0.07725  0.85621   0.2117     O
O      0.07987  0.05438     0.63     O
O      0.07987  0.94562     0.13     O
O      0.08677  0.02548  0.40892     O
O      0.08677  0.97452  0.90892     O
O      0.09156  0.23724  0.57673     O
O      0.09156  0.76276  0.07673     O
C      0.09568  0.08117  0.68257     C
C      0.09568  0.91883  0.18257     C
O      0.09737  0.05455  0.50737     O
O      0.09737  0.94545  0.00737     O
O       0.0984  0.36115  0.51634     O
O       0.0984  0.63885  0.01634     O
C      0.11071  0.02278  0.46099     C
C      0.11071  0.97722  0.96099     C
C      0.11106    0.313   0.5624     C
C      0.11106    0.687   0.0624     C
H       0.1165   0.2345   0.9374     H
H       0.1165   0.7655   0.4374     H
C      0.11946  0.24374  0.02342     C
C      0.11946  0.75626  0.52342     C
C      0.13282  0.26048  0.96807     C
C      0.13282  0.73952  0.46807     C
H       0.1339    0.093   0.1681     H
H       0.1339    0.907   0.6681     H
H       0.1379   0.2697   0.1078     H
H       0.1379   0.7303   0.6078     H
C      0.14124  0.03394   0.7136     C
C      0.14124  0.96606   0.2136     C
C      0.14824  0.28153  0.07341     C
C      0.14824  0.71847  0.57341     C
C      0.15376   0.0588  0.20012     C
C      0.15376   0.9412  0.70012     C
C       0.1546   0.3468  0.60579     C
C       0.1546   0.6532  0.10579     C
H       0.1591    0.476   0.5833     H
H       0.1591    0.524   0.0833     H
C      0.16009  0.02285  0.96942     C
C      0.16009  0.97715  0.46942     C
H       0.1656    0.147   0.7682     H
H       0.1656    0.853   0.2682     H
H        0.168   0.0259   0.8831     H
H        0.168   0.9741   0.3831     H
H       0.1692    0.229     0.65     H
H       0.1692    0.771     0.15     H
H         0.17   0.0273   0.0619     H
H         0.17   0.9727   0.5619     H
C      0.17139   0.4393   0.6054     C
C      0.17139   0.5607   0.1054     C
C      0.17229  0.08257  0.75743     C
C      0.17229  0.91743  0.25743     C
C      0.17506  0.30975  0.96488     C
C      0.17506  0.69025  0.46488     C
C      0.17922   0.2858  0.64829     C
C      0.17922   0.7142  0.14829     C
C       0.1825  0.04348  0.92143     C
C       0.1825  0.95652  0.42143     C
C      0.18432  0.04724  0.02659     C
C      0.18432  0.95276  0.52659     C
H        0.186   0.3133   0.9304     H
H        0.186   0.6867   0.4304     H
N       0.1888   0.3309  0.07111     N
N       0.1888   0.6691  0.57111     N
C      0.19423   0.1006  0.23299     C
C      0.19423   0.8994  0.73299     C
H       0.1999    0.159    0.226     H
H       0.1999    0.841    0.726     H
C      0.20302  0.34302  0.01726     C
C      0.20302  0.65698  0.51726     C
N      0.20955  0.47231  0.64278     N
N      0.20955  0.52769  0.14278     N
N      0.21248    0.044  0.78805     N
N      0.21248    0.956  0.28805     N
C      0.21946   0.3178  0.68651     C
C      0.21946   0.6822  0.18651     C
C      0.22288   0.0481  0.27753     C
C      0.22288   0.9519  0.77753     C
Cl     0.22453  0.27115   0.8342    Cl
Cl     0.22453  0.72885   0.3342    Cl
N      0.22613  0.08443  0.92644     N
N      0.22613  0.91557  0.42644     N
C      0.22898  0.09158  0.03228     C
C      0.22898  0.90842  0.53228     C
C      0.23378   0.4113  0.68296     C
C      0.23378   0.5887  0.18296     C
H       0.2338    0.276   0.7085     H
H       0.2338    0.724   0.2085     H
Zn     0.23709  0.37943  0.14803    Zn
Zn     0.23709  0.62057  0.64803    Zn
H       0.2461   0.1126   0.0716     H
H       0.2461   0.8874   0.5716     H
C      0.24951  0.10881  0.98142     C
C      0.24951  0.89119  0.48142     C
C      0.25049  0.39119  0.01858     C
C      0.25049  0.60881  0.51858     C
H       0.2539   0.3874   0.9284     H
H       0.2539   0.6126   0.4284     H
Zn     0.26291  0.12057  0.85197    Zn
Zn     0.26291  0.87943  0.35197    Zn
H       0.2662    0.224   0.2915     H
H       0.2662    0.776   0.7915     H
C      0.26622   0.0887  0.31704     C
C      0.26622   0.9113  0.81704     C
C      0.27102  0.40842  0.96772     C
C      0.27102  0.59158  0.46772     C
N      0.27387  0.41557  0.07356     N
N      0.27387  0.58443  0.57356     N
Cl     0.27547  0.22885   0.1658    Cl
Cl     0.27547  0.77115   0.6658    Cl
C      0.27712   0.4519  0.72247     C
C      0.27712   0.5481  0.22247     C
C      0.28054   0.1822  0.31349     C
C      0.28054   0.8178  0.81349     C
N      0.28752    0.456  0.21195     N
N      0.28752    0.544  0.71195     N
N      0.29045  0.02769  0.35722     N
N      0.29045  0.97231  0.85722     N
C      0.29698  0.15698  0.98274     C
C      0.29698  0.84302  0.48274     C
H       0.3001    0.341    0.774     H
H       0.3001    0.659    0.274     H
C      0.30577   0.3994  0.76701     C
C      0.30577   0.6006  0.26701     C
N       0.3112   0.1691  0.92889     N
N       0.3112   0.8309  0.42889     N
H        0.314   0.1867   0.0696     H
H        0.314   0.8133   0.5696     H
C      0.31568  0.45276  0.97341     C
C      0.31568  0.54724  0.47341     C
C       0.3175  0.45652  0.07857     C
C       0.3175  0.54348  0.57857     C
C      0.32078   0.2142  0.35171     C
C      0.32078   0.7858  0.85171     C
C      0.32494  0.19025  0.03512     C
C      0.32494  0.80975  0.53512     C
C      0.32771  0.41743  0.24257     C
C      0.32771  0.58257  0.74257     C
C      0.32861   0.0607   0.3946     C
C      0.32861   0.9393   0.8946     C
H         0.33   0.4727   0.9381     H
H         0.33   0.5273   0.4381     H
H       0.3308    0.271     0.35     H
H       0.3308    0.729     0.85     H
H        0.332   0.4741   0.1169     H
H        0.332   0.5259   0.6169     H
H       0.3344    0.353   0.2318     H
H       0.3344    0.647   0.7318     H
C      0.33991  0.47715  0.03058     C
C      0.33991  0.52285  0.53058     C
H       0.3409    0.024   0.4167     H
H       0.3409    0.976   0.9167     H
C       0.3454   0.1532  0.39421     C
C       0.3454   0.8468  0.89421     C
C      0.34624   0.4412  0.79988     C
C      0.34624   0.5588  0.29988     C
C      0.35176  0.21847  0.92659     C
C      0.35176  0.78153  0.42659     C
C      0.35876  0.46606   0.2864     C
C      0.35876  0.53394   0.7864     C
H       0.3621   0.2303   0.8922     H
H       0.3621   0.7697   0.3922     H
H       0.3661    0.407   0.8319     H
H       0.3661    0.593   0.3319     H
C      0.36718  0.23952  0.03193     C
C      0.36718  0.76048  0.53193     C
C      0.38054  0.25626  0.97658     C
C      0.38054  0.74374  0.47658     C
H       0.3835   0.2655   0.0626     H
H       0.3835   0.7345   0.5626     H
C      0.38894    0.187   0.4376     C
C      0.38894    0.813   0.9376     C
C      0.38929  0.47722  0.53901     C
C      0.38929  0.52278  0.03901     C
O       0.4016  0.13885  0.48366     O
O       0.4016  0.86115  0.98366     O
O      0.40263  0.44545  0.49263     O
O      0.40263  0.55455  0.99263     O
C      0.40432  0.41883  0.31743     C
C      0.40432  0.58117  0.81743     C
O      0.40844  0.26276  0.42327     O
O      0.40844  0.73724  0.92327     O
O      0.41323  0.47452  0.59108     O
O      0.41323  0.52548  0.09108     O
O      0.42013  0.44562     0.37     O
O      0.42013  0.55438     0.87     O
O      0.42275  0.35621   0.2883     O
O      0.42275  0.64379   0.7883     O
C      0.42413  0.31596  0.96934     C
C      0.42413  0.68404  0.46934     C
O      0.43006  0.33646  0.91753     O
O      0.43006  0.66354  0.41753     O
O      0.45085  0.34203  0.01765     O
O      0.45085  0.65797  0.51765     O
Tb     0.46707  0.37657    0.457    Tb
Tb     0.46707  0.62343    0.957    Tb
H       0.4772    0.423   0.9253     H
H       0.4772    0.577   0.4253     H
H       0.4786    0.458   0.5776     H
H       0.4786    0.542   0.0776     H
O      0.49979  0.46284   0.5569     O
O      0.49979  0.53716   0.0569     O
O      0.50021  0.46284   0.9431     O
O      0.50021  0.53716   0.4431     O
H       0.5214    0.458   0.9224     H
H       0.5214    0.542   0.4224     H
H       0.5228    0.423   0.5747     H
H       0.5228    0.577   0.0747     H
Tb     0.53293  0.37657    0.043    Tb
Tb     0.53293  0.62343    0.543    Tb
O      0.54915  0.34203  0.48235     O
O      0.54915  0.65797  0.98235     O
O      0.56994  0.33646  0.58247     O
O      0.56994  0.66354  0.08247     O
C      0.57587  0.31596  0.53066     C
C      0.57587  0.68404  0.03066     C
O      0.57725  0.35621   0.2117     O
O      0.57725  0.64379   0.7117     O
O      0.57987  0.44562     0.13     O
O      0.57987  0.55438     0.63     O
O      0.58677  0.47452  0.90892     O
O      0.58677  0.52548  0.40892     O
O      0.59156  0.26276  0.07673     O
O      0.59156  0.73724  0.57673     O
C      0.59568  0.41883  0.18257     C
C      0.59568  0.58117  0.68257     C
O      0.59737  0.44545  0.00737     O
O      0.59737  0.55455  0.50737     O
O       0.5984  0.13885  0.01634     O
O       0.5984  0.86115  0.51634     O
C      0.61071  0.47722  0.96099     C
C      0.61071  0.52278  0.46099     C
C      0.61106    0.187   0.0624     C
C      0.61106    0.813   0.5624     C
H       0.6165   0.2655   0.4374     H
H       0.6165   0.7345   0.9374     H
C      0.61946  0.25626  0.52342     C
C      0.61946  0.74374  0.02342     C
C      0.63282  0.23952  0.46807     C
C      0.63282  0.76048  0.96807     C
H       0.6339    0.407   0.6681     H
H       0.6339    0.593   0.1681     H
H       0.6379   0.2303   0.6078     H
H       0.6379   0.7697   0.1078     H
C      0.64124  0.46606   0.2136     C
C      0.64124  0.53394   0.7136     C
C      0.64824  0.21847  0.57341     C
C      0.64824  0.78153  0.07341     C
C      0.65376   0.4412  0.70012     C
C      0.65376   0.5588  0.20012     C
C       0.6546   0.1532  0.10579     C
C       0.6546   0.8468  0.60579     C
H       0.6591    0.024   0.0833     H
H       0.6591    0.976   0.5833     H
C      0.66009  0.47715  0.46942     C
C      0.66009  0.52285  0.96942     C
H       0.6656    0.353   0.2682     H
H       0.6656    0.647   0.7682     H
H        0.668   0.4741   0.3831     H
H        0.668   0.5259   0.8831     H
H       0.6692    0.271     0.15     H
H       0.6692    0.729     0.65     H
H         0.67   0.4727   0.5619     H
H         0.67   0.5273   0.0619     H
C      0.67139   0.0607   0.1054     C
C      0.67139   0.9393   0.6054     C
C      0.67229  0.41743  0.25743     C
C      0.67229  0.58257  0.75743     C
C      0.67506  0.19025  0.46488     C
C      0.67506  0.80975  0.96488     C
C      0.67922   0.2142  0.14829     C
C      0.67922   0.7858  0.64829     C
C       0.6825  0.45652  0.42143     C
C       0.6825  0.54348  0.92143     C
C      0.68432  0.45276  0.52659     C
C      0.68432  0.54724  0.02659     C
H        0.686   0.1867   0.4304     H
H        0.686   0.8133   0.9304     H
N       0.6888   0.1691  0.57111     N
N       0.6888   0.8309  0.07111     N
C      0.69423   0.3994  0.73299     C
C      0.69423   0.6006  0.23299     C
H       0.6999    0.341    0.726     H
H       0.6999    0.659    0.226     H
C      0.70302  0.15698  0.51726     C
C      0.70302  0.84302  0.01726     C
N      0.70955  0.02769  0.14278     N
N      0.70955  0.97231  0.64278     N
N      0.71248    0.456  0.28805     N
N      0.71248    0.544  0.78805     N
C      0.71946   0.1822  0.18651     C
C      0.71946   0.8178  0.68651     C
C      0.72288   0.4519  0.77753     C
C      0.72288   0.5481  0.27753     C
Cl     0.72453  0.22885   0.3342    Cl
Cl     0.72453  0.77115   0.8342    Cl
N      0.72613  0.41557  0.42644     N
N      0.72613  0.58443  0.92644     N
C      0.72898  0.40842  0.53228     C
C      0.72898  0.59158  0.03228     C
C      0.73378   0.0887  0.18296     C
C      0.73378   0.9113  0.68296     C
H       0.7338    0.224   0.2085     H
H       0.7338    0.776   0.7085     H
Zn     0.73709  0.12057  0.64803    Zn
Zn     0.73709  0.87943  0.14803    Zn
H       0.7461   0.3874   0.5716     H
H       0.7461   0.6126   0.0716     H
C      0.74951  0.39119  0.48142     C
C      0.74951  0.60881  0.98142     C
C      0.75049  0.10881  0.51858     C
C      0.75049  0.89119  0.01858     C
H       0.7539   0.1126   0.4284     H
H       0.7539   0.8874   0.9284     H
Zn     0.76291  0.37943  0.35197    Zn
Zn     0.76291  0.62057  0.85197    Zn
H       0.7662    0.276   0.7915     H
H       0.7662    0.724   0.2915     H
C      0.76622   0.4113  0.81704     C
C      0.76622   0.5887  0.31704     C
C      0.77102  0.09158  0.46772     C
C      0.77102  0.90842  0.96772     C
N      0.77387  0.08443  0.57356     N
N      0.77387  0.91557  0.07356     N
Cl     0.77547  0.27115   0.6658    Cl
Cl     0.77547  0.72885   0.1658    Cl
C      0.77712   0.0481  0.22247     C
C      0.77712   0.9519  0.72247     C
C      0.78054   0.3178  0.81349     C
C      0.78054   0.6822  0.31349     C
N      0.78752    0.044  0.71195     N
N      0.78752    0.956  0.21195     N
N      0.79045  0.47231  0.85722     N
N      0.79045  0.52769  0.35722     N
C      0.79698  0.34302  0.48274     C
C      0.79698  0.65698  0.98274     C
H       0.8001    0.159    0.274     H
H       0.8001    0.841    0.774     H
C      0.80577   0.1006  0.26701     C
C      0.80577   0.8994  0.76701     C
N       0.8112   0.3309  0.42889     N
N       0.8112   0.6691  0.92889     N
H        0.814   0.3133   0.5696     H
H        0.814   0.6867   0.0696     H
C      0.81568  0.04724  0.47341     C
C      0.81568  0.95276  0.97341     C
C       0.8175  0.04348  0.57857     C
C       0.8175  0.95652  0.07857     C
C      0.82078   0.2858  0.85171     C
C      0.82078   0.7142  0.35171     C
C      0.82494  0.30975  0.53512     C
C      0.82494  0.69025  0.03512     C
C      0.82771  0.08257  0.74257     C
C      0.82771  0.91743  0.24257     C
C      0.82861   0.4393   0.8946     C
C      0.82861   0.5607   0.3946     C
H         0.83   0.0273   0.4381     H
H         0.83   0.9727   0.9381     H
H       0.8308    0.229     0.85     H
H       0.8308    0.771     0.35     H
H        0.832   0.0259   0.6169     H
H        0.832   0.9741   0.1169     H
H       0.8344    0.147   0.7318     H
H       0.8344    0.853   0.2318     H
C      0.83991  0.02285  0.53058     C
C      0.83991  0.97715  0.03058     C
H       0.8409    0.476   0.9167     H
H       0.8409    0.524   0.4167     H
C       0.8454   0.3468  0.89421     C
C       0.8454   0.6532  0.39421     C
C      0.84624   0.0588  0.29988     C
C      0.84624   0.9412  0.79988     C
C      0.85176  0.28153  0.42659     C
C      0.85176  0.71847  0.92659     C
C      0.85876  0.03394   0.7864     C
C      0.85876  0.96606   0.2864     C
H       0.8621   0.2697   0.3922     H
H       0.8621   0.7303   0.8922     H
H       0.8661    0.093   0.3319     H
H       0.8661    0.907   0.8319     H
C      0.86718  0.26048  0.53193     C
C      0.86718  0.73952  0.03193     C
C      0.88054  0.24374  0.47658     C
C      0.88054  0.75626  0.97658     C
H       0.8835   0.2345   0.5626     H
H       0.8835   0.7655   0.0626     H
C      0.88894    0.313   0.9376     C
C      0.88894    0.687   0.4376     C
C      0.88929  0.02278  0.03901     C
C      0.88929  0.97722  0.53901     C
O       0.9016  0.36115  0.98366     O
O       0.9016  0.63885  0.48366     O
O      0.90263  0.05455  0.99263     O
O      0.90263  0.94545  0.49263     O
C      0.90432  0.08117  0.81743     C
C      0.90432  0.91883  0.31743     C
O      0.90844  0.23724  0.92327     O
O      0.90844  0.76276  0.42327     O
O      0.91323  0.02548  0.09108     O
O      0.91323  0.97452  0.59108     O
O      0.92013  0.05438     0.87     O
O      0.92013  0.94562     0.37     O
O      0.92275  0.14379   0.7883     O
O      0.92275  0.85621   0.2883     O
C      0.92413  0.18404  0.46934     C
C      0.92413  0.81596  0.96934     C
O      0.93006  0.16354  0.41753     O
O      0.93006  0.83646  0.91753     O
O      0.95085  0.15797  0.51765     O
O      0.95085  0.84203  0.01765     O
Tb     0.96707  0.12343    0.957    Tb
Tb     0.96707  0.87657    0.457    Tb
H       0.9772    0.077   0.4253     H
H       0.9772    0.923   0.9253     H
H       0.9786    0.042   0.0776     H
H       0.9786    0.958   0.5776     H
O      0.99979  0.03716   0.0569     O
O      0.99979  0.96284   0.5569     O
