data_I
_chemical_name_common  '/home/zhangsd/repos/MofS-CGCNN/ML/data/TSD/clean_cifs/MAWFIC_clean'
_cell_length_a 25.68600
_cell_length_b 31.77000
_cell_length_c 25.12900
_cell_angle_alpha 90.00000
_cell_angle_beta  90.00000
_cell_angle_gamma 90.00000
_space_group_name_H-M_alt      'P 1'


loop_
_space_group_symop_operation_xyz
  'x, y, z' 

loop_
_atom_site_label
_atom_site_fract_x
_atom_site_fract_y
_atom_site_fract_z
_atom_site_type_symbol
H       0.0082   0.2066   0.5767     H
H       0.0082   0.7934   0.0767     H
C        0.023    0.283   0.9424     C
C        0.023    0.717   0.4424     C
O       0.0258   0.3201   0.9626     O
O       0.0258   0.6799   0.4626     O
C       0.0283   0.2614   0.5469     C
C       0.0283   0.7386   0.0469     C
C       0.0353    0.221   0.5602     C
C       0.0353    0.779   0.0602     C
O       0.0565   0.2641   0.9175     O
O       0.0565   0.7359   0.4175     O
H       0.0662   0.3105   0.5134     H
H       0.0662   0.6895   0.0134     H
C       0.0687   0.2824   0.5234     C
C       0.0687   0.7176   0.0234     C
O       0.0816   0.4305   0.9016     O
O       0.0816   0.5695   0.4016     O
C       0.0817   0.1998   0.5502     C
C       0.0817   0.8002   0.0502     C
H       0.0859   0.1718   0.5603     H
H       0.0859   0.8282   0.0603     H
Zn     0.09392  0.34684  0.96173    Zn
Zn     0.09392  0.65316  0.46173    Zn
O       0.0987   0.3991   0.9989     O
O       0.0987   0.6009   0.4989     O
Mo     0.10489  0.45597    0.963    Mo
Mo     0.10489  0.54403    0.463    Mo
C       0.1133   0.2593   0.5153     C
C       0.1133   0.7407   0.0153     C
O       0.1135   0.3537   0.8864     O
O       0.1135   0.6463   0.3864     O
O       0.1163   0.1085   0.4704     O
O       0.1163   0.8915   0.9704     O
N       0.1196   0.2203   0.5259     N
N       0.1196   0.7797   0.0259     N
Mo     0.12673  0.40487  0.84472    Mo
Mo     0.12673  0.59513  0.34472    Mo
O       0.1331   0.3484   0.0778     O
O       0.1331   0.6516   0.5778     O
Mo     0.13529  0.40553  0.06939    Mo
Mo     0.13529  0.59447  0.56939    Mo
Mo     0.13532   0.1201  0.40217    Mo
Mo     0.13532   0.8799  0.90217    Mo
H       0.1416   0.2735   0.5008     H
H       0.1416   0.7265   0.0008     H
O        0.144   0.0653   0.3796     O
O        0.144   0.9347   0.8796     O
O       0.1444   0.4964   0.9334     O
O       0.1444   0.5036   0.4334     O
O       0.1445   0.3056   0.9902     O
O       0.1445   0.6944   0.4902     O
O       0.1516   0.4584   0.0268     O
O       0.1516   0.5416   0.5268     O
O       0.1571   0.4607   0.8375     O
O       0.1571   0.5393   0.3375     O
O       0.1579   0.0257   0.4794     O
O       0.1579   0.9743   0.9794     O
O       0.1592   0.2751   0.8891     O
O       0.1592   0.7249   0.3891     O
H       0.1595   0.0242   0.1609     H
H       0.1595   0.9758   0.6609     H
Mo     0.16164  0.07993  0.52642    Mo
Mo     0.16164  0.92007  0.02642    Mo
H       0.1617   0.0504   0.2457     H
H       0.1617   0.9496   0.7457     H
O        0.164   0.1747   0.4274     O
O        0.164   0.8253   0.9274     O
Mo       0.165  0.32773  0.83934    Mo
Mo       0.165  0.67227  0.33934    Mo
O       0.1812   0.0334   0.0537     O
O       0.1812   0.9666   0.5537     O
O       0.1813   0.1372   0.5456     O
O       0.1813   0.8628   0.0456     O
Zn     0.18201  0.18692  0.50137    Zn
Zn     0.18201  0.81308  0.00137    Zn
C       0.1834   0.0449     0.17     C
C       0.1834   0.9551     0.67     C
C       0.1856   0.0606   0.2211     C
C       0.1856   0.9394   0.7211     C
Mo     0.18785  0.30681  0.05378    Mo
Mo     0.18785  0.69319  0.55378    Mo
O       0.1889   0.1382    0.347     O
O       0.1889   0.8618    0.847     O
O       0.1915   0.3827   0.8157     O
O       0.1915   0.6173   0.3157     O
O       0.1944   0.4144   0.1074     O
O       0.1944   0.5856   0.6074     O
Mo      0.1957  0.02305  0.40609    Mo
Mo      0.1957  0.97695  0.90609    Mo
Mo     0.20015  0.27116  0.95956    Mo
Mo     0.20015  0.72884  0.45956    Mo
Mo     0.20492  0.48888   0.8819    Mo
Mo     0.20492  0.51112   0.3819    Mo
Mo     0.20759  0.19747  0.36732    Mo
Mo     0.20759  0.80253  0.86732    Mo
C       0.2189   0.0613   0.1313     C
C       0.2189   0.9387   0.6313     C
N       0.2199   0.0896   0.2374     N
N       0.2199   0.9104   0.7374     N
Zn      0.2203  0.48305  0.02239    Zn
Zn      0.2203  0.51695  0.52239    Zn
C       0.2219   0.0416   0.0775     C
C       0.2219   0.9584   0.5775     C
H       0.2254   0.3724   0.7088     H
H       0.2254   0.6276   0.2088     H
H        0.226    0.393   0.6235     H
H        0.226    0.607   0.1235     H
O       0.2267    0.056   0.5521     O
O       0.2267    0.944   0.0521     O
O       0.2308   0.4662   0.5634     O
O       0.2308   0.5338   0.0634     O
Mo     0.23416  0.10919  0.59101    Mo
Mo     0.23416  0.89081  0.09101    Mo
O       0.2344   0.3363   0.1015     O
O       0.2344   0.6637   0.6015     O
O       0.2356   0.2355    0.413     O
O       0.2356   0.7645    0.913     O
Zn     0.23562  0.09949  0.31447    Zn
Zn     0.23562  0.90051  0.81447    Zn
O       0.2369   0.3081    0.822     O
O       0.2369   0.6919    0.322     O
O       0.2397   0.0445    0.348     O
O       0.2397   0.9555    0.848     O
O       0.2438   0.4939   0.9493     O
O       0.2438   0.5061   0.4493     O
C        0.248    0.406   0.6478     C
C        0.248    0.594   0.1478     C
C       0.2483   0.3937   0.6988     C
C       0.2483   0.6063   0.1988     C
O       0.2493   0.2115   0.5132     O
O       0.2493   0.7885   0.0132     O
O       0.2507   0.2885   0.0132     O
O       0.2507   0.7115   0.5132     O
C       0.2517   0.1063   0.1988     C
C       0.2517   0.8937   0.6988     C
C        0.252    0.094   0.1478     C
C        0.252    0.906   0.6478     C
O       0.2562   0.0061   0.4493     O
O       0.2562   0.9939   0.9493     O
O       0.2603   0.4555    0.848     O
O       0.2603   0.5445    0.348     O
O       0.2631   0.1919    0.322     O
O       0.2631   0.8081    0.822     O
Zn     0.26438  0.40051  0.81447    Zn
Zn     0.26438  0.59949  0.31447    Zn
O       0.2644   0.2645    0.913     O
O       0.2644   0.7355    0.413     O
O       0.2656   0.1637   0.6015     O
O       0.2656   0.8363   0.1015     O
Mo     0.26584  0.39081  0.09101    Mo
Mo     0.26584  0.60919  0.59101    Mo
O       0.2692   0.0338   0.0634     O
O       0.2692   0.9662   0.5634     O
O       0.2733    0.444   0.0521     O
O       0.2733    0.556   0.5521     O
H        0.274    0.107   0.1235     H
H        0.274    0.893   0.6235     H
H       0.2746   0.1276   0.2088     H
H       0.2746   0.8724   0.7088     H
C       0.2781   0.4584   0.5775     C
C       0.2781   0.5416   0.0775     C
Zn      0.2797  0.01695  0.52239    Zn
Zn      0.2797  0.98305  0.02239    Zn
N       0.2801   0.4104   0.7374     N
N       0.2801   0.5896   0.2374     N
C       0.2811   0.4387   0.6313     C
C       0.2811   0.5613   0.1313     C
Mo     0.29241  0.30253  0.86732    Mo
Mo     0.29241  0.69747  0.36732    Mo
Mo     0.29508  0.01112   0.3819    Mo
Mo     0.29508  0.98888   0.8819    Mo
Mo     0.29985  0.22884  0.45956    Mo
Mo     0.29985  0.77116  0.95956    Mo
Mo      0.3043  0.47695  0.90609    Mo
Mo      0.3043  0.52305  0.40609    Mo
O       0.3056   0.0856   0.6074     O
O       0.3056   0.9144   0.1074     O
O       0.3085   0.1173   0.3157     O
O       0.3085   0.8827   0.8157     O
O       0.3111   0.3618    0.847     O
O       0.3111   0.6382    0.347     O
Mo     0.31215  0.19319  0.55378    Mo
Mo     0.31215  0.80681  0.05378    Mo
C       0.3144   0.4394   0.7211     C
C       0.3144   0.5606   0.2211     C
C       0.3166   0.4551     0.67     C
C       0.3166   0.5449     0.17     C
Zn     0.31799  0.31308  0.00137    Zn
Zn     0.31799  0.68692  0.50137    Zn
O       0.3187   0.3628   0.0456     O
O       0.3187   0.6372   0.5456     O
O       0.3188   0.4666   0.5537     O
O       0.3188   0.5334   0.0537     O
Mo       0.335  0.17227  0.33934    Mo
Mo       0.335  0.82773  0.83934    Mo
O        0.336   0.3253   0.9274     O
O        0.336   0.6747   0.4274     O
H       0.3383   0.4496   0.7457     H
H       0.3383   0.5504   0.2457     H
Mo     0.33836  0.42007  0.02642    Mo
Mo     0.33836  0.57993  0.52642    Mo
H       0.3405   0.4758   0.6609     H
H       0.3405   0.5242   0.1609     H
O       0.3408   0.2249   0.3891     O
O       0.3408   0.7751   0.8891     O
O       0.3421   0.4743   0.9794     O
O       0.3421   0.5257   0.4794     O
O       0.3429   0.0393   0.3375     O
O       0.3429   0.9607   0.8375     O
O       0.3484   0.0416   0.5268     O
O       0.3484   0.9584   0.0268     O
O       0.3555   0.1944   0.4902     O
O       0.3555   0.8056   0.9902     O
O       0.3556   0.0036   0.4334     O
O       0.3556   0.9964   0.9334     O
O        0.356   0.4347   0.8796     O
O        0.356   0.5653   0.3796     O
H       0.3584   0.2265   0.0008     H
H       0.3584   0.7735   0.5008     H
Mo     0.36468   0.3799  0.90217    Mo
Mo     0.36468   0.6201  0.40217    Mo
Mo     0.36471  0.09447  0.56939    Mo
Mo     0.36471  0.90553  0.06939    Mo
O       0.3669   0.1516   0.5778     O
O       0.3669   0.8484   0.0778     O
Mo     0.37327  0.09513  0.34472    Mo
Mo     0.37327  0.90487  0.84472    Mo
N       0.3804   0.2797   0.0259     N
N       0.3804   0.7203   0.5259     N
O       0.3837   0.3915   0.9704     O
O       0.3837   0.6085   0.4704     O
O       0.3865   0.1463   0.3864     O
O       0.3865   0.8537   0.8864     O
C       0.3867   0.2407   0.0153     C
C       0.3867   0.7593   0.5153     C
Mo     0.39511  0.04403    0.463    Mo
Mo     0.39511  0.95597    0.963    Mo
O       0.4013   0.1009   0.4989     O
O       0.4013   0.8991   0.9989     O
Zn     0.40608  0.15316  0.46173    Zn
Zn     0.40608  0.84684  0.96173    Zn
H       0.4141   0.3282   0.0603     H
H       0.4141   0.6718   0.5603     H
C       0.4183   0.3002   0.0502     C
C       0.4183   0.6998   0.5502     C
O       0.4184   0.0695   0.4016     O
O       0.4184   0.9305   0.9016     O
C       0.4313   0.2176   0.0234     C
C       0.4313   0.7824   0.5234     C
H       0.4338   0.1895   0.0134     H
H       0.4338   0.8105   0.5134     H
O       0.4435   0.2359   0.4175     O
O       0.4435   0.7641   0.9175     O
C       0.4647    0.279   0.0602     C
C       0.4647    0.721   0.5602     C
C       0.4717   0.2386   0.0469     C
C       0.4717   0.7614   0.5469     C
O       0.4742   0.1799   0.4626     O
O       0.4742   0.8201   0.9626     O
C        0.477    0.217   0.4424     C
C        0.477    0.783   0.9424     C
H       0.4918   0.2934   0.0767     H
H       0.4918   0.7066   0.5767     H
H       0.5082   0.2934   0.4233     H
H       0.5082   0.7066   0.9233     H
C        0.523    0.217   0.0576     C
C        0.523    0.783   0.5576     C
O       0.5258   0.1799   0.0374     O
O       0.5258   0.8201   0.5374     O
C       0.5283   0.2386   0.4531     C
C       0.5283   0.7614   0.9531     C
C       0.5353    0.279   0.4398     C
C       0.5353    0.721   0.9398     C
O       0.5565   0.2359   0.0825     O
O       0.5565   0.7641   0.5825     O
H       0.5662   0.1895   0.4866     H
H       0.5662   0.8105   0.9866     H
C       0.5687   0.2176   0.4766     C
C       0.5687   0.7824   0.9766     C
O       0.5816   0.0695   0.0984     O
O       0.5816   0.9305   0.5984     O
C       0.5817   0.3002   0.4498     C
C       0.5817   0.6998   0.9498     C
H       0.5859   0.3282   0.4397     H
H       0.5859   0.6718   0.9397     H
Zn     0.59392  0.15316  0.03827    Zn
Zn     0.59392  0.84684  0.53827    Zn
O       0.5987   0.1009   0.0011     O
O       0.5987   0.8991   0.5011     O
Mo     0.60489  0.04403    0.037    Mo
Mo     0.60489  0.95597    0.537    Mo
C       0.6133   0.2407   0.4847     C
C       0.6133   0.7593   0.9847     C
O       0.6135   0.1463   0.1136     O
O       0.6135   0.8537   0.6136     O
O       0.6163   0.3915   0.5296     O
O       0.6163   0.6085   0.0296     O
N       0.6196   0.2797   0.4741     N
N       0.6196   0.7203   0.9741     N
Mo     0.62673  0.09513  0.15528    Mo
Mo     0.62673  0.90487  0.65528    Mo
O       0.6331   0.1516   0.9222     O
O       0.6331   0.8484   0.4222     O
Mo     0.63529  0.09447  0.93061    Mo
Mo     0.63529  0.90553  0.43061    Mo
Mo     0.63532   0.3799  0.59783    Mo
Mo     0.63532   0.6201  0.09783    Mo
H       0.6416   0.2265   0.4992     H
H       0.6416   0.7735   0.9992     H
O        0.644   0.4347   0.6204     O
O        0.644   0.5653   0.1204     O
O       0.6444   0.0036   0.0666     O
O       0.6444   0.9964   0.5666     O
O       0.6445   0.1944   0.0098     O
O       0.6445   0.8056   0.5098     O
O       0.6516   0.0416   0.9732     O
O       0.6516   0.9584   0.4732     O
O       0.6571   0.0393   0.1625     O
O       0.6571   0.9607   0.6625     O
O       0.6579   0.4743   0.5206     O
O       0.6579   0.5257   0.0206     O
O       0.6592   0.2249   0.1109     O
O       0.6592   0.7751   0.6109     O
H       0.6595   0.4758   0.8391     H
H       0.6595   0.5242   0.3391     H
Mo     0.66164  0.42007  0.47358    Mo
Mo     0.66164  0.57993  0.97358    Mo
H       0.6617   0.4496   0.7543     H
H       0.6617   0.5504   0.2543     H
O        0.664   0.3253   0.5726     O
O        0.664   0.6747   0.0726     O
Mo       0.665  0.17227  0.16066    Mo
Mo       0.665  0.82773  0.66066    Mo
O       0.6812   0.4666   0.9463     O
O       0.6812   0.5334   0.4463     O
O       0.6813   0.3628   0.4544     O
O       0.6813   0.6372   0.9544     O
Zn     0.68201  0.31308  0.49863    Zn
Zn     0.68201  0.68692  0.99863    Zn
C       0.6834   0.4551     0.83     C
C       0.6834   0.5449     0.33     C
C       0.6856   0.4394   0.7789     C
C       0.6856   0.5606   0.2789     C
Mo     0.68785  0.19319  0.94622    Mo
Mo     0.68785  0.80681  0.44622    Mo
O       0.6889   0.3618    0.653     O
O       0.6889   0.6382    0.153     O
O       0.6915   0.1173   0.1843     O
O       0.6915   0.8827   0.6843     O
O       0.6944   0.0856   0.8926     O
O       0.6944   0.9144   0.3926     O
Mo      0.6957  0.47695  0.59391    Mo
Mo      0.6957  0.52305  0.09391    Mo
Mo     0.70015  0.22884  0.04044    Mo
Mo     0.70015  0.77116  0.54044    Mo
Mo     0.70492  0.01112   0.1181    Mo
Mo     0.70492  0.98888   0.6181    Mo
Mo     0.70759  0.30253  0.63268    Mo
Mo     0.70759  0.69747  0.13268    Mo
C       0.7189   0.4387   0.8687     C
C       0.7189   0.5613   0.3687     C
N       0.7199   0.4104   0.7626     N
N       0.7199   0.5896   0.2626     N
Zn      0.7203  0.01695  0.97761    Zn
Zn      0.7203  0.98305  0.47761    Zn
C       0.7219   0.4584   0.9225     C
C       0.7219   0.5416   0.4225     C
H       0.7254   0.1276   0.2912     H
H       0.7254   0.8724   0.7912     H
H        0.726    0.107   0.3765     H
H        0.726    0.893   0.8765     H
O       0.7267    0.444   0.4479     O
O       0.7267    0.556   0.9479     O
O       0.7308   0.0338   0.4366     O
O       0.7308   0.9662   0.9366     O
Mo     0.73416  0.39081  0.40899    Mo
Mo     0.73416  0.60919  0.90899    Mo
O       0.7344   0.1637   0.8985     O
O       0.7344   0.8363   0.3985     O
O       0.7356   0.2645    0.587     O
O       0.7356   0.7355    0.087     O
Zn     0.73562  0.40051  0.68553    Zn
Zn     0.73562  0.59949  0.18553    Zn
O       0.7369   0.1919    0.178     O
O       0.7369   0.8081    0.678     O
O       0.7397   0.4555    0.652     O
O       0.7397   0.5445    0.152     O
O       0.7438   0.0061   0.0507     O
O       0.7438   0.9939   0.5507     O
C        0.748    0.094   0.3522     C
C        0.748    0.906   0.8522     C
C       0.7483   0.1063   0.3012     C
C       0.7483   0.8937   0.8012     C
O       0.7493   0.2885   0.4868     O
O       0.7493   0.7115   0.9868     O
O       0.7507   0.2115   0.9868     O
O       0.7507   0.7885   0.4868     O
C       0.7517   0.3937   0.8012     C
C       0.7517   0.6063   0.3012     C
C        0.752    0.406   0.8522     C
C        0.752    0.594   0.3522     C
O       0.7562   0.4939   0.5507     O
O       0.7562   0.5061   0.0507     O
O       0.7603   0.0445    0.152     O
O       0.7603   0.9555    0.652     O
O       0.7631   0.3081    0.678     O
O       0.7631   0.6919    0.178     O
Zn     0.76438  0.09949  0.18553    Zn
Zn     0.76438  0.90051  0.68553    Zn
O       0.7644   0.2355    0.087     O
O       0.7644   0.7645    0.587     O
O       0.7656   0.3363   0.3985     O
O       0.7656   0.6637   0.8985     O
Mo     0.76584  0.10919  0.90899    Mo
Mo     0.76584  0.89081  0.40899    Mo
O       0.7692   0.4662   0.9366     O
O       0.7692   0.5338   0.4366     O
O       0.7733    0.056   0.9479     O
O       0.7733    0.944   0.4479     O
H        0.774    0.393   0.8765     H
H        0.774    0.607   0.3765     H
H       0.7746   0.3724   0.7912     H
H       0.7746   0.6276   0.2912     H
C       0.7781   0.0416   0.4225     C
C       0.7781   0.9584   0.9225     C
Zn      0.7797  0.48305  0.47761    Zn
Zn      0.7797  0.51695  0.97761    Zn
N       0.7801   0.0896   0.2626     N
N       0.7801   0.9104   0.7626     N
C       0.7811   0.0613   0.3687     C
C       0.7811   0.9387   0.8687     C
Mo     0.79241  0.19747  0.13268    Mo
Mo     0.79241  0.80253  0.63268    Mo
Mo     0.79508  0.48888   0.6181    Mo
Mo     0.79508  0.51112   0.1181    Mo
Mo     0.79985  0.27116  0.54044    Mo
Mo     0.79985  0.72884  0.04044    Mo
Mo      0.8043  0.02305  0.09391    Mo
Mo      0.8043  0.97695  0.59391    Mo
O       0.8056   0.4144   0.3926     O
O       0.8056   0.5856   0.8926     O
O       0.8085   0.3827   0.6843     O
O       0.8085   0.6173   0.1843     O
O       0.8111   0.1382    0.153     O
O       0.8111   0.8618    0.653     O
Mo     0.81215  0.30681  0.44622    Mo
Mo     0.81215  0.69319  0.94622    Mo
C       0.8144   0.0606   0.2789     C
C       0.8144   0.9394   0.7789     C
C       0.8166   0.0449     0.33     C
C       0.8166   0.9551     0.83     C
Zn     0.81799  0.18692  0.99863    Zn
Zn     0.81799  0.81308  0.49863    Zn
O       0.8187   0.1372   0.9544     O
O       0.8187   0.8628   0.4544     O
O       0.8188   0.0334   0.4463     O
O       0.8188   0.9666   0.9463     O
Mo       0.835  0.32773  0.66066    Mo
Mo       0.835  0.67227  0.16066    Mo
O        0.836   0.1747   0.0726     O
O        0.836   0.8253   0.5726     O
H       0.8383   0.0504   0.2543     H
H       0.8383   0.9496   0.7543     H
Mo     0.83836  0.07993  0.97358    Mo
Mo     0.83836  0.92007  0.47358    Mo
H       0.8405   0.0242   0.3391     H
H       0.8405   0.9758   0.8391     H
O       0.8408   0.2751   0.6109     O
O       0.8408   0.7249   0.1109     O
O       0.8421   0.0257   0.0206     O
O       0.8421   0.9743   0.5206     O
O       0.8429   0.4607   0.6625     O
O       0.8429   0.5393   0.1625     O
O       0.8484   0.4584   0.4732     O
O       0.8484   0.5416   0.9732     O
O       0.8555   0.3056   0.5098     O
O       0.8555   0.6944   0.0098     O
O       0.8556   0.4964   0.5666     O
O       0.8556   0.5036   0.0666     O
O        0.856   0.0653   0.1204     O
O        0.856   0.9347   0.6204     O
H       0.8584   0.2735   0.9992     H
H       0.8584   0.7265   0.4992     H
Mo     0.86468   0.1201  0.09783    Mo
Mo     0.86468   0.8799  0.59783    Mo
Mo     0.86471  0.40553  0.43061    Mo
Mo     0.86471  0.59447  0.93061    Mo
O       0.8669   0.3484   0.4222     O
O       0.8669   0.6516   0.9222     O
Mo     0.87327  0.40487  0.65528    Mo
Mo     0.87327  0.59513  0.15528    Mo
N       0.8804   0.2203   0.9741     N
N       0.8804   0.7797   0.4741     N
O       0.8837   0.1085   0.0296     O
O       0.8837   0.8915   0.5296     O
O       0.8865   0.3537   0.6136     O
O       0.8865   0.6463   0.1136     O
C       0.8867   0.2593   0.9847     C
C       0.8867   0.7407   0.4847     C
Mo     0.89511  0.45597    0.537    Mo
Mo     0.89511  0.54403    0.037    Mo
O       0.9013   0.3991   0.5011     O
O       0.9013   0.6009   0.0011     O
Zn     0.90608  0.34684  0.53827    Zn
Zn     0.90608  0.65316  0.03827    Zn
H       0.9141   0.1718   0.9397     H
H       0.9141   0.8282   0.4397     H
C       0.9183   0.1998   0.9498     C
C       0.9183   0.8002   0.4498     C
O       0.9184   0.4305   0.5984     O
O       0.9184   0.5695   0.0984     O
C       0.9313   0.2824   0.9766     C
C       0.9313   0.7176   0.4766     C
H       0.9338   0.3105   0.9866     H
H       0.9338   0.6895   0.4866     H
O       0.9435   0.2641   0.5825     O
O       0.9435   0.7359   0.0825     O
C       0.9647    0.221   0.9398     C
C       0.9647    0.779   0.4398     C
C       0.9717   0.2614   0.9531     C
C       0.9717   0.7386   0.4531     C
O       0.9742   0.3201   0.5374     O
O       0.9742   0.6799   0.0374     O
C        0.977    0.283   0.5576     C
C        0.977    0.717   0.0576     C
H       0.9918   0.2066   0.9233     H
H       0.9918   0.7934   0.4233     H
