data_I
_chemical_name_common  '/home/zhangsd/repos/MofS-CGCNN/ML/data/TSD/clean_cifs/MAXHAW_clean'
_cell_length_a  8.71150
_cell_length_b 10.43160
_cell_length_c 10.88380
_cell_angle_alpha 90.00000
_cell_angle_beta  90.00000
_cell_angle_gamma 90.00000
_space_group_name_H-M_alt      'P 1'


loop_
_space_group_symop_operation_xyz
  'x, y, z' 

loop_
_atom_site_label
_atom_site_fract_x
_atom_site_fract_y
_atom_site_fract_z
_atom_site_type_symbol
La     0.00787  0.60152  0.38736    La
H       0.0289     0.12   0.5039     H
H       0.0323   0.5387   0.8853     H
C        0.036    0.928   0.4706     C
C       0.0452   0.0442   0.5521     C
O       0.0457   0.8087   0.5447     O
H       0.1348   0.7969   0.5661     H
H       0.1446    0.048   0.5899     H
O       0.1528   0.5044   0.2173     O
P       0.1556   0.4167   0.1058     P
O       0.1572     0.07   0.9345     O
O       0.1721   0.7866   0.2997     O
O       0.1758   0.2759   0.1404     O
O       0.1795   0.0288   0.2695     O
P       0.1944   0.9187  0.36069     P
O       0.2236   0.5409   0.5141     O
O       0.2764   0.4591   0.0141     O
P       0.3056   0.0813  0.86069     P
O       0.3205   0.9712   0.7695     O
O       0.3242   0.7241   0.6404     O
O       0.3279   0.2134   0.7997     O
O       0.3428     0.93   0.4345     O
P       0.3444   0.5833   0.6058     P
O       0.3472   0.4956   0.7173     O
H       0.3554    0.952   0.0899     H
H       0.3652   0.2031   0.0661     H
O       0.4543   0.1913   0.0447     O
C       0.4548   0.9558   0.0521     C
C        0.464    0.072   0.9706     C
H       0.4677   0.4613   0.3853     H
H       0.4711     0.88   0.0039     H
La     0.49213  0.39848  0.88736    La
La     0.50787  0.89848  0.61264    La
H       0.5289     0.38   0.4961     H
H       0.5323   0.9613   0.1147     H
C        0.536    0.572   0.5294     C
C       0.5452   0.4558   0.4479     C
O       0.5457   0.6913   0.4553     O
H       0.6348   0.7031   0.4339     H
H       0.6446    0.452   0.4101     H
O       0.6528   0.9956   0.7827     O
P       0.6556   0.0833   0.8942     P
O       0.6572     0.43   0.0655     O
O       0.6721   0.7134   0.7003     O
O       0.6758   0.2241   0.8596     O
O       0.6795   0.4712   0.7305     O
P       0.6944   0.5813  0.63931     P
O       0.7236   0.9591   0.4859     O
O       0.7764   0.0409   0.9859     O
P       0.8056   0.4187  0.13931     P
O       0.8205   0.5288   0.2305     O
O       0.8242   0.7759   0.3596     O
O       0.8279   0.2866   0.2003     O
O       0.8428     0.57   0.5655     O
P       0.8444   0.9167   0.3942     P
O       0.8472   0.0044   0.2827     O
H       0.8554    0.548   0.9101     H
H       0.8652   0.2969   0.9339     H
O       0.9543   0.3087   0.9553     O
C       0.9548   0.5442   0.9479     C
C        0.964    0.428   0.0294     C
H       0.9677   0.0387   0.6147     H
H       0.9711     0.62   0.9961     H
La     0.99213  0.10152  0.11264    La
