data_I
_chemical_name_common  '/home/zhangsd/repos/MofS-CGCNN/ML/data/TSD/clean_cifs/MAXHIE_clean'
_cell_length_a  8.65440
_cell_length_b 10.38090
_cell_length_c 10.76460
_cell_angle_alpha 90.00000
_cell_angle_beta  90.00000
_cell_angle_gamma 90.00000
_space_group_name_H-M_alt      'P 1'


loop_
_space_group_symop_operation_xyz
  'x, y, z' 

loop_
_atom_site_label
_atom_site_fract_x
_atom_site_fract_y
_atom_site_fract_z
_atom_site_type_symbol
Pr      0.0072  0.60153  0.11346    Pr
H       0.0254   0.1194   0.9931     H
C       0.0322   0.9253   0.0304     C
H       0.0384   0.5363   0.6172     H
C       0.0406   0.0425   0.9451     C
O       0.0428   0.8049    0.955     O
H        0.131   0.8018   0.9213     H
H       0.1401   0.0455   0.9059     H
O       0.1546   0.5029   0.2792     O
P       0.1576   0.4143   0.3925     P
O       0.1584   0.0708   0.5635     O
O       0.1709   0.7847   0.1974     O
O       0.1751   0.2744   0.3568     O
O       0.1772   0.0279   0.2307     O
P       0.1934   0.9184   0.1382     P
O       0.2195   0.5448   0.9844     O
O       0.2805   0.4552   0.4844     O
P       0.3066   0.0816   0.6382     P
O       0.3228   0.9721   0.7307     O
O       0.3249   0.7256   0.8568     O
O       0.3291   0.2153   0.6974     O
O       0.3416   0.9292   0.0635     O
P       0.3424   0.5857   0.8925     P
O       0.3454   0.4971   0.7792     O
H       0.3599   0.9545   0.4059     H
H        0.369   0.1982   0.4213     H
O       0.4572   0.1951    0.455     O
C       0.4594   0.9575   0.4451     C
H       0.4616   0.4637   0.1172     H
C       0.4678   0.0747   0.5304     C
H       0.4746   0.8806   0.4931     H
Pr      0.4928  0.39847  0.61346    Pr
Pr      0.5072  0.89847  0.88654    Pr
H       0.5254   0.3806   0.0069     H
C       0.5322   0.5747   0.9696     C
H       0.5384   0.9637   0.3828     H
C       0.5406   0.4575   0.0549     C
O       0.5428   0.6951    0.045     O
H        0.631   0.6982   0.0787     H
H       0.6401   0.4545   0.0941     H
O       0.6546   0.9971   0.7208     O
P       0.6576   0.0857   0.6075     P
O       0.6584   0.4292   0.4365     O
O       0.6709   0.7153   0.8026     O
O       0.6751   0.2256   0.6432     O
O       0.6772   0.4721   0.7693     O
P       0.6934   0.5816   0.8618     P
O       0.7195   0.9552   0.0156     O
O       0.7805   0.0448   0.5156     O
P       0.8066   0.4184   0.3618     P
O       0.8228   0.5279   0.2693     O
O       0.8249   0.7744   0.1432     O
O       0.8291   0.2847   0.3026     O
O       0.8416   0.5708   0.9365     O
P       0.8424   0.9143   0.1075     P
O       0.8454   0.0029   0.2208     O
H       0.8599   0.5455   0.5941     H
H        0.869   0.3018   0.5787     H
O       0.9572   0.3049    0.545     O
C       0.9594   0.5425   0.5549     C
H       0.9616   0.0363   0.8828     H
C       0.9678   0.4253   0.4696     C
H       0.9746   0.6194   0.5069     H
Pr      0.9928  0.10153  0.38654    Pr
