data_I
_chemical_name_common  '/home/zhangsd/repos/MofS-CGCNN/ML/data/TSD/clean_cifs/MAXHUQ_clean'
_cell_length_a 10.38480
_cell_length_b  8.34200
_cell_length_c 10.57740
_cell_angle_alpha 90.00000
_cell_angle_beta  90.00000
_cell_angle_gamma 90.00000
_space_group_name_H-M_alt      'P 1'


loop_
_space_group_symop_operation_xyz
  'x, y, z' 

loop_
_atom_site_label
_atom_site_fract_x
_atom_site_fract_y
_atom_site_fract_z
_atom_site_type_symbol
O       0.0317   0.0688   0.3172     O
O       0.0317   0.4312   0.3172     O
H       0.0563   0.1672   0.5893     H
H       0.0563   0.3328   0.5893     H
O       0.0577     0.25   0.5424     O
H       0.1259     0.75   0.0002     H
Sm     0.13925     0.75  0.62059    Sm
P       0.1678   0.0673   0.3731     P
P       0.1678   0.4327   0.3731     P
C       0.1794     0.25    0.467     C
O       0.1884   0.5694    0.463     O
O       0.1884   0.9306    0.463     O
H       0.1994   0.6524   0.0996     H
H       0.1994   0.8476   0.0996     H
C        0.202     0.75    0.052     C
O       0.2292   0.5727    0.771     O
O       0.2292   0.9273    0.771     O
O       0.2708   0.0727    0.271     O
O       0.2708   0.4273    0.271     O
C        0.298     0.25    0.552     C
H       0.3006   0.1524   0.5996     H
H       0.3006   0.3476   0.5996     H
O       0.3116   0.0694    0.963     O
O       0.3116   0.4306    0.963     O
C       0.3206     0.75    0.967     C
P       0.3322   0.5673   0.8731     P
P       0.3322   0.9327   0.8731     P
Sm     0.36075     0.25  0.12059    Sm
H       0.3741     0.25   0.5002     H
O       0.4423     0.75   0.0424     O
H       0.4437   0.6672   0.0893     H
H       0.4437   0.8328   0.0893     H
O       0.4683   0.5688   0.8172     O
O       0.4683   0.9312   0.8172     O
O       0.5317   0.0688   0.1828     O
O       0.5317   0.4312   0.1828     O
H       0.5563   0.1672   0.9107     H
H       0.5563   0.3328   0.9107     H
O       0.5577     0.25   0.9576     O
H       0.6259     0.75   0.4998     H
Sm     0.63925     0.75  0.87941    Sm
P       0.6678   0.0673   0.1269     P
P       0.6678   0.4327   0.1269     P
C       0.6794     0.25    0.033     C
O       0.6884   0.5694    0.037     O
O       0.6884   0.9306    0.037     O
H       0.6994   0.6524   0.4004     H
H       0.6994   0.8476   0.4004     H
C        0.702     0.75    0.448     C
O       0.7292   0.5727    0.729     O
O       0.7292   0.9273    0.729     O
O       0.7708   0.0727    0.229     O
O       0.7708   0.4273    0.229     O
C        0.798     0.25    0.948     C
H       0.8006   0.1524   0.9004     H
H       0.8006   0.3476   0.9004     H
O       0.8116   0.0694    0.537     O
O       0.8116   0.4306    0.537     O
C       0.8206     0.75    0.533     C
P       0.8322   0.5673   0.6269     P
P       0.8322   0.9327   0.6269     P
Sm     0.86075     0.25  0.37941    Sm
H       0.8741     0.25   0.9998     H
O       0.9423     0.75   0.4576     O
H       0.9437   0.6672   0.4107     H
H       0.9437   0.8328   0.4107     H
O       0.9683   0.5688   0.6828     O
O       0.9683   0.9312   0.6828     O
