data_I
_chemical_name_common  '/home/zhangsd/repos/MofS-CGCNN/ML/data/TSD/clean_cifs/MAXJOM_clean'
_cell_length_a 10.25650
_cell_length_b  8.28920
_cell_length_c 10.45950
_cell_angle_alpha 90.00000
_cell_angle_beta  90.00000
_cell_angle_gamma 90.00000
_space_group_name_H-M_alt      'P 1'


loop_
_space_group_symop_operation_xyz
  'x, y, z' 

loop_
_atom_site_label
_atom_site_fract_x
_atom_site_fract_y
_atom_site_fract_z
_atom_site_type_symbol
H       0.0066   0.1832   0.9829     H
H       0.0066   0.3168   0.9829     H
O       0.0292   0.0695   0.1823     O
O       0.0292   0.4305   0.1823     O
O       0.0576     0.25   0.9539     O
H       0.1233     0.75   0.4964     H
Dy        0.14     0.75  0.87978    Dy
P       0.1673   0.0669   0.1261     P
P       0.1673   0.4331   0.1261     P
C       0.1789     0.25   0.0315     C
O       0.1885   0.5712   0.0365     O
O       0.1885   0.9288   0.0365     O
H       0.1971   0.6522   0.3947     H
H       0.1971   0.8478   0.3947     H
C          0.2     0.75    0.444     C
O       0.2291   0.5749   0.7299     O
O       0.2291   0.9251   0.7299     O
O       0.2709   0.0749   0.2299     O
O       0.2709   0.4251   0.2299     O
C          0.3     0.25    0.944     C
H       0.3029   0.1522   0.8947     H
H       0.3029   0.3478   0.8947     H
O       0.3115   0.0712   0.5365     O
O       0.3115   0.4288   0.5365     O
C       0.3211     0.75   0.5315     C
P       0.3327   0.5669   0.6261     P
P       0.3327   0.9331   0.6261     P
Dy        0.36     0.25  0.37978    Dy
H       0.3767     0.25   0.9964     H
O       0.4424     0.75   0.4539     O
O       0.4708   0.5695   0.6823     O
O       0.4708   0.9305   0.6823     O
H       0.4934   0.6832   0.4829     H
H       0.4934   0.8168   0.4829     H
H       0.5066   0.1832   0.5171     H
H       0.5066   0.3168   0.5171     H
O       0.5292   0.0695   0.3177     O
O       0.5292   0.4305   0.3177     O
O       0.5576     0.25   0.5461     O
H       0.6233     0.75   0.0036     H
Dy        0.64     0.75  0.62022    Dy
P       0.6673   0.0669   0.3739     P
P       0.6673   0.4331   0.3739     P
C       0.6789     0.25   0.4685     C
O       0.6885   0.5712   0.4635     O
O       0.6885   0.9288   0.4635     O
H       0.6971   0.6522   0.1053     H
H       0.6971   0.8478   0.1053     H
C          0.7     0.75    0.056     C
O       0.7291   0.5749   0.7701     O
O       0.7291   0.9251   0.7701     O
O       0.7709   0.0749   0.2701     O
O       0.7709   0.4251   0.2701     O
C          0.8     0.25    0.556     C
H       0.8029   0.1522   0.6053     H
H       0.8029   0.3478   0.6053     H
O       0.8115   0.0712   0.9635     O
O       0.8115   0.4288   0.9635     O
C       0.8211     0.75   0.9685     C
P       0.8327   0.5669   0.8739     P
P       0.8327   0.9331   0.8739     P
Dy        0.86     0.25  0.12022    Dy
H       0.8767     0.25   0.5036     H
O       0.9424     0.75   0.0461     O
O       0.9708   0.5695   0.8177     O
O       0.9708   0.9305   0.8177     O
H       0.9934   0.6832   0.0171     H
H       0.9934   0.8168   0.0171     H
