data_I
_chemical_name_common  '/home/zhangsd/repos/MofS-CGCNN/ML/data/TSD/clean_cifs/MAXJAY_clean'
_cell_length_a 10.35130
_cell_length_b  8.32640
_cell_length_c 10.55840
_cell_angle_alpha 90.00000
_cell_angle_beta  90.00000
_cell_angle_gamma 90.00000
_space_group_name_H-M_alt      'P 1'


loop_
_space_group_symop_operation_xyz
  'x, y, z' 

loop_
_atom_site_label
_atom_site_fract_x
_atom_site_fract_y
_atom_site_fract_z
_atom_site_type_symbol
H       0.0069   0.1809   0.5142     H
H       0.0069   0.3191   0.5142     H
O       0.0314   0.0699   0.3181     O
O       0.0314   0.4301   0.3181     O
O       0.0593     0.25   0.5437     O
H       0.1254     0.75   0.9997     H
Eu     0.13959     0.75  0.62058    Eu
P       0.1675   0.0672   0.3732     P
P       0.1675   0.4328   0.3732     P
C        0.178     0.25   0.4668     C
O       0.1889   0.5695   0.4627     O
O       0.1889   0.9305   0.4627     O
H       0.2008   0.6561   0.1045     H
H       0.2008   0.8439   0.1045     H
C        0.201     0.75   0.0521     C
O       0.2291    0.574   0.7709     O
O       0.2291    0.926   0.7709     O
O       0.2709    0.074   0.2709     O
O       0.2709    0.426   0.2709     O
C        0.299     0.25   0.5521     C
H       0.2992   0.1561   0.6045     H
H       0.2992   0.3439   0.6045     H
O       0.3111   0.0695   0.9627     O
O       0.3111   0.4305   0.9627     O
C        0.322     0.75   0.9668     C
P       0.3325   0.5672   0.8732     P
P       0.3325   0.9328   0.8732     P
Eu     0.36041     0.25  0.12058    Eu
H       0.3746     0.25   0.4997     H
O       0.4407     0.75   0.0437     O
O       0.4686   0.5699   0.8181     O
O       0.4686   0.9301   0.8181     O
H       0.4931   0.6809   0.0142     H
H       0.4931   0.8191   0.0142     H
H       0.5069   0.1809   0.9858     H
H       0.5069   0.3191   0.9858     H
O       0.5314   0.0699   0.1819     O
O       0.5314   0.4301   0.1819     O
O       0.5593     0.25   0.9563     O
H       0.6254     0.75   0.5003     H
Eu     0.63959     0.75  0.87942    Eu
P       0.6675   0.0672   0.1268     P
P       0.6675   0.4328   0.1268     P
C        0.678     0.25   0.0332     C
O       0.6889   0.5695   0.0373     O
O       0.6889   0.9305   0.0373     O
H       0.7008   0.6561   0.3955     H
H       0.7008   0.8439   0.3955     H
C        0.701     0.75   0.4479     C
O       0.7291    0.574   0.7291     O
O       0.7291    0.926   0.7291     O
O       0.7709    0.074   0.2291     O
O       0.7709    0.426   0.2291     O
C        0.799     0.25   0.9479     C
H       0.7992   0.1561   0.8955     H
H       0.7992   0.3439   0.8955     H
O       0.8111   0.0695   0.5373     O
O       0.8111   0.4305   0.5373     O
C        0.822     0.75   0.5332     C
P       0.8325   0.5672   0.6268     P
P       0.8325   0.9328   0.6268     P
Eu     0.86041     0.25  0.37942    Eu
H       0.8746     0.25   0.0003     H
O       0.9407     0.75   0.4563     O
O       0.9686   0.5699   0.6819     O
O       0.9686   0.9301   0.6819     O
H       0.9931   0.6809   0.4858     H
H       0.9931   0.8191   0.4858     H
