data_I
_chemical_name_common  '/home/zhangsd/repos/MofS-CGCNN/ML/data/TSD/clean_cifs/MEFZUU_manual'
_cell_length_a 38.14280
_cell_length_b 38.14280
_cell_length_c 39.24560
_cell_angle_alpha 66.47770
_cell_angle_beta  66.47800
_cell_angle_gamma 100.29500
_space_group_name_H-M_alt      'P 1'


loop_
_space_group_symop_operation_xyz
  'x, y, z' 

loop_
_atom_site_label
_atom_site_fract_x
_atom_site_fract_y
_atom_site_fract_z
_atom_site_type_symbol
Mn         0.0      0.0     0.25    Mn
Mn         0.0      0.0     0.75    Mn
Mn         0.0     0.25     0.25    Mn
Mn         0.0     0.25     0.75    Mn
Mn         0.0      0.5     0.25    Mn
Mn         0.0      0.5     0.75    Mn
Mn         0.0     0.75     0.25    Mn
Mn         0.0     0.75     0.75    Mn
Cl     0.00158  0.19219  0.30623    Cl
Cl     0.00158  0.69219  0.30623    Cl
O      0.00252  0.18553  0.04715     O
O      0.00252  0.18553  0.54715     O
O      0.00252  0.68553  0.04715     O
O      0.00252  0.68553  0.54715     O
C      0.00753  0.20003  0.19294     C
C      0.00753  0.20003  0.69294     C
C      0.00753  0.70003  0.19294     C
C      0.00753  0.70003  0.69294     C
O      0.00879  0.06122  0.20629     O
O      0.00879  0.06122  0.70629     O
O      0.00879  0.56122  0.20629     O
O      0.00879  0.56122  0.70629     O
H       0.0104   0.1267   0.2055     H
H       0.0104   0.1267   0.7055     H
H       0.0104   0.6267   0.2055     H
H       0.0104   0.6267   0.7055     H
C      0.01048  0.18059  0.16633     C
C      0.01048  0.18059  0.66633     C
C      0.01048  0.68059  0.16633     C
C      0.01048  0.68059  0.66633     C
C      0.01075  0.14105   0.1798     C
C      0.01075  0.14105   0.6798     C
C      0.01075  0.64105   0.1798     C
C      0.01075  0.64105   0.6798     C
C      0.01115  0.20635   0.0625     C
C      0.01115  0.20635   0.5625     C
C      0.01115  0.70635   0.0625     C
C      0.01115  0.70635   0.5625     C
C      0.01141  0.12292  0.15587     C
C      0.01141  0.12292  0.65587     C
C      0.01141  0.62292  0.15587     C
C      0.01141  0.62292  0.65587     C
C       0.0117     0.08   0.1708     C
C       0.0117     0.08   0.6708     C
C       0.0117     0.58   0.1708     C
C       0.0117     0.58   0.6708     C
C      0.01193  0.20193  0.12754     C
C      0.01193  0.20193  0.62754     C
C      0.01193  0.70193  0.12754     C
C      0.01193  0.70193  0.62754     C
Mn     0.01213  0.01213  0.14617    Mn
Mn     0.01213  0.01213  0.64617    Mn
Mn     0.01213  0.51213  0.14617    Mn
Mn     0.01213  0.51213  0.64617    Mn
C      0.01215  0.14405   0.1177     C
C      0.01215  0.14405   0.6177     C
C      0.01215  0.64405   0.1177     C
C      0.01215  0.64405   0.6177     C
C      0.01227  0.18388  0.10315     C
C      0.01227  0.18388  0.60315     C
C      0.01227  0.68388  0.10315     C
C      0.01227  0.68388  0.60315     C
H      0.01255  0.13165   0.1014     H
H      0.01255  0.13165   0.6014     H
H      0.01255  0.22875   0.1178     H
H      0.01255  0.22875   0.6178     H
H      0.01255  0.63165   0.1014     H
H      0.01255  0.63165   0.6014     H
H      0.01255  0.72875   0.1178     H
H      0.01255  0.72875   0.6178     H
O      0.01335  0.06595    0.147     O
O      0.01335  0.06595    0.647     O
O      0.01335  0.56595    0.147     O
O      0.01335  0.56595    0.647     O
Mn     0.01458  0.29276      0.0    Mn
Mn     0.01458  0.29276      0.5    Mn
Mn     0.01458  0.79276      0.0    Mn
Mn     0.01458  0.79276      0.5    Mn
O       0.0181  0.24411  0.04809     O
O       0.0181  0.24411  0.54809     O
O       0.0181  0.74411  0.04809     O
O       0.0181  0.74411  0.54809     O
C      0.03204  0.30766    0.276     C
C      0.03204  0.30766    0.776     C
C      0.03204  0.80766    0.276     C
C      0.03204  0.80766    0.776     C
N       0.0412   0.2912     0.25     N
N       0.0412   0.2912     0.75     N
N       0.0412   0.7912     0.25     N
N       0.0412   0.7912     0.75     N
Cl      0.0415  0.35295      0.0    Cl
Cl      0.0415  0.35295      0.5    Cl
Cl      0.0415  0.85295      0.0    Cl
Cl      0.0415  0.85295      0.5    Cl
C      0.04404  0.22638  0.18438     C
C      0.04404  0.22638  0.68438     C
C      0.04404  0.72638  0.18438     C
C      0.04404  0.72638  0.68438     C
N      0.04738  0.24918  0.20344     N
N      0.04738  0.24918  0.70344     N
N      0.04738  0.74918  0.20344     N
N      0.04738  0.74918  0.70344     N
O      0.04968  0.23267  0.45285     O
O      0.04968  0.23267  0.95285     O
O      0.04968  0.73267  0.45285     O
O      0.04968  0.73267  0.95285     O
O      0.06122   0.0088  0.20629     O
O      0.06122   0.0088  0.70629     O
O      0.06122   0.5088  0.20629     O
O      0.06122   0.5088  0.70629     O
O      0.06595  0.01335    0.147     O
O      0.06595  0.01335    0.647     O
O      0.06595  0.51335    0.147     O
O      0.06595  0.51335    0.647     O
O      0.06619   0.2922  0.45191     O
O      0.06619   0.2922  0.95191     O
O      0.06619   0.7922  0.45191     O
O      0.06619   0.7922  0.95191     O
C      0.07005  0.33555    0.266     C
C      0.07005  0.33555    0.766     C
C      0.07005  0.83555    0.266     C
C      0.07005  0.83555    0.766     C
H      0.07235  0.35055   0.2793     H
H      0.07235  0.35055   0.7793     H
H      0.07235  0.85055   0.2793     H
H      0.07235  0.85055   0.7793     H
C      0.07365  0.26885   0.4375     C
C      0.07365  0.26885   0.9375     C
C      0.07365  0.76885   0.4375     C
C      0.07365  0.76885   0.9375     C
C         0.08   0.0117   0.1708     C
C         0.08   0.0117   0.6708     C
C         0.08   0.5117   0.1708     C
C         0.08   0.5117   0.6708     C
C      0.08366  0.30804    0.224     C
C      0.08366  0.30804    0.724     C
C      0.08366  0.80804    0.224     C
C      0.08366  0.80804    0.724     C
C      0.08535  0.23465   0.1524     C
C      0.08535  0.23465   0.6524     C
C      0.08535  0.73465   0.1524     C
C      0.08535  0.73465   0.6524     C
C      0.08924  0.27158  0.18438     C
C      0.08924  0.27158  0.68438     C
C      0.08924  0.77158  0.18438     C
C      0.08924  0.77158  0.68438     C
H       0.0918   0.2231    0.135     H
H       0.0918   0.2231    0.635     H
H       0.0918   0.7231    0.135     H
H       0.0918   0.7231    0.635     H
C      0.10155  0.33605    0.234     C
C      0.10155  0.33605    0.734     C
C      0.10155  0.83605    0.234     C
C      0.10155  0.83605    0.734     C
C      0.10703  0.29953  0.19294     C
C      0.10703  0.29953  0.69294     C
C      0.10703  0.79953  0.19294     C
C      0.10703  0.79953  0.69294     C
C      0.11295  0.26225   0.1524     C
C      0.11295  0.26225   0.6524     C
C      0.11295  0.76225   0.1524     C
C      0.11295  0.76225   0.6524     C
H      0.11395  0.23305   0.3986     H
H      0.11395  0.23305   0.8986     H
H      0.11395  0.73305   0.3986     H
H      0.11395  0.73305   0.8986     H
C      0.11543  0.28703  0.39685     C
C      0.11543  0.28703  0.89685     C
C      0.11543  0.78703  0.39685     C
C      0.11543  0.78703  0.89685     C
C      0.12292  0.01141  0.15587     C
C      0.12292  0.01141  0.65587     C
C      0.12292  0.51141  0.15587     C
C      0.12292  0.51141  0.65587     C
H       0.1267   0.0104   0.2055     H
H       0.1267   0.0104   0.7055     H
H       0.1267   0.5104   0.2055     H
H       0.1267   0.5104   0.7055     H
C      0.12985  0.26175   0.3823     C
C      0.12985  0.26175   0.8823     C
H      0.12985  0.35165   0.2207     H
H      0.12985  0.35165   0.7207     H
C      0.12985  0.76175   0.3823     C
C      0.12985  0.76175   0.8823     C
H      0.12985  0.85165   0.2207     H
H      0.12985  0.85165   0.7207     H
H      0.13035  0.34655   0.3822     H
H      0.13035  0.34655   0.8822     H
H      0.13035  0.84655   0.3822     H
H      0.13035  0.84655   0.8822     H
H      0.13165  0.01255   0.1014     H
H      0.13165  0.01255   0.6014     H
H      0.13165  0.51255   0.1014     H
H      0.13165  0.51255   0.6014     H
C      0.13947  0.32947  0.37246     C
C      0.13947  0.32947  0.87246     C
C      0.13947  0.82947  0.37246     C
C      0.13947  0.82947  0.87246     C
C      0.14105  0.01075   0.1798     C
C      0.14105  0.01075   0.6798     C
C      0.14105  0.51075   0.1798     C
C      0.14105  0.51075   0.6798     C
H       0.1419   0.2732    0.135     H
H       0.1419   0.2732    0.635     H
H       0.1419   0.7732    0.135     H
H       0.1419   0.7732    0.635     H
C      0.14405  0.01215   0.1177     C
C      0.14405  0.01215   0.6177     C
C      0.14405  0.51215   0.1177     C
C      0.14405  0.51215   0.6177     C
Cl     0.14705   0.4585      0.0    Cl
Cl     0.14705   0.4585      0.5    Cl
Cl     0.14705   0.9585      0.0    Cl
Cl     0.14705   0.9585      0.5    Cl
H      0.14835  0.37015   0.2793     H
H      0.14835  0.37015   0.7793     H
H      0.14835  0.87015   0.2793     H
H      0.14835  0.87015   0.7793     H
H      0.14945  0.42765   0.2207     H
H      0.14945  0.42765   0.7207     H
H      0.14945  0.92765   0.2207     H
H      0.14945  0.92765   0.7207     H
C      0.15309  0.32319  0.16633     C
C      0.15309  0.32319  0.66633     C
C      0.15309  0.82319  0.16633     C
C      0.15309  0.82319  0.66633     C
H      0.15345  0.36965   0.1178     H
H      0.15345  0.36965   0.6178     H
H      0.15345  0.86965   0.1178     H
H      0.15345  0.86965   0.6178     H
Mn      0.1583   0.1583  0.35383    Mn
Mn      0.1583   0.1583  0.85383    Mn
Mn      0.1583   0.6583  0.35383    Mn
Mn      0.1583   0.6583  0.85383    Mn
O      0.16035  0.21295    0.353     O
O      0.16035  0.21295    0.853     O
O      0.16035  0.71295    0.353     O
O      0.16035  0.71295    0.853     O
C      0.16395  0.39845    0.266     C
C      0.16395  0.39845    0.766     C
C      0.16395  0.89845    0.266     C
C      0.16395  0.89845    0.766     C
C      0.16445  0.42995    0.234     C
C      0.16445  0.42995    0.734     C
C      0.16445  0.92995    0.234     C
C      0.16445  0.92995    0.734     C
C      0.16729  0.27879  0.34413     C
C      0.16729  0.27879  0.84413     C
C      0.16729  0.77879  0.34413     C
C      0.16729  0.77879  0.84413     C
H       0.1678   0.2841   0.2055     H
H       0.1678   0.2841   0.7055     H
H       0.1678   0.7841   0.2055     H
H       0.1678   0.7841   0.7055     H
C      0.17053  0.36053  0.12754     C
C      0.17053  0.36053  0.62754     C
C      0.17053  0.86053  0.12754     C
C      0.17053  0.86053  0.62754     C
C      0.17682  0.34692  0.33367     C
C      0.17682  0.34692  0.83367     C
C      0.17682  0.84692  0.33367     C
C      0.17682  0.84692  0.83367     C
C      0.17915  0.30945   0.1798     C
C      0.17915  0.30945   0.6798     C
C      0.17915  0.80945   0.1798     C
C      0.17915  0.80945   0.6798     C
C      0.18059  0.01049  0.16633     C
C      0.18059  0.01049  0.66633     C
C      0.18059  0.51049  0.16633     C
C      0.18059  0.51049  0.66633     C
C       0.1825   0.2508   0.3292     C
C       0.1825   0.2508   0.8292     C
C       0.1825   0.7508   0.3292     C
C       0.1825   0.7508   0.8292     C
C      0.18388  0.01227  0.10315     C
C      0.18388  0.01227  0.60315     C
C      0.18388  0.51227  0.10315     C
C      0.18388  0.51227  0.60315     C
O      0.18553  0.00252  0.04715     O
O      0.18553  0.00252  0.54715     O
O      0.18553  0.50253  0.04715     O
O      0.18553  0.50253  0.54715     O
C      0.19055  0.32085   0.3202     C
C      0.19055  0.32085   0.8202     C
C      0.19055  0.82085   0.3202     C
C      0.19055  0.82085   0.8202     C
C      0.19196  0.41634    0.276     C
C      0.19196  0.41634    0.776     C
C      0.19196  0.91634    0.276     C
C      0.19196  0.91634    0.776     C
Cl     0.19219  0.00158  0.30623    Cl
Cl     0.19219  0.50158  0.80623    Cl
C      0.19234  0.46796    0.224     C
C      0.19234  0.46796    0.724     C
C      0.19234  0.96796    0.224     C
C      0.19234  0.96796    0.724     C
C      0.20003  0.00753  0.19294     C
C      0.20003  0.00753  0.69294     C
C      0.20003  0.50753  0.19294     C
C      0.20003  0.50753  0.69294     C
C      0.20047  0.39297  0.30706     C
C      0.20047  0.39297  0.80706     C
C      0.20047  0.89297  0.30706     C
C      0.20047  0.89297  0.80706     C
C      0.20193  0.01193  0.12754     C
C      0.20193  0.01193  0.62754     C
C      0.20193  0.51193  0.12754     C
C      0.20193  0.51193  0.62754     C
C      0.20635  0.01115   0.0625     C
C      0.20635  0.01115   0.5625     C
C      0.20635  0.51115   0.0625     C
C      0.20635  0.51115   0.5625     C
Mn     0.20725  0.48542      0.0    Mn
Mn     0.20725  0.48542      0.5    Mn
Mn     0.20725  0.98542      0.0    Mn
Mn     0.20725  0.98542      0.5    Mn
O       0.2078  0.43381  0.04809     O
O       0.2078  0.43381  0.54809     O
O       0.2078  0.93381  0.04809     O
O       0.2078  0.93381  0.54809     O
N       0.2088   0.4588     0.25     N
N       0.2088   0.4588     0.75     N
N       0.2088   0.9588     0.25     N
N       0.2088   0.9588     0.75     N
O      0.21295  0.16035    0.353     O
O      0.21295  0.16035    0.853     O
O      0.21295  0.66035    0.353     O
O      0.21295  0.66035    0.853     O
C      0.21298  0.38458  0.10315     C
C      0.21298  0.38458  0.60315     C
C      0.21298  0.88458  0.10315     C
C      0.21298  0.88458  0.60315     C
O      0.21509  0.26751  0.29371     O
O      0.21509  0.26751  0.79371     O
O      0.21509  0.76751  0.29371     O
O      0.21509  0.76751  0.79371     O
H       0.2159   0.3322   0.2945     H
H       0.2159   0.3322   0.7945     H
H       0.2159   0.8322   0.2945     H
H       0.2159   0.8322   0.7945     H
C      0.22122  0.33271  0.15587     C
C      0.22122  0.33271  0.65587     C
C      0.22122  0.83272  0.15587     C
C      0.22122  0.83272  0.65587     C
H       0.2231   0.0918    0.135     H
H       0.2231   0.0918    0.635     H
H       0.2231   0.5918    0.135     H
H       0.2231   0.5918    0.635     H
C      0.22638  0.04404  0.18438     C
C      0.22638  0.04404  0.68438     C
C      0.22638  0.54404  0.18438     C
C      0.22638  0.54404  0.68438     C
H       0.2268   0.3581    0.365     H
H       0.2268   0.3581    0.865     H
H       0.2268   0.8581    0.365     H
H       0.2268   0.8581    0.865     H
C      0.22842  0.41076  0.31562     C
C      0.22842  0.41076  0.81562     C
C      0.22842  0.91076  0.31562     C
C      0.22842  0.91076  0.81562     C
H      0.22875  0.01255   0.1178     H
H      0.22875  0.01255   0.6178     H
H      0.22875  0.51255   0.1178     H
H      0.22875  0.51255   0.6178     H
C      0.23115  0.42635   0.0625     C
C      0.23115  0.42635   0.5625     C
C      0.23115  0.92635   0.0625     C
C      0.23115  0.92635   0.5625     C
O       0.2325  0.28492  0.20629     O
O       0.2325  0.28492  0.70629     O
O       0.2325  0.78492  0.20629     O
O       0.2325  0.78492  0.70629     O
O      0.23268  0.04967  0.45285     O
O      0.23268  0.04967  0.95285     O
O      0.23268  0.54967  0.45285     O
O      0.23268  0.54967  0.95285     O
H      0.23305  0.11395   0.3986     H
H      0.23305  0.11395   0.8986     H
H      0.23305  0.61395   0.3986     H
H      0.23305  0.61395   0.8986     H
C      0.23465  0.08535   0.1524     C
C      0.23465  0.08535   0.6524     C
C      0.23465  0.58535   0.1524     C
C      0.23465  0.58535   0.6524     C
C      0.23775  0.38705   0.3476     C
C      0.23775  0.38705   0.8476     C
C      0.23775  0.88705   0.3476     C
C      0.23775  0.88705   0.8476     C
C      0.23825  0.37015   0.1177     C
C      0.23825  0.37015   0.6177     C
C      0.23825  0.87015   0.1177     C
C      0.23825  0.87015   0.6177     C
O      0.24411   0.0181  0.04809     O
O      0.24411   0.0181  0.54809     O
O      0.24411   0.5181  0.04809     O
O      0.24411   0.5181  0.54809     O
N      0.24918  0.04738  0.20344     N
N      0.24918  0.04738  0.70344     N
N      0.24918  0.54738  0.20344     N
N      0.24918  0.54738  0.70344     N
C       0.2492   0.3175   0.1708     C
C       0.2492   0.3175   0.6708     C
C       0.2492   0.8175   0.1708     C
C       0.2492   0.8175   0.6708     C
Mn        0.25     -0.0     0.25    Mn
Mn        0.25     -0.0     0.75    Mn
Mn        0.25     0.25     0.25    Mn
Mn        0.25     0.25     0.75    Mn
Mn        0.25      0.5     0.25    Mn
Mn        0.25      0.5     0.75    Mn
Mn        0.25     0.75     0.25    Mn
Mn        0.25     0.75     0.75    Mn
C       0.2508   0.1825   0.3292     C
C       0.2508   0.1825   0.8292     C
C       0.2508   0.6825   0.3292     C
C       0.2508   0.6825   0.8292     C
N      0.25082  0.45262  0.29656     N
N      0.25082  0.45262  0.79656     N
N      0.25082  0.95262  0.29656     N
N      0.25082  0.95262  0.79656     N
O      0.25589   0.4819  0.45191     O
O      0.25589   0.4819  0.95191     O
O      0.25589   0.9819  0.45191     O
O      0.25589   0.9819  0.95191     O
C      0.26175  0.12985   0.3823     C
C      0.26175  0.12985   0.8823     C
C      0.26175  0.62985   0.3823     C
C      0.26175  0.62985   0.8823     C
C      0.26225  0.11295   0.1524     C
C      0.26225  0.11295   0.6524     C
C      0.26225  0.61295   0.1524     C
C      0.26225  0.61295   0.6524     C
C      0.26535  0.41465   0.3476     C
C      0.26535  0.41465   0.8476     C
C      0.26535  0.91465   0.3476     C
C      0.26535  0.91465   0.8476     C
H      0.26695  0.38605   0.1014     H
H      0.26695  0.38605   0.6014     H
H      0.26695  0.88605   0.1014     H
H      0.26695  0.88605   0.6014     H
O      0.26733  0.45033  0.04715     O
O      0.26733  0.45033  0.54715     O
O      0.26733  0.95033  0.04715     O
O      0.26733  0.95033  0.54715     O
O      0.26751  0.21509  0.29371     O
O      0.26751  0.21509  0.79371     O
O      0.26751  0.71509  0.29371     O
O      0.26751  0.71509  0.79371     O
C      0.26885  0.07365   0.4375     C
C      0.26885  0.07365   0.9375     C
C      0.26885  0.57365   0.4375     C
C      0.26885  0.57365   0.9375     C
H      0.27125  0.48745   0.3822     H
H      0.27125  0.48745   0.8822     H
H      0.27125  0.98745   0.3822     H
H      0.27125  0.98745   0.8822     H
C      0.27158  0.08924  0.18438     C
C      0.27158  0.08924  0.68438     C
C      0.27158  0.58924  0.18438     C
C      0.27158  0.58924  0.68438     C
H       0.2732   0.1419    0.135     H
H       0.2732   0.1419    0.635     H
H       0.2732   0.6419    0.135     H
H       0.2732   0.6419    0.635     H
C      0.27362  0.45596  0.31562     C
C      0.27362  0.45596  0.81562     C
C      0.27362  0.95596  0.31562     C
C      0.27362  0.95596  0.81562     C
H       0.2769   0.4082    0.365     H
H       0.2769   0.4082    0.865     H
H       0.2769   0.9082    0.365     H
H       0.2769   0.9082    0.865     H
C      0.27879  0.16729  0.34413     C
C      0.27879  0.16729  0.84413     C
C      0.27879  0.66729  0.34413     C
C      0.27879  0.66729  0.84413     C
H       0.2841   0.1678   0.2055     H
H       0.2841   0.1678   0.7055     H
H       0.2841   0.6678   0.2055     H
H       0.2841   0.6678   0.7055     H
O      0.28492   0.2325  0.20629     O
O      0.28492   0.2325  0.70629     O
O      0.28492   0.7325  0.20629     O
O      0.28492   0.7325  0.70629     O
C      0.28703  0.11543  0.39685     C
C      0.28703  0.11543  0.89685     C
C      0.28703  0.61543  0.39685     C
C      0.28703  0.61543  0.89685     C
O      0.28705  0.33965    0.147     O
O      0.28705  0.33965    0.647     O
O      0.28705  0.83965    0.147     O
O      0.28705  0.83965    0.647     O
N       0.2912   0.0412     0.25     N
N       0.2912   0.0412     0.75     N
N       0.2912   0.5412     0.25     N
N       0.2912   0.5412     0.75     N
O       0.2922  0.06619  0.45191     O
O       0.2922  0.06619  0.95191     O
O       0.2922  0.56619  0.45191     O
O       0.2922  0.56619  0.95191     O
Mn     0.29276  0.01458      0.0    Mn
Mn     0.29276  0.01458      0.5    Mn
Mn     0.29276  0.51458      0.0    Mn
Mn     0.29276  0.51458      0.5    Mn
C      0.29365  0.48885   0.4375     C
C      0.29365  0.48885   0.9375     C
C      0.29365  0.98885   0.4375     C
C      0.29365  0.98885   0.9375     C
C      0.29807  0.48807  0.37246     C
C      0.29807  0.48807  0.87246     C
C      0.29807  0.98807  0.37246     C
C      0.29807  0.98807  0.87246     C
C      0.29953  0.10703  0.19294     C
C      0.29953  0.10703  0.69294     C
C      0.29953  0.60703  0.19294     C
C      0.29953  0.60703  0.69294     C
C      0.29997  0.49247  0.30706     C
C      0.29997  0.49247  0.80706     C
C      0.29997  0.99247  0.30706     C
C      0.29997  0.99247  0.80706     C
C      0.30766  0.03204    0.276     C
C      0.30766  0.03204    0.776     C
C      0.30766  0.53204    0.276     C
C      0.30766  0.53204    0.776     C
Cl     0.30782  0.49842  0.19377    Cl
Cl     0.30782  0.99842  0.69377    Cl
C      0.30804  0.08366    0.224     C
C      0.30804  0.08366    0.724     C
C      0.30804  0.58366    0.224     C
C      0.30804  0.58366    0.724     C
C      0.30945  0.17915   0.1798     C
C      0.30945  0.17915   0.6798     C
C      0.30945  0.67915   0.1798     C
C      0.30945  0.67915   0.6798     C
O      0.31448  0.49748  0.45285     O
O      0.31448  0.49748  0.95285     O
O      0.31448  0.99748  0.45285     O
O      0.31448  0.99748  0.95285     O
C      0.31612  0.48773  0.39685     C
C      0.31612  0.48773  0.89685     C
C      0.31612  0.98773  0.39685     C
C      0.31612  0.98773  0.89685     C
C       0.3175   0.2492   0.1708     C
C       0.3175   0.2492   0.6708     C
C       0.3175   0.7492   0.1708     C
C       0.3175   0.7492   0.6708     C
C      0.31942  0.48952  0.33367     C
C      0.31942  0.48952  0.83367     C
C      0.31942  0.98952  0.33367     C
C      0.31942  0.98952  0.83367     C
C      0.32085  0.19055   0.3202     C
C      0.32085  0.19055   0.8202     C
C      0.32085  0.69055   0.3202     C
C      0.32085  0.69055   0.8202     C
C      0.32319  0.15308  0.16633     C
C      0.32319  0.15308  0.66633     C
C      0.32319  0.65309  0.16633     C
C      0.32319  0.65309  0.66633     C
C      0.32947  0.13947  0.37246     C
C      0.32947  0.13947  0.87246     C
C      0.32947  0.63947  0.37246     C
C      0.32947  0.63947  0.87246     C
H       0.3322   0.2159   0.2945     H
H       0.3322   0.2159   0.7945     H
H       0.3322   0.7159   0.2945     H
H       0.3322   0.7159   0.7945     H
C      0.33272  0.22122  0.15587     C
C      0.33272  0.22122  0.65587     C
C      0.33272  0.72122  0.15587     C
C      0.33272  0.72122  0.65587     C
C      0.33555  0.07005    0.266     C
C      0.33555  0.07005    0.766     C
C      0.33555  0.57005    0.266     C
C      0.33555  0.57005    0.766     C
C      0.33605  0.10155    0.234     C
C      0.33605  0.10155    0.734     C
C      0.33605  0.60155    0.234     C
C      0.33605  0.60155    0.734     C
O      0.33965  0.28705    0.147     O
O      0.33965  0.28705    0.647     O
O      0.33965  0.78705    0.147     O
O      0.33965  0.78705    0.647     O
Mn      0.3417   0.3417  0.14617    Mn
Mn      0.3417   0.3417  0.64617    Mn
Mn      0.3417   0.8417  0.14617    Mn
Mn      0.3417   0.8417  0.64617    Mn
H      0.34655  0.13035   0.3822     H
H      0.34655  0.13035   0.8822     H
H      0.34655  0.63035   0.3822     H
H      0.34655  0.63035   0.8822     H
C      0.34692  0.17681  0.33367     C
C      0.34692  0.17681  0.83367     C
C      0.34692  0.67681  0.33367     C
C      0.34692  0.67681  0.83367     C
H      0.35055  0.07235   0.2793     H
H      0.35055  0.07235   0.7793     H
H      0.35055  0.57235   0.2793     H
H      0.35055  0.57235   0.7793     H
H      0.35165  0.12985   0.2207     H
H      0.35165  0.12985   0.7207     H
H      0.35165  0.62985   0.2207     H
H      0.35165  0.62985   0.7207     H
Cl     0.35295   0.0415     -0.0    Cl
Cl     0.35295   0.0415      0.5    Cl
Cl     0.35295   0.5415     -0.0    Cl
Cl     0.35295   0.5415      0.5    Cl
C      0.35595  0.48785   0.3823     C
C      0.35595  0.48785   0.8823     C
C      0.35595  0.98785   0.3823     C
C      0.35595  0.98785   0.8823     C
H       0.3581   0.2268    0.365     H
H       0.3581   0.2268    0.865     H
H       0.3581   0.7268    0.365     H
H       0.3581   0.7268    0.865     H
C      0.35895  0.48925   0.3202     C
C      0.35895  0.48925   0.8202     C
C      0.35895  0.98925   0.3202     C
C      0.35895  0.98925   0.8202     C
C      0.36053  0.17053  0.12754     C
C      0.36053  0.17053  0.62754     C
C      0.36053  0.67053  0.12754     C
C      0.36053  0.67053  0.62754     C
H      0.36835  0.48745   0.3986     H
H      0.36835  0.48745   0.8986     H
H      0.36835  0.98745   0.3986     H
H      0.36835  0.98745   0.8986     H
H      0.36965  0.15345   0.1178     H
H      0.36965  0.15345   0.6178     H
H      0.36965  0.65345   0.1178     H
H      0.36965  0.65345   0.6178     H
H      0.37015  0.14835   0.2793     H
H      0.37015  0.14835   0.7793     H
C      0.37015  0.23825   0.1177     C
C      0.37015  0.23825   0.6177     C
H      0.37015  0.64835   0.2793     H
H      0.37015  0.64835   0.7793     H
C      0.37015  0.73825   0.1177     C
C      0.37015  0.73825   0.6177     C
H       0.3733   0.4896   0.2945     H
H       0.3733   0.4896   0.7945     H
H       0.3733   0.9896   0.2945     H
H       0.3733   0.9896   0.7945     H
C      0.37709  0.48859  0.34413     C
C      0.37709  0.48859  0.84413     C
C      0.37709  0.98859  0.34413     C
C      0.37709  0.98859  0.84413     C
C      0.38458  0.21298  0.10315     C
C      0.38458  0.21298  0.60315     C
C      0.38458  0.71298  0.10315     C
C      0.38458  0.71298  0.60315     C
H      0.38605  0.26695   0.1014     H
H      0.38605  0.26695   0.6014     H
H      0.38605  0.76695   0.1014     H
H      0.38605  0.76695   0.6014     H
C      0.38705  0.23775   0.3476     C
C      0.38705  0.23775   0.8476     C
C      0.38705  0.73775   0.3476     C
C      0.38705  0.73775   0.8476     C
C      0.39297  0.20047  0.30706     C
C      0.39297  0.20047  0.80706     C
C      0.39297  0.70047  0.30706     C
C      0.39297  0.70047  0.80706     C
C      0.39845  0.16395    0.266     C
C      0.39845  0.16395    0.766     C
C      0.39845  0.66395    0.266     C
C      0.39845  0.66395    0.766     C
H       0.4082   0.2769    0.365     H
H       0.4082   0.2769    0.865     H
H       0.4082   0.7769    0.365     H
H       0.4082   0.7769    0.865     H
C      0.41076  0.22842  0.31562     C
C      0.41076  0.22842  0.81562     C
C      0.41076  0.72842  0.31562     C
C      0.41076  0.72842  0.81562     C
C      0.41465  0.26535   0.3476     C
C      0.41465  0.26535   0.8476     C
C      0.41465  0.76535   0.3476     C
C      0.41465  0.76535   0.8476     C
C      0.41634  0.19196    0.276     C
C      0.41634  0.19196    0.776     C
C      0.41634  0.69196    0.276     C
C      0.41634  0.69196    0.776     C
C         0.42   0.4883   0.3292     C
C         0.42   0.4883   0.8292     C
C         0.42   0.9883   0.3292     C
C         0.42   0.9883   0.8292     C
C      0.42635  0.23115   0.0625     C
C      0.42635  0.23115   0.5625     C
C      0.42635  0.73115   0.0625     C
C      0.42635  0.73115   0.5625     C
H      0.42765  0.14945   0.2207     H
H      0.42765  0.14945   0.7207     H
H      0.42765  0.64945   0.2207     H
H      0.42765  0.64945   0.7207     H
C      0.42995  0.16445    0.234     C
C      0.42995  0.16445    0.734     C
C      0.42995  0.66445    0.234     C
C      0.42995  0.66445    0.734     C
O      0.43381   0.2078  0.04809     O
O      0.43381   0.2078  0.54809     O
O      0.43381   0.7078  0.04809     O
O      0.43381   0.7078  0.54809     O
O      0.43405  0.48665    0.353     O
O      0.43405  0.48665    0.853     O
O      0.43405  0.98665    0.353     O
O      0.43405  0.98665    0.853     O
O      0.43879  0.49121  0.29371     O
O      0.43879  0.49121  0.79371     O
O      0.43879  0.99121  0.29371     O
O      0.43879  0.99121  0.79371     O
O      0.45033  0.26733  0.04715     O
O      0.45033  0.26733  0.54715     O
O      0.45033  0.76733  0.04715     O
O      0.45033  0.76733  0.54715     O
N      0.45262  0.25082  0.29656     N
N      0.45262  0.25082  0.79656     N
N      0.45262  0.75082  0.29656     N
N      0.45262  0.75082  0.79656     N
C      0.45596  0.27362  0.31562     C
C      0.45596  0.27362  0.81562     C
C      0.45596  0.77362  0.31562     C
C      0.45596  0.77362  0.81562     C
Cl      0.4585  0.14705      0.0    Cl
Cl      0.4585  0.14705      0.5    Cl
Cl      0.4585  0.64705      0.0    Cl
Cl      0.4585  0.64705      0.5    Cl
N       0.4588   0.2088     0.25     N
N       0.4588   0.2088     0.75     N
N       0.4588   0.7088     0.25     N
N       0.4588   0.7088     0.75     N
C      0.46796  0.19234    0.224     C
C      0.46796  0.19234    0.724     C
C      0.46796  0.69234    0.224     C
C      0.46796  0.69234    0.724     C
O       0.4819  0.25589  0.45191     O
O       0.4819  0.25589  0.95191     O
O       0.4819  0.75589  0.45191     O
O       0.4819  0.75589  0.95191     O
Mn     0.48542  0.20725      0.0    Mn
Mn     0.48542  0.20725      0.5    Mn
Mn     0.48542  0.70725      0.0    Mn
Mn     0.48542  0.70725      0.5    Mn
O      0.48665  0.43405    0.353     O
O      0.48665  0.43405    0.853     O
O      0.48665  0.93405    0.353     O
O      0.48665  0.93405    0.853     O
H      0.48745  0.27125   0.3822     H
H      0.48745  0.27125   0.8822     H
H      0.48745  0.36835   0.3986     H
H      0.48745  0.36835   0.8986     H
H      0.48745  0.77125   0.3822     H
H      0.48745  0.77125   0.8822     H
H      0.48745  0.86835   0.3986     H
H      0.48745  0.86835   0.8986     H
C      0.48773  0.31613  0.39685     C
C      0.48773  0.31613  0.89685     C
C      0.48773  0.81613  0.39685     C
C      0.48773  0.81613  0.89685     C
C      0.48785  0.35595   0.3823     C
C      0.48785  0.35595   0.8823     C
C      0.48785  0.85595   0.3823     C
C      0.48785  0.85595   0.8823     C
Mn     0.48787  0.48787  0.35383    Mn
Mn     0.48787  0.48787  0.85383    Mn
Mn     0.48787  0.98787  0.35383    Mn
Mn     0.48787  0.98787  0.85383    Mn
C      0.48807  0.29807  0.37246     C
C      0.48807  0.29807  0.87246     C
C      0.48807  0.79807  0.37246     C
C      0.48807  0.79807  0.87246     C
C       0.4883     0.42   0.3292     C
C       0.4883     0.42   0.8292     C
C       0.4883     0.92   0.3292     C
C       0.4883     0.92   0.8292     C
C      0.48859  0.37708  0.34413     C
C      0.48859  0.37708  0.84413     C
C      0.48859  0.87708  0.34413     C
C      0.48859  0.87708  0.84413     C
C      0.48885  0.29365   0.4375     C
C      0.48885  0.29365   0.9375     C
C      0.48885  0.79365   0.4375     C
C      0.48885  0.79365   0.9375     C
C      0.48925  0.35895   0.3202     C
C      0.48925  0.35895   0.8202     C
C      0.48925  0.85895   0.3202     C
C      0.48925  0.85895   0.8202     C
C      0.48952  0.31942  0.33367     C
C      0.48952  0.31942  0.83367     C
C      0.48952  0.81942  0.33367     C
C      0.48952  0.81942  0.83367     C
H       0.4896   0.3733   0.2945     H
H       0.4896   0.3733   0.7945     H
H       0.4896   0.8733   0.2945     H
H       0.4896   0.8733   0.7945     H
O      0.49121  0.43879  0.29371     O
O      0.49121  0.43879  0.79371     O
O      0.49121  0.93879  0.29371     O
O      0.49121  0.93879  0.79371     O
C      0.49247  0.29997  0.30706     C
C      0.49247  0.29997  0.80706     C
C      0.49247  0.79997  0.30706     C
C      0.49247  0.79997  0.80706     C
O      0.49748  0.31448  0.45285     O
O      0.49748  0.31448  0.95285     O
O      0.49748  0.81448  0.45285     O
O      0.49748  0.81448  0.95285     O
Cl     0.49842  0.30782  0.19377    Cl
Cl     0.49842  0.80782  0.19377    Cl
Mn         0.5     -0.0     0.25    Mn
Mn         0.5     -0.0     0.75    Mn
Mn         0.5     0.25     0.25    Mn
Mn         0.5     0.25     0.75    Mn
Mn         0.5      0.5     0.25    Mn
Mn         0.5      0.5     0.75    Mn
Mn         0.5     0.75     0.25    Mn
Mn         0.5     0.75     0.75    Mn
Cl     0.50158  0.19219  0.80623    Cl
Cl     0.50158  0.69219  0.80623    Cl
O      0.50253  0.18553  0.04715     O
O      0.50253  0.18553  0.54715     O
O      0.50253  0.68553  0.04715     O
O      0.50253  0.68553  0.54715     O
C      0.50753  0.20003  0.19294     C
C      0.50753  0.20003  0.69294     C
C      0.50753  0.70003  0.19294     C
C      0.50753  0.70003  0.69294     C
O      0.50879  0.06121  0.20629     O
O      0.50879  0.06121  0.70629     O
O      0.50879  0.56122  0.20629     O
O      0.50879  0.56122  0.70629     O
H       0.5104   0.1267   0.2055     H
H       0.5104   0.1267   0.7055     H
H       0.5104   0.6267   0.2055     H
H       0.5104   0.6267   0.7055     H
C      0.51049  0.18058  0.16633     C
C      0.51049  0.18058  0.66633     C
C      0.51049  0.68059  0.16633     C
C      0.51049  0.68059  0.66633     C
C      0.51075  0.14105   0.1798     C
C      0.51075  0.14105   0.6798     C
C      0.51075  0.64105   0.1798     C
C      0.51075  0.64105   0.6798     C
C      0.51115  0.20635   0.0625     C
C      0.51115  0.20635   0.5625     C
C      0.51115  0.70635   0.0625     C
C      0.51115  0.70635   0.5625     C
C      0.51142  0.12292  0.15587     C
C      0.51142  0.12292  0.65587     C
C      0.51142  0.62292  0.15587     C
C      0.51142  0.62292  0.65587     C
C       0.5117     0.08   0.1708     C
C       0.5117     0.08   0.6708     C
C       0.5117     0.58   0.1708     C
C       0.5117     0.58   0.6708     C
C      0.51193  0.20193  0.12754     C
C      0.51193  0.20193  0.62754     C
C      0.51193  0.70193  0.12754     C
C      0.51193  0.70193  0.62754     C
Mn     0.51213  0.01213  0.14617    Mn
Mn     0.51213  0.01213  0.64617    Mn
Mn     0.51213  0.51213  0.14617    Mn
Mn     0.51213  0.51213  0.64617    Mn
C      0.51215  0.14405   0.1177     C
C      0.51215  0.14405   0.6177     C
C      0.51215  0.64405   0.1177     C
C      0.51215  0.64405   0.6177     C
C      0.51228  0.18388  0.10315     C
C      0.51228  0.18388  0.60315     C
C      0.51228  0.68388  0.10315     C
C      0.51228  0.68388  0.60315     C
H      0.51255  0.13165   0.1014     H
H      0.51255  0.13165   0.6014     H
H      0.51255  0.22875   0.1178     H
H      0.51255  0.22875   0.6178     H
H      0.51255  0.63165   0.1014     H
H      0.51255  0.63165   0.6014     H
H      0.51255  0.72875   0.1178     H
H      0.51255  0.72875   0.6178     H
O      0.51335  0.06595    0.147     O
O      0.51335  0.06595    0.647     O
O      0.51335  0.56595    0.147     O
O      0.51335  0.56595    0.647     O
Mn     0.51459  0.29276      0.0    Mn
Mn     0.51459  0.29276      0.5    Mn
Mn     0.51459  0.79276      0.0    Mn
Mn     0.51459  0.79276      0.5    Mn
O       0.5181  0.24411  0.04809     O
O       0.5181  0.24411  0.54809     O
O       0.5181  0.74411  0.04809     O
O       0.5181  0.74411  0.54809     O
C      0.53204  0.30766    0.276     C
C      0.53204  0.30766    0.776     C
C      0.53204  0.80766    0.276     C
C      0.53204  0.80766    0.776     C
N       0.5412   0.2912     0.25     N
N       0.5412   0.2912     0.75     N
N       0.5412   0.7912     0.25     N
N       0.5412   0.7912     0.75     N
Cl      0.5415  0.35295      0.0    Cl
Cl      0.5415  0.35295      0.5    Cl
Cl      0.5415  0.85295      0.0    Cl
Cl      0.5415  0.85295      0.5    Cl
C      0.54404  0.22638  0.18438     C
C      0.54404  0.22638  0.68438     C
C      0.54404  0.72638  0.18438     C
C      0.54404  0.72638  0.68438     C
N      0.54738  0.24918  0.20344     N
N      0.54738  0.24918  0.70344     N
N      0.54738  0.74918  0.20344     N
N      0.54738  0.74918  0.70344     N
O      0.54968  0.23267  0.45285     O
O      0.54968  0.23267  0.95285     O
O      0.54968  0.73268  0.45285     O
O      0.54968  0.73268  0.95285     O
O      0.56122   0.0088  0.20629     O
O      0.56122   0.0088  0.70629     O
O      0.56122   0.5088  0.20629     O
O      0.56122   0.5088  0.70629     O
O      0.56595  0.01335    0.147     O
O      0.56595  0.01335    0.647     O
O      0.56595  0.51335    0.147     O
O      0.56595  0.51335    0.647     O
O      0.56619   0.2922  0.45191     O
O      0.56619   0.2922  0.95191     O
O      0.56619   0.7922  0.45191     O
O      0.56619   0.7922  0.95191     O
C      0.57005  0.33555    0.266     C
C      0.57005  0.33555    0.766     C
C      0.57005  0.83555    0.266     C
C      0.57005  0.83555    0.766     C
H      0.57235  0.35055   0.2793     H
H      0.57235  0.35055   0.7793     H
H      0.57235  0.85055   0.2793     H
H      0.57235  0.85055   0.7793     H
C      0.57365  0.26885   0.4375     C
C      0.57365  0.26885   0.9375     C
C      0.57365  0.76885   0.4375     C
C      0.57365  0.76885   0.9375     C
C         0.58   0.0117   0.1708     C
C         0.58   0.0117   0.6708     C
C         0.58   0.5117   0.1708     C
C         0.58   0.5117   0.6708     C
C      0.58366  0.30804    0.224     C
C      0.58366  0.30804    0.724     C
C      0.58366  0.80804    0.224     C
C      0.58366  0.80804    0.724     C
C      0.58535  0.23465   0.1524     C
C      0.58535  0.23465   0.6524     C
C      0.58535  0.73465   0.1524     C
C      0.58535  0.73465   0.6524     C
C      0.58924  0.27158  0.18438     C
C      0.58924  0.27158  0.68438     C
C      0.58924  0.77158  0.18438     C
C      0.58924  0.77158  0.68438     C
H       0.5918   0.2231    0.135     H
H       0.5918   0.2231    0.635     H
H       0.5918   0.7231    0.135     H
H       0.5918   0.7231    0.635     H
C      0.60155  0.33605    0.234     C
C      0.60155  0.33605    0.734     C
C      0.60155  0.83605    0.234     C
C      0.60155  0.83605    0.734     C
C      0.60703  0.29953  0.19294     C
C      0.60703  0.29953  0.69294     C
C      0.60703  0.79953  0.19294     C
C      0.60703  0.79953  0.69294     C
C      0.61295  0.26225   0.1524     C
C      0.61295  0.26225   0.6524     C
C      0.61295  0.76225   0.1524     C
C      0.61295  0.76225   0.6524     C
H      0.61395  0.23305   0.3986     H
H      0.61395  0.23305   0.8986     H
H      0.61395  0.73305   0.3986     H
H      0.61395  0.73305   0.8986     H
C      0.61543  0.28703  0.39685     C
C      0.61543  0.28703  0.89685     C
C      0.61543  0.78703  0.39685     C
C      0.61543  0.78703  0.89685     C
C      0.62292  0.01141  0.15587     C
C      0.62292  0.01141  0.65587     C
C      0.62292  0.51141  0.15587     C
C      0.62292  0.51141  0.65587     C
H       0.6267   0.0104   0.2055     H
H       0.6267   0.0104   0.7055     H
H       0.6267   0.5104   0.2055     H
H       0.6267   0.5104   0.7055     H
C      0.62985  0.26175   0.3823     C
C      0.62985  0.26175   0.8823     C
H      0.62985  0.35165   0.2207     H
H      0.62985  0.35165   0.7207     H
C      0.62985  0.76175   0.3823     C
C      0.62985  0.76175   0.8823     C
H      0.62985  0.85165   0.2207     H
H      0.62985  0.85165   0.7207     H
H      0.63035  0.34655   0.3822     H
H      0.63035  0.34655   0.8822     H
H      0.63035  0.84655   0.3822     H
H      0.63035  0.84655   0.8822     H
H      0.63165  0.01255   0.1014     H
H      0.63165  0.01255   0.6014     H
H      0.63165  0.51255   0.1014     H
H      0.63165  0.51255   0.6014     H
C      0.63947  0.32947  0.37246     C
C      0.63947  0.32947  0.87246     C
C      0.63947  0.82947  0.37246     C
C      0.63947  0.82947  0.87246     C
C      0.64105  0.01075   0.1798     C
C      0.64105  0.01075   0.6798     C
C      0.64105  0.51075   0.1798     C
C      0.64105  0.51075   0.6798     C
H       0.6419   0.2732    0.135     H
H       0.6419   0.2732    0.635     H
H       0.6419   0.7732    0.135     H
H       0.6419   0.7732    0.635     H
C      0.64405  0.01215   0.1177     C
C      0.64405  0.01215   0.6177     C
C      0.64405  0.51215   0.1177     C
C      0.64405  0.51215   0.6177     C
Cl     0.64705   0.4585      0.0    Cl
Cl     0.64705   0.4585      0.5    Cl
Cl     0.64705   0.9585      0.0    Cl
Cl     0.64705   0.9585      0.5    Cl
H      0.64835  0.37015   0.2793     H
H      0.64835  0.37015   0.7793     H
H      0.64835  0.87015   0.2793     H
H      0.64835  0.87015   0.7793     H
H      0.64945  0.42765   0.2207     H
H      0.64945  0.42765   0.7207     H
H      0.64945  0.92765   0.2207     H
H      0.64945  0.92765   0.7207     H
C      0.65309  0.32319  0.16633     C
C      0.65309  0.32319  0.66633     C
C      0.65309  0.82319  0.16633     C
C      0.65309  0.82319  0.66633     C
H      0.65345  0.36965   0.1178     H
H      0.65345  0.36965   0.6178     H
H      0.65345  0.86965   0.1178     H
H      0.65345  0.86965   0.6178     H
Mn      0.6583   0.1583  0.35383    Mn
Mn      0.6583   0.1583  0.85383    Mn
Mn      0.6583   0.6583  0.35383    Mn
Mn      0.6583   0.6583  0.85383    Mn
O      0.66035  0.21295    0.353     O
O      0.66035  0.21295    0.853     O
O      0.66035  0.71295    0.353     O
O      0.66035  0.71295    0.853     O
C      0.66395  0.39845    0.266     C
C      0.66395  0.39845    0.766     C
C      0.66395  0.89845    0.266     C
C      0.66395  0.89845    0.766     C
C      0.66445  0.42995    0.234     C
C      0.66445  0.42995    0.734     C
C      0.66445  0.92995    0.234     C
C      0.66445  0.92995    0.734     C
C      0.66729  0.27879  0.34413     C
C      0.66729  0.27879  0.84413     C
C      0.66729  0.77879  0.34413     C
C      0.66729  0.77879  0.84413     C
H       0.6678   0.2841   0.2055     H
H       0.6678   0.2841   0.7055     H
H       0.6678   0.7841   0.2055     H
H       0.6678   0.7841   0.7055     H
C      0.67053  0.36053  0.12754     C
C      0.67053  0.36053  0.62754     C
C      0.67053  0.86053  0.12754     C
C      0.67053  0.86053  0.62754     C
C      0.67682  0.34692  0.33367     C
C      0.67682  0.34692  0.83367     C
C      0.67682  0.84692  0.33367     C
C      0.67682  0.84692  0.83367     C
C      0.67915  0.30945   0.1798     C
C      0.67915  0.30945   0.6798     C
C      0.67915  0.80945   0.1798     C
C      0.67915  0.80945   0.6798     C
C      0.68059  0.01049  0.16633     C
C      0.68059  0.01049  0.66633     C
C      0.68059  0.51049  0.16633     C
C      0.68059  0.51049  0.66633     C
C       0.6825   0.2508   0.3292     C
C       0.6825   0.2508   0.8292     C
C       0.6825   0.7508   0.3292     C
C       0.6825   0.7508   0.8292     C
C      0.68388  0.01227  0.10315     C
C      0.68388  0.01227  0.60315     C
C      0.68388  0.51227  0.10315     C
C      0.68388  0.51227  0.60315     C
O      0.68553  0.00252  0.04715     O
O      0.68553  0.00252  0.54715     O
O      0.68553  0.50253  0.04715     O
O      0.68553  0.50253  0.54715     O
C      0.69055  0.32085   0.3202     C
C      0.69055  0.32085   0.8202     C
C      0.69055  0.82085   0.3202     C
C      0.69055  0.82085   0.8202     C
C      0.69196  0.41634    0.276     C
C      0.69196  0.41634    0.776     C
C      0.69196  0.91634    0.276     C
C      0.69196  0.91634    0.776     C
Cl     0.69219  0.00158  0.30623    Cl
C      0.69234  0.46796    0.224     C
C      0.69234  0.46796    0.724     C
C      0.69234  0.96796    0.224     C
C      0.69234  0.96796    0.724     C
C      0.70003  0.00753  0.19294     C
C      0.70003  0.00753  0.69294     C
C      0.70003  0.50753  0.19294     C
C      0.70003  0.50753  0.69294     C
C      0.70047  0.39297  0.30706     C
C      0.70047  0.39297  0.80706     C
C      0.70047  0.89297  0.30706     C
C      0.70047  0.89297  0.80706     C
C      0.70193  0.01193  0.12754     C
C      0.70193  0.01193  0.62754     C
C      0.70193  0.51193  0.12754     C
C      0.70193  0.51193  0.62754     C
C      0.70635  0.01115   0.0625     C
C      0.70635  0.01115   0.5625     C
C      0.70635  0.51115   0.0625     C
C      0.70635  0.51115   0.5625     C
Mn     0.70725  0.48542      0.0    Mn
Mn     0.70725  0.48542      0.5    Mn
Mn     0.70725  0.98542      0.0    Mn
Mn     0.70725  0.98542      0.5    Mn
O       0.7078  0.43381  0.04809     O
O       0.7078  0.43381  0.54809     O
O       0.7078  0.93381  0.04809     O
O       0.7078  0.93381  0.54809     O
N       0.7088   0.4588     0.25     N
N       0.7088   0.4588     0.75     N
N       0.7088   0.9588     0.25     N
N       0.7088   0.9588     0.75     N
O      0.71295  0.16035    0.353     O
O      0.71295  0.16035    0.853     O
O      0.71295  0.66035    0.353     O
O      0.71295  0.66035    0.853     O
C      0.71298  0.38458  0.10315     C
C      0.71298  0.38458  0.60315     C
C      0.71298  0.88458  0.10315     C
C      0.71298  0.88458  0.60315     C
O      0.71509  0.26751  0.29371     O
O      0.71509  0.26751  0.79371     O
O      0.71509  0.76751  0.29371     O
O      0.71509  0.76751  0.79371     O
H       0.7159   0.3322   0.2945     H
H       0.7159   0.3322   0.7945     H
H       0.7159   0.8322   0.2945     H
H       0.7159   0.8322   0.7945     H
C      0.72122  0.33271  0.15587     C
C      0.72122  0.33271  0.65587     C
C      0.72122  0.83272  0.15587     C
C      0.72122  0.83272  0.65587     C
H       0.7231   0.0918    0.135     H
H       0.7231   0.0918    0.635     H
H       0.7231   0.5918    0.135     H
H       0.7231   0.5918    0.635     H
C      0.72638  0.04404  0.18438     C
C      0.72638  0.04404  0.68438     C
C      0.72638  0.54404  0.18438     C
C      0.72638  0.54404  0.68438     C
H       0.7268   0.3581    0.365     H
H       0.7268   0.3581    0.865     H
H       0.7268   0.8581    0.365     H
H       0.7268   0.8581    0.865     H
C      0.72842  0.41076  0.31562     C
C      0.72842  0.41076  0.81562     C
C      0.72842  0.91076  0.31562     C
C      0.72842  0.91076  0.81562     C
H      0.72875  0.01255   0.1178     H
H      0.72875  0.01255   0.6178     H
H      0.72875  0.51255   0.1178     H
H      0.72875  0.51255   0.6178     H
C      0.73115  0.42635   0.0625     C
C      0.73115  0.42635   0.5625     C
C      0.73115  0.92635   0.0625     C
C      0.73115  0.92635   0.5625     C
O       0.7325  0.28492  0.20629     O
O       0.7325  0.28492  0.70629     O
O       0.7325  0.78492  0.20629     O
O       0.7325  0.78492  0.70629     O
O      0.73268  0.04967  0.45285     O
O      0.73268  0.04967  0.95285     O
O      0.73268  0.54967  0.45285     O
O      0.73268  0.54967  0.95285     O
H      0.73305  0.11395   0.3986     H
H      0.73305  0.11395   0.8986     H
H      0.73305  0.61395   0.3986     H
H      0.73305  0.61395   0.8986     H
C      0.73465  0.08535   0.1524     C
C      0.73465  0.08535   0.6524     C
C      0.73465  0.58535   0.1524     C
C      0.73465  0.58535   0.6524     C
C      0.73775  0.38705   0.3476     C
C      0.73775  0.38705   0.8476     C
C      0.73775  0.88705   0.3476     C
C      0.73775  0.88705   0.8476     C
C      0.73825  0.37015   0.1177     C
C      0.73825  0.37015   0.6177     C
C      0.73825  0.87015   0.1177     C
C      0.73825  0.87015   0.6177     C
O      0.74411   0.0181  0.04809     O
O      0.74411   0.0181  0.54809     O
O      0.74411   0.5181  0.04809     O
O      0.74411   0.5181  0.54809     O
N      0.74918  0.04738  0.20344     N
N      0.74918  0.04738  0.70344     N
N      0.74918  0.54738  0.20344     N
N      0.74918  0.54738  0.70344     N
C       0.7492   0.3175   0.1708     C
C       0.7492   0.3175   0.6708     C
C       0.7492   0.8175   0.1708     C
C       0.7492   0.8175   0.6708     C
Mn        0.75     -0.0     0.25    Mn
Mn        0.75     -0.0     0.75    Mn
Mn        0.75     0.25     0.25    Mn
Mn        0.75     0.25     0.75    Mn
Mn        0.75      0.5     0.25    Mn
Mn        0.75      0.5     0.75    Mn
Mn        0.75     0.75     0.25    Mn
Mn        0.75     0.75     0.75    Mn
C       0.7508   0.1825   0.3292     C
C       0.7508   0.1825   0.8292     C
C       0.7508   0.6825   0.3292     C
C       0.7508   0.6825   0.8292     C
N      0.75082  0.45262  0.29656     N
N      0.75082  0.45262  0.79656     N
N      0.75082  0.95262  0.29656     N
N      0.75082  0.95262  0.79656     N
O      0.75589   0.4819  0.45191     O
O      0.75589   0.4819  0.95191     O
O      0.75589   0.9819  0.45191     O
O      0.75589   0.9819  0.95191     O
C      0.76175  0.12985   0.3823     C
C      0.76175  0.12985   0.8823     C
C      0.76175  0.62985   0.3823     C
C      0.76175  0.62985   0.8823     C
C      0.76225  0.11295   0.1524     C
C      0.76225  0.11295   0.6524     C
C      0.76225  0.61295   0.1524     C
C      0.76225  0.61295   0.6524     C
C      0.76535  0.41465   0.3476     C
C      0.76535  0.41465   0.8476     C
C      0.76535  0.91465   0.3476     C
C      0.76535  0.91465   0.8476     C
H      0.76695  0.38605   0.1014     H
H      0.76695  0.38605   0.6014     H
H      0.76695  0.88605   0.1014     H
H      0.76695  0.88605   0.6014     H
O      0.76733  0.45033  0.04715     O
O      0.76733  0.45033  0.54715     O
O      0.76733  0.95033  0.04715     O
O      0.76733  0.95033  0.54715     O
O      0.76751  0.21509  0.29371     O
O      0.76751  0.21509  0.79371     O
O      0.76751  0.71509  0.29371     O
O      0.76751  0.71509  0.79371     O
C      0.76885  0.07365   0.4375     C
C      0.76885  0.07365   0.9375     C
C      0.76885  0.57365   0.4375     C
C      0.76885  0.57365   0.9375     C
H      0.77125  0.48745   0.3822     H
H      0.77125  0.48745   0.8822     H
H      0.77125  0.98745   0.3822     H
H      0.77125  0.98745   0.8822     H
C      0.77158  0.08924  0.18438     C
C      0.77158  0.08924  0.68438     C
C      0.77158  0.58924  0.18438     C
C      0.77158  0.58924  0.68438     C
H       0.7732   0.1419    0.135     H
H       0.7732   0.1419    0.635     H
H       0.7732   0.6419    0.135     H
H       0.7732   0.6419    0.635     H
C      0.77362  0.45596  0.31562     C
C      0.77362  0.45596  0.81562     C
C      0.77362  0.95596  0.31562     C
C      0.77362  0.95596  0.81562     C
H       0.7769   0.4082    0.365     H
H       0.7769   0.4082    0.865     H
H       0.7769   0.9082    0.365     H
H       0.7769   0.9082    0.865     H
C      0.77879  0.16729  0.34413     C
C      0.77879  0.16729  0.84413     C
C      0.77879  0.66729  0.34413     C
C      0.77879  0.66729  0.84413     C
H       0.7841   0.1678   0.2055     H
H       0.7841   0.1678   0.7055     H
H       0.7841   0.6678   0.2055     H
H       0.7841   0.6678   0.7055     H
O      0.78492   0.2325  0.20629     O
O      0.78492   0.2325  0.70629     O
O      0.78492   0.7325  0.20629     O
O      0.78492   0.7325  0.70629     O
C      0.78703  0.11543  0.39685     C
C      0.78703  0.11543  0.89685     C
C      0.78703  0.61543  0.39685     C
C      0.78703  0.61543  0.89685     C
O      0.78705  0.33965    0.147     O
O      0.78705  0.33965    0.647     O
O      0.78705  0.83965    0.147     O
O      0.78705  0.83965    0.647     O
N       0.7912   0.0412     0.25     N
N       0.7912   0.0412     0.75     N
N       0.7912   0.5412     0.25     N
N       0.7912   0.5412     0.75     N
O       0.7922  0.06619  0.45191     O
O       0.7922  0.06619  0.95191     O
O       0.7922  0.56619  0.45191     O
O       0.7922  0.56619  0.95191     O
Mn     0.79276  0.01458      0.0    Mn
Mn     0.79276  0.01458      0.5    Mn
Mn     0.79276  0.51458      0.0    Mn
Mn     0.79276  0.51458      0.5    Mn
C      0.79365  0.48885   0.4375     C
C      0.79365  0.48885   0.9375     C
C      0.79365  0.98885   0.4375     C
C      0.79365  0.98885   0.9375     C
C      0.79807  0.48807  0.37246     C
C      0.79807  0.48807  0.87246     C
C      0.79807  0.98807  0.37246     C
C      0.79807  0.98807  0.87246     C
C      0.79953  0.10703  0.19294     C
C      0.79953  0.10703  0.69294     C
C      0.79953  0.60703  0.19294     C
C      0.79953  0.60703  0.69294     C
C      0.79997  0.49247  0.30706     C
C      0.79997  0.49247  0.80706     C
C      0.79997  0.99247  0.30706     C
C      0.79997  0.99247  0.80706     C
C      0.80766  0.03204    0.276     C
C      0.80766  0.03204    0.776     C
C      0.80766  0.53204    0.276     C
C      0.80766  0.53204    0.776     C
Cl     0.80782  0.49842  0.19377    Cl
Cl     0.80782  0.49842  0.69377    Cl
Cl     0.80782  0.99842  0.19377    Cl
Cl     0.80782  0.99842  0.69377    Cl
C      0.80804  0.08366    0.224     C
C      0.80804  0.08366    0.724     C
C      0.80804  0.58366    0.224     C
C      0.80804  0.58366    0.724     C
C      0.80945  0.17915   0.1798     C
C      0.80945  0.17915   0.6798     C
C      0.80945  0.67915   0.1798     C
C      0.80945  0.67915   0.6798     C
O      0.81448  0.49748  0.45285     O
O      0.81448  0.49748  0.95285     O
O      0.81448  0.99748  0.45285     O
O      0.81448  0.99748  0.95285     O
C      0.81613  0.48773  0.39685     C
C      0.81613  0.48773  0.89685     C
C      0.81613  0.98773  0.39685     C
C      0.81613  0.98773  0.89685     C
C       0.8175   0.2492   0.1708     C
C       0.8175   0.2492   0.6708     C
C       0.8175   0.7492   0.1708     C
C       0.8175   0.7492   0.6708     C
C      0.81942  0.48952  0.33367     C
C      0.81942  0.48952  0.83367     C
C      0.81942  0.98952  0.33367     C
C      0.81942  0.98952  0.83367     C
C      0.82085  0.19055   0.3202     C
C      0.82085  0.19055   0.8202     C
C      0.82085  0.69055   0.3202     C
C      0.82085  0.69055   0.8202     C
C      0.82319  0.15308  0.16633     C
C      0.82319  0.15308  0.66633     C
C      0.82319  0.65308  0.16633     C
C      0.82319  0.65308  0.66633     C
C      0.82947  0.13947  0.37246     C
C      0.82947  0.13947  0.87246     C
C      0.82947  0.63947  0.37246     C
C      0.82947  0.63947  0.87246     C
H       0.8322   0.2159   0.2945     H
H       0.8322   0.2159   0.7945     H
H       0.8322   0.7159   0.2945     H
H       0.8322   0.7159   0.7945     H
C      0.83272  0.22122  0.15587     C
C      0.83272  0.22122  0.65587     C
C      0.83272  0.72122  0.15587     C
C      0.83272  0.72122  0.65587     C
C      0.83555  0.07005    0.266     C
C      0.83555  0.07005    0.766     C
C      0.83555  0.57005    0.266     C
C      0.83555  0.57005    0.766     C
C      0.83605  0.10155    0.234     C
C      0.83605  0.10155    0.734     C
C      0.83605  0.60155    0.234     C
C      0.83605  0.60155    0.734     C
O      0.83965  0.28705    0.147     O
O      0.83965  0.28705    0.647     O
O      0.83965  0.78705    0.147     O
O      0.83965  0.78705    0.647     O
Mn      0.8417   0.3417  0.14617    Mn
Mn      0.8417   0.3417  0.64617    Mn
Mn      0.8417   0.8417  0.14617    Mn
Mn      0.8417   0.8417  0.64617    Mn
H      0.84655  0.13035   0.3822     H
H      0.84655  0.13035   0.8822     H
H      0.84655  0.63035   0.3822     H
H      0.84655  0.63035   0.8822     H
C      0.84692  0.17681  0.33367     C
C      0.84692  0.17681  0.83367     C
C      0.84692  0.67681  0.33367     C
C      0.84692  0.67681  0.83367     C
H      0.85055  0.07235   0.2793     H
H      0.85055  0.07235   0.7793     H
H      0.85055  0.57235   0.2793     H
H      0.85055  0.57235   0.7793     H
H      0.85165  0.12985   0.2207     H
H      0.85165  0.12985   0.7207     H
H      0.85165  0.62985   0.2207     H
H      0.85165  0.62985   0.7207     H
Cl     0.85295   0.0415      0.0    Cl
Cl     0.85295   0.0415      0.5    Cl
Cl     0.85295   0.5415      0.0    Cl
Cl     0.85295   0.5415      0.5    Cl
C      0.85595  0.48785   0.3823     C
C      0.85595  0.48785   0.8823     C
C      0.85595  0.98785   0.3823     C
C      0.85595  0.98785   0.8823     C
H       0.8581   0.2268    0.365     H
H       0.8581   0.2268    0.865     H
H       0.8581   0.7268    0.365     H
H       0.8581   0.7268    0.865     H
C      0.85895  0.48925   0.3202     C
C      0.85895  0.48925   0.8202     C
C      0.85895  0.98925   0.3202     C
C      0.85895  0.98925   0.8202     C
C      0.86053  0.17053  0.12754     C
C      0.86053  0.17053  0.62754     C
C      0.86053  0.67053  0.12754     C
C      0.86053  0.67053  0.62754     C
H      0.86835  0.48745   0.3986     H
H      0.86835  0.48745   0.8986     H
H      0.86835  0.98745   0.3986     H
H      0.86835  0.98745   0.8986     H
H      0.86965  0.15345   0.1178     H
H      0.86965  0.15345   0.6178     H
H      0.86965  0.65345   0.1178     H
H      0.86965  0.65345   0.6178     H
H      0.87015  0.14835   0.2793     H
H      0.87015  0.14835   0.7793     H
C      0.87015  0.23825   0.1177     C
C      0.87015  0.23825   0.6177     C
H      0.87015  0.64835   0.2793     H
H      0.87015  0.64835   0.7793     H
C      0.87015  0.73825   0.1177     C
C      0.87015  0.73825   0.6177     C
H       0.8733   0.4896   0.2945     H
H       0.8733   0.4896   0.7945     H
H       0.8733   0.9896   0.2945     H
H       0.8733   0.9896   0.7945     H
C      0.87709  0.48859  0.34413     C
C      0.87709  0.48859  0.84413     C
C      0.87709  0.98859  0.34413     C
C      0.87709  0.98859  0.84413     C
C      0.88458  0.21298  0.10315     C
C      0.88458  0.21298  0.60315     C
C      0.88458  0.71298  0.10315     C
C      0.88458  0.71298  0.60315     C
H      0.88605  0.26695   0.1014     H
H      0.88605  0.26695   0.6014     H
H      0.88605  0.76695   0.1014     H
H      0.88605  0.76695   0.6014     H
C      0.88705  0.23775   0.3476     C
C      0.88705  0.23775   0.8476     C
C      0.88705  0.73775   0.3476     C
C      0.88705  0.73775   0.8476     C
C      0.89297  0.20047  0.30706     C
C      0.89297  0.20047  0.80706     C
C      0.89297  0.70047  0.30706     C
C      0.89297  0.70047  0.80706     C
C      0.89845  0.16395    0.266     C
C      0.89845  0.16395    0.766     C
C      0.89845  0.66395    0.266     C
C      0.89845  0.66395    0.766     C
H       0.9082   0.2769    0.365     H
H       0.9082   0.2769    0.865     H
H       0.9082   0.7769    0.365     H
H       0.9082   0.7769    0.865     H
C      0.91076  0.22842  0.31562     C
C      0.91076  0.22842  0.81562     C
C      0.91076  0.72842  0.31562     C
C      0.91076  0.72842  0.81562     C
C      0.91465  0.26535   0.3476     C
C      0.91465  0.26535   0.8476     C
C      0.91465  0.76535   0.3476     C
C      0.91465  0.76535   0.8476     C
C      0.91634  0.19196    0.276     C
C      0.91634  0.19196    0.776     C
C      0.91634  0.69196    0.276     C
C      0.91634  0.69196    0.776     C
C         0.92   0.4883   0.3292     C
C         0.92   0.4883   0.8292     C
C         0.92   0.9883   0.3292     C
C         0.92   0.9883   0.8292     C
C      0.92635  0.23115   0.0625     C
C      0.92635  0.23115   0.5625     C
C      0.92635  0.73115   0.0625     C
C      0.92635  0.73115   0.5625     C
H      0.92765  0.14945   0.2207     H
H      0.92765  0.14945   0.7207     H
H      0.92765  0.64945   0.2207     H
H      0.92765  0.64945   0.7207     H
C      0.92995  0.16445    0.234     C
C      0.92995  0.16445    0.734     C
C      0.92995  0.66445    0.234     C
C      0.92995  0.66445    0.734     C
O      0.93381   0.2078  0.04809     O
O      0.93381   0.2078  0.54809     O
O      0.93381   0.7078  0.04809     O
O      0.93381   0.7078  0.54809     O
O      0.93405  0.48665    0.353     O
O      0.93405  0.48665    0.853     O
O      0.93405  0.98665    0.353     O
O      0.93405  0.98665    0.853     O
O      0.93879  0.49121  0.29371     O
O      0.93879  0.49121  0.79371     O
O      0.93879  0.99121  0.29371     O
O      0.93879  0.99121  0.79371     O
O      0.95033  0.26733  0.04715     O
O      0.95033  0.26733  0.54715     O
O      0.95033  0.76733  0.04715     O
O      0.95033  0.76733  0.54715     O
N      0.95262  0.25082  0.29656     N
N      0.95262  0.25082  0.79656     N
N      0.95262  0.75082  0.29656     N
N      0.95262  0.75082  0.79656     N
C      0.95596  0.27362  0.31562     C
C      0.95596  0.27362  0.81562     C
C      0.95596  0.77362  0.31562     C
C      0.95596  0.77362  0.81562     C
Cl      0.9585  0.14705      0.0    Cl
Cl      0.9585  0.14705      0.5    Cl
Cl      0.9585  0.64705      0.0    Cl
Cl      0.9585  0.64705      0.5    Cl
N       0.9588   0.2088     0.25     N
N       0.9588   0.2088     0.75     N
N       0.9588   0.7088     0.25     N
N       0.9588   0.7088     0.75     N
C      0.96796  0.19234    0.224     C
C      0.96796  0.19234    0.724     C
C      0.96796  0.69234    0.224     C
C      0.96796  0.69234    0.724     C
O       0.9819  0.25589  0.45191     O
O       0.9819  0.25589  0.95191     O
O       0.9819  0.75589  0.45191     O
O       0.9819  0.75589  0.95191     O
Mn     0.98542  0.20725      0.0    Mn
Mn     0.98542  0.20725      0.5    Mn
Mn     0.98542  0.70725      0.0    Mn
Mn     0.98542  0.70725      0.5    Mn
O      0.98665  0.43405    0.353     O
O      0.98665  0.43405    0.853     O
O      0.98665  0.93405    0.353     O
O      0.98665  0.93405    0.853     O
H      0.98745  0.27125   0.3822     H
H      0.98745  0.27125   0.8822     H
H      0.98745  0.36835   0.3986     H
H      0.98745  0.36835   0.8986     H
H      0.98745  0.77125   0.3822     H
H      0.98745  0.77125   0.8822     H
H      0.98745  0.86835   0.3986     H
H      0.98745  0.86835   0.8986     H
C      0.98773  0.31613  0.39685     C
C      0.98773  0.31613  0.89685     C
C      0.98773  0.81613  0.39685     C
C      0.98773  0.81613  0.89685     C
C      0.98785  0.35595   0.3823     C
C      0.98785  0.35595   0.8823     C
C      0.98785  0.85595   0.3823     C
C      0.98785  0.85595   0.8823     C
Mn     0.98787  0.48787  0.35383    Mn
Mn     0.98787  0.48787  0.85383    Mn
Mn     0.98787  0.98787  0.35383    Mn
Mn     0.98787  0.98787  0.85383    Mn
C      0.98807  0.29807  0.37246     C
C      0.98807  0.29807  0.87246     C
C      0.98807  0.79807  0.37246     C
C      0.98807  0.79807  0.87246     C
C       0.9883     0.42   0.3292     C
C       0.9883     0.42   0.8292     C
C       0.9883     0.92   0.3292     C
C       0.9883     0.92   0.8292     C
C      0.98859  0.37708  0.34413     C
C      0.98859  0.37708  0.84413     C
C      0.98859  0.87708  0.34413     C
C      0.98859  0.87708  0.84413     C
C      0.98885  0.29365   0.4375     C
C      0.98885  0.29365   0.9375     C
C      0.98885  0.79365   0.4375     C
C      0.98885  0.79365   0.9375     C
C      0.98925  0.35895   0.3202     C
C      0.98925  0.35895   0.8202     C
C      0.98925  0.85895   0.3202     C
C      0.98925  0.85895   0.8202     C
C      0.98952  0.31942  0.33367     C
C      0.98952  0.31942  0.83367     C
C      0.98952  0.81942  0.33367     C
C      0.98952  0.81942  0.83367     C
H       0.9896   0.3733   0.2945     H
H       0.9896   0.3733   0.7945     H
H       0.9896   0.8733   0.2945     H
H       0.9896   0.8733   0.7945     H
O      0.99121  0.43879  0.29371     O
O      0.99121  0.43879  0.79371     O
O      0.99121  0.93879  0.29371     O
O      0.99121  0.93879  0.79371     O
C      0.99247  0.29997  0.30706     C
C      0.99247  0.29997  0.80706     C
C      0.99247  0.79997  0.30706     C
C      0.99247  0.79997  0.80706     C
O      0.99748  0.31447  0.45285     O
O      0.99748  0.31447  0.95285     O
O      0.99748  0.81448  0.45285     O
O      0.99748  0.81448  0.95285     O
Cl     0.99842  0.30782  0.69377    Cl
Cl     0.99842  0.80782  0.69377    Cl
