data_I
_chemical_name_common  '/home/zhangsd/repos/MofS-CGCNN/ML/data/TSD/clean_cifs/MIHLAR_clean'
_cell_length_a  9.85480
_cell_length_b 13.81380
_cell_length_c 33.79250
_cell_angle_alpha 90.00000
_cell_angle_beta  90.00000
_cell_angle_gamma 92.86270
_space_group_name_H-M_alt      'P 1'


loop_
_space_group_symop_operation_xyz
  'x, y, z' 

loop_
_atom_site_label
_atom_site_fract_x
_atom_site_fract_y
_atom_site_fract_z
_atom_site_type_symbol
C       0.0004   0.9149  0.31609     C
C       0.0063   0.0408  0.18086     C
H       0.0099   0.0965   0.3473     H
C       0.0114   0.9391  0.86253     C
H       0.0124   0.5234   0.8738     H
C        0.013   0.3972   0.6032     C
C       0.0154   0.5088  0.39405     C
H       0.0159   0.7013   0.8791     H
C       0.0161   0.2476  0.42121     C
H       0.0182   0.5355   0.6256     H
C       0.0203   0.1922  0.58097     C
C       0.0215   0.8302  0.38049     C
H       0.0252   0.7425   0.5538     H
C       0.0255   0.8329   0.6013     C
C       0.0297   0.3435  0.10349     C
C         0.03   0.4409  0.10603     C
C       0.0323    0.208    0.858     C
C       0.0371   0.1518  0.36254     C
C        0.039   0.9087  0.94339     C
H       0.0456   0.9019   0.9713     H
C        0.053   0.1095  0.64321     C
C       0.0581      0.3  0.91838     C
C       0.0581   0.7399  0.44355     C
C       0.0583   0.6434  0.43059     C
C       0.0593   0.6502  0.09038     C
C       0.0618   0.1447  0.07746     C
H       0.0631   0.1594   0.8407     H
H       0.0701   0.3634   0.6205     H
O       0.0748   0.0387  0.70692     O
C       0.0791   0.1251  0.11754     C
C       0.0819   0.7436  0.15163     C
O        0.092   0.0015  0.80136     O
H       0.0937   0.9298   0.4741     H
H       0.0958   0.8768   0.5921     H
H       0.1017   0.8039   0.3703     H
C       0.1027   0.2292  0.89257     C
C       0.1041   0.4812  0.07342     C
C        0.106   0.4869  0.42615     C
H       0.1074   0.3145    0.942     H
H       0.1076   0.7617   0.0245     H
C       0.1112   0.3191  0.06969     C
C       0.1125   0.5789  0.06157     C
C       0.1161   0.3133  0.40802     C
O       0.1166   0.8903  0.30662     O
C       0.1185   0.9835  0.88293     C
O       0.1198   0.0654  0.19657     O
O       0.1256   0.8421  0.20888     O
C       0.1265   0.6725   0.1259     C
N       0.1288     0.57  0.44775     N
C       0.1291   0.9712   0.9235     C
C       0.1327   0.7785   0.4755     C
C       0.1375   0.1522  0.56676     C
C       0.1378   0.2259  0.05657     C
C        0.138   0.2153  0.34841     C
C       0.1417   0.8794  0.48601     C
C       0.1501   0.7109  0.01101     C
H       0.1532   0.1557   0.1315     H
O       0.1538   0.1235  0.28937     O
N       0.1564   0.4051   0.0523     N
C       0.1575   0.3974  0.43458     C
C       0.1622   0.6128  0.02505     C
C       0.1651   0.7708  0.18859     C
H       0.1667   0.1651   0.5404     H
C       0.1708   0.0713  0.62924     C
C       0.1774   0.2971  0.37155     C
H       0.1816   0.1955   0.8988     H
H       0.1851   0.0226   0.8692     H
O       0.1928   0.7536  0.79928     O
H       0.1989    0.006   0.9377     H
H       0.2046   0.6385   0.1327     H
C       0.2055   0.1963  0.30982     C
H       0.2065   0.9323   0.0812     H
C       0.2105   0.7169  0.97532     C
C       0.2124   0.0933  0.59102     C
N       0.2145   0.7271  0.50033     N
H       0.2176    0.772   0.9585     H
H       0.2222   0.0308   0.6456     H
C       0.2245   0.2057  0.02508     C
N       0.2285   0.5596  0.99779     N
C       0.2308   0.8887  0.51586     C
O        0.235   0.2774   0.6968     O
La     0.23592  0.97981  0.25105    La
C       0.2374   0.3775   0.4677     C
H       0.2407   0.0525   0.0287     H
H       0.2466   0.3416   0.3622     H
H       0.2534   0.6584   0.8622     H
H       0.2593   0.9475   0.5287     H
C       0.2626   0.6225   0.9677     C
La     0.26408  0.02019  0.75105    La
O        0.265   0.7226   0.1968     O
C       0.2692   0.1113  0.01586     C
N       0.2715   0.4404  0.49779     N
C       0.2755   0.7943  0.52508     C
H       0.2778   0.9692   0.1456     H
H       0.2824    0.228   0.4585     H
N       0.2855   0.2729  0.00033     N
C       0.2876   0.9067  0.09102     C
C       0.2895   0.2831  0.47532     C
H       0.2935   0.0677   0.5812     H
C       0.2945   0.8037  0.80982     C
H       0.2954   0.3615   0.6327     H
H       0.3011    0.994   0.4377     H
O       0.3072   0.2464  0.29928     O
H       0.3149   0.9774   0.3692     H
H       0.3184   0.8045   0.3988     H
C       0.3226   0.7029  0.87155     C
C       0.3292   0.9287  0.12924     C
H       0.3333   0.8349   0.0404     H
C       0.3349   0.2292  0.68859     C
C       0.3378   0.3872  0.52505     C
C       0.3425   0.6026  0.93458     C
N       0.3436   0.5949   0.5523     N
O       0.3462   0.8765  0.78937     O
H       0.3468   0.8443   0.6315     H
C       0.3499   0.2891  0.51101     C
C       0.3583   0.1206  0.98601     C
C        0.362   0.7847  0.84841     C
C       0.3622   0.7741  0.55657     C
C       0.3625   0.8478  0.06676     C
C       0.3673   0.2215   0.9755     C
C       0.3709   0.0288   0.4235     C
N       0.3712     0.43  0.94775     N
C       0.3735   0.3275   0.6259     C
O       0.3744   0.1579  0.70888     O
O       0.3802   0.9346  0.69657     O
C       0.3815   0.0165  0.38293     C
O       0.3834   0.1097  0.80662     O
C       0.3839   0.6867  0.90802     C
C       0.3875   0.4211  0.56157     C
C       0.3888   0.6809  0.56969     C
H       0.3924   0.2383   0.5245     H
H       0.3926   0.6855    0.442     H
C        0.394   0.5131  0.92615     C
C       0.3959   0.5188  0.57342     C
C       0.3973   0.7708  0.39257     C
H       0.3983   0.1961   0.8703     H
H       0.4042   0.1232   0.0921     H
H       0.4063   0.0702   0.9741     H
O        0.408   0.9985  0.30136     O
C       0.4181   0.2564  0.65163     C
C       0.4209   0.8749  0.61754     C
O       0.4252   0.9613  0.20692     O
H       0.4299   0.6366   0.1205     H
H       0.4369   0.8406   0.3407     H
C       0.4382   0.8553  0.57746     C
C       0.4407   0.3498  0.59038     C
C       0.4417   0.3566  0.93059     C
C       0.4419   0.2601  0.94355     C
C       0.4419      0.7  0.41838     C
C        0.447   0.8905  0.14321     C
H       0.4544   0.0981   0.4713     H
C        0.461   0.0913  0.44339     C
C       0.4629   0.8482  0.86254     C
C       0.4677    0.792    0.358     C
C         0.47   0.5591  0.60603     C
C       0.4703   0.6565  0.60349     C
C       0.4745   0.1671   0.1013     C
H       0.4748   0.2575   0.0538     H
C       0.4785   0.1698  0.88049     C
C       0.4797   0.8078  0.08097     C
H       0.4818   0.4645   0.1256     H
C       0.4839   0.7524  0.92121     C
H       0.4841   0.2987   0.3791     H
C       0.4846   0.4912  0.89405     C
C        0.487   0.6028   0.1032     C
H       0.4876   0.4766   0.3738     H
C       0.4886   0.0609  0.36253     C
H       0.4901   0.9035   0.8473     H
C       0.4937   0.9592  0.68086     C
C       0.4996   0.0851  0.81609     C
C       0.5004   0.9149  0.18391     C
C       0.5063   0.0408  0.31914     C
H       0.5099   0.0965   0.1527     H
C       0.5114   0.9391  0.63747     C
H       0.5124   0.5234   0.6262     H
C        0.513   0.3972   0.8968     C
C       0.5154   0.5088  0.10595     C
H       0.5159   0.7013   0.6209     H
C       0.5161   0.2476  0.07879     C
H       0.5182   0.5355   0.8744     H
C       0.5203   0.1922  0.91903     C
C       0.5215   0.8302  0.11951     C
H       0.5252   0.7425   0.9462     H
C       0.5255   0.8329   0.8987     C
C       0.5297   0.3435  0.39651     C
C         0.53   0.4409  0.39397     C
C       0.5323    0.208    0.642     C
C       0.5371   0.1518  0.13746     C
C        0.539   0.9087  0.55661     C
H       0.5456   0.9019   0.5287     H
C        0.553   0.1095  0.85679     C
C       0.5581      0.3  0.58162     C
C       0.5581   0.7399  0.05645     C
C       0.5583   0.6434  0.06941     C
C       0.5593   0.6502  0.40962     C
C       0.5618   0.1447  0.42254     C
H       0.5631   0.1594   0.6593     H
H       0.5701   0.3634   0.8795     H
O       0.5748   0.0387  0.79308     O
C       0.5791   0.1251  0.38246     C
C       0.5819   0.7436  0.34837     C
O        0.592   0.0015  0.69864     O
H       0.5937   0.9298   0.0259     H
H       0.5958   0.8768   0.9079     H
H       0.6017   0.8039   0.1297     H
C       0.6027   0.2292  0.60743     C
C       0.6041   0.4812  0.42658     C
C        0.606   0.4869  0.07385     C
H       0.6074   0.3145    0.558     H
H       0.6076   0.7617   0.4755     H
C       0.6112   0.3191  0.43031     C
C       0.6125   0.5789  0.43843     C
C       0.6161   0.3133  0.09198     C
O       0.6166   0.8903  0.19338     O
C       0.6185   0.9835  0.61707     C
O       0.6198   0.0654  0.30343     O
O       0.6256   0.8421  0.29112     O
C       0.6265   0.6725   0.3741     C
N       0.6288     0.57  0.05225     N
C       0.6291   0.9712   0.5765     C
C       0.6327   0.7785   0.0245     C
C       0.6375   0.1522  0.93324     C
C       0.6378   0.2259  0.44343     C
C        0.638   0.2153  0.15159     C
C       0.6417   0.8794  0.01399     C
C       0.6501   0.7109  0.48899     C
H       0.6532   0.1557   0.3685     H
O       0.6538   0.1235  0.21063     O
N       0.6564   0.4051   0.4477     N
C       0.6575   0.3974  0.06542     C
C       0.6622   0.6128  0.47495     C
C       0.6651   0.7708  0.31141     C
H       0.6667   0.1651   0.9596     H
C       0.6708   0.0713  0.87076     C
C       0.6774   0.2971  0.12845     C
H       0.6816   0.1955   0.6012     H
H       0.6851   0.0226   0.6308     H
O       0.6928   0.7536  0.70072     O
H       0.6989    0.006   0.5623     H
H       0.7046   0.6385   0.3673     H
C       0.7055   0.1963  0.19018     C
H       0.7065   0.9323   0.4188     H
C       0.7105   0.7169  0.52468     C
C       0.7124   0.0933  0.90898     C
N       0.7145   0.7271  0.99967     N
H       0.7176    0.772   0.5415     H
H       0.7222   0.0308   0.8544     H
C       0.7245   0.2057  0.47492     C
N       0.7285   0.5596  0.50221     N
C       0.7308   0.8887  0.98414     C
O        0.735   0.2774   0.8032     O
La     0.73592  0.97981  0.24895    La
C       0.7374   0.3775   0.0323     C
H       0.7407   0.0525   0.4713     H
H       0.7466   0.3416   0.1378     H
H       0.7534   0.6584   0.6378     H
H       0.7593   0.9475   0.9713     H
C       0.7626   0.6225   0.5323     C
La     0.76408  0.02019  0.74895    La
O        0.765   0.7226   0.3032     O
C       0.7692   0.1113  0.48414     C
N       0.7715   0.4404  0.00221     N
C       0.7755   0.7943  0.97492     C
H       0.7778   0.9692   0.3544     H
H       0.7824    0.228   0.0415     H
N       0.7855   0.2729  0.49967     N
C       0.7876   0.9067  0.40898     C
C       0.7895   0.2831  0.02468     C
H       0.7935   0.0677   0.9188     H
C       0.7945   0.8037  0.69018     C
H       0.7954   0.3615   0.8673     H
H       0.8011    0.994   0.0623     H
O       0.8072   0.2464  0.20072     O
H       0.8149   0.9774   0.1308     H
H       0.8184   0.8045   0.1012     H
C       0.8226   0.7029  0.62845     C
C       0.8292   0.9287  0.37076     C
H       0.8333   0.8349   0.4596     H
C       0.8349   0.2292  0.81141     C
C       0.8378   0.3872  0.97495     C
C       0.8425   0.6026  0.56542     C
N       0.8436   0.5949   0.9477     N
O       0.8462   0.8765  0.71063     O
H       0.8468   0.8443   0.8685     H
C       0.8499   0.2891  0.98899     C
C       0.8583   0.1206  0.51399     C
C        0.862   0.7847  0.65159     C
C       0.8622   0.7741  0.94343     C
C       0.8625   0.8478  0.43324     C
C       0.8673   0.2215   0.5245     C
C       0.8709   0.0288   0.0765     C
N       0.8712     0.43  0.55225     N
C       0.8735   0.3275   0.8741     C
O       0.8744   0.1579  0.79112     O
O       0.8802   0.9346  0.80343     O
C       0.8815   0.0165  0.11707     C
O       0.8834   0.1097  0.69338     O
C       0.8839   0.6867  0.59198     C
C       0.8875   0.4211  0.93843     C
C       0.8888   0.6809  0.93031     C
H       0.8924   0.2383   0.9755     H
H       0.8926   0.6855    0.058     H
C        0.894   0.5131  0.57385     C
C       0.8959   0.5188  0.92658     C
C       0.8973   0.7708  0.10743     C
H       0.8983   0.1961   0.6297     H
H       0.9042   0.1232   0.4079     H
H       0.9063   0.0702   0.5259     H
O        0.908   0.9985  0.19864     O
C       0.9181   0.2564  0.84837     C
C       0.9209   0.8749  0.88246     C
O       0.9252   0.9613  0.29308     O
H       0.9299   0.6366   0.3795     H
H       0.9369   0.8406   0.1593     H
C       0.9382   0.8553  0.92254     C
C       0.9407   0.3498  0.90962     C
C       0.9417   0.3566  0.56941     C
C       0.9419   0.2601  0.55645     C
C       0.9419      0.7  0.08162     C
C        0.947   0.8905  0.35679     C
H       0.9544   0.0981   0.0287     H
C        0.961   0.0913  0.05661     C
C       0.9629   0.8482  0.63746     C
C       0.9677    0.792    0.142     C
C         0.97   0.5591  0.89397     C
C       0.9703   0.6565  0.89651     C
C       0.9745   0.1671   0.3987     C
H       0.9748   0.2575   0.4462     H
C       0.9785   0.1698  0.61951     C
C       0.9797   0.8078  0.41903     C
H       0.9818   0.4645   0.3744     H
C       0.9839   0.7524  0.57879     C
H       0.9841   0.2987   0.1209     H
C       0.9846   0.4912  0.60595     C
C        0.987   0.6028   0.3968     C
H       0.9876   0.4766   0.1262     H
C       0.9886   0.0609  0.13747     C
H       0.9901   0.9035   0.6527     H
C       0.9937   0.9592  0.81914     C
C       0.9996   0.0851  0.68391     C
