data_I
_chemical_name_common  '/home/zhangsd/repos/MofS-CGCNN/ML/data/TSD/clean_cifs/MIHLUL_clean'
_cell_length_a 11.77350
_cell_length_b 18.61440
_cell_length_c 27.90220
_cell_angle_alpha 90.00000
_cell_angle_beta  90.00000
_cell_angle_gamma 100.08500
_space_group_name_H-M_alt      'P 1'


loop_
_space_group_symop_operation_xyz
  'x, y, z' 

loop_
_atom_site_label
_atom_site_fract_x
_atom_site_fract_y
_atom_site_fract_z
_atom_site_type_symbol
C       0.0055   0.7485   0.9913     C
H       0.0124   0.4131   0.9608     H
C       0.0167   0.9848   0.5253     C
C        0.018     0.99   0.0253     C
N       0.0185   0.4678   0.6881     N
H       0.0186   0.2206   0.7292     H
C       0.0226   0.6346   0.0295     C
C       0.0227   0.1107   0.7868     C
N       0.0248   0.5666    0.606     N
O       0.0291   0.1618   0.2596     O
C       0.0296    0.417    0.724     C
C       0.0334   0.6033   0.5633     C
H       0.0347   0.2929   0.2912     H
H         0.04   0.2212   0.0244     H
C       0.0437   0.3205    0.995     C
C       0.0438   0.5689    0.237     C
Dy     0.04493  0.04463  0.21701    Dy
H       0.0461   0.5704   0.4311     H
C       0.0485   0.3441   0.4367     C
H       0.0522   0.4711   0.6598     H
C       0.0542   0.4074    0.367     C
O       0.0542   0.9134   0.2428     O
C       0.0547   0.2393   0.7581     C
H        0.055   0.5959    0.208     H
C       0.0556   0.4881   0.2946     C
H       0.0573   0.6548   0.3668     H
H       0.0597   0.3109   0.4614     H
O       0.0633   0.0211   0.9437     O
C       0.0633   0.1925   0.7956     C
O       0.0669   0.0318   0.4454     O
O       0.0699   0.0688   0.8136     O
C       0.0727   0.6209   0.4365     C
C       0.0761   0.6711   0.3986     C
C       0.0878   0.4289   0.3193     C
O       0.0898   0.9828   0.7181     O
H       0.0918   0.6152   0.7414     H
C       0.0944   0.5111   0.2484     C
C       0.0978   0.3134   0.7618     C
C       0.1013   0.3653   0.7209     C
C       0.1023   0.3534   0.3948     C
H        0.103   0.7773   0.3834     H
C       0.1065    0.215   0.8378     C
C       0.1068   0.7432   0.4084     C
C       0.1074   0.5946   0.5238     C
C       0.1085   0.6456   0.4822     C
C       0.1104   0.3124   0.2804     C
H       0.1112   0.1817   0.8632     H
C       0.1161   0.1937   0.2379     C
O       0.1177   0.9757   0.5323     O
C       0.1198   0.7743      0.0     C
O       0.1213   0.9867   0.0333     O
H       0.1225   0.3384    0.002     H
O       0.1334   0.8814   0.9508     O
O       0.1377   0.8929   0.4364     O
O       0.1377   0.9271   0.8041     O
C       0.1388   0.6596   0.0396     C
H       0.1416   0.7183   0.1273     H
C       0.1418   0.3393   0.8079     C
C       0.1436   0.7693   0.4532     C
C       0.1452   0.2904   0.8435     C
C       0.1461   0.7199   0.4917     C
H       0.1462   0.4901   0.2289     H
H       0.1551    0.486   0.5848     H
C       0.1601   0.3839   0.2935     C
O        0.161    0.163   0.2031     O
H       0.1624    0.329   0.3845     H
H       0.1627   0.5567   0.9702     H
H        0.168   0.3899   0.8133     H
C       0.1689   0.6337   0.7509     C
C       0.1704   0.2685   0.2515     C
C       0.1715    0.538   0.5208     C
H       0.1722   0.7364   0.5226     H
C       0.1745   0.3564   0.6816     C
H       0.1752   0.3078   0.8737     H
O       0.1756   0.0604   0.2813     O
C        0.178   0.8506   0.9859     C
H       0.1783   0.7306   0.7166     H
C        0.181   0.8504   0.4625     C
N       0.1839    0.396   0.6406     N
N       0.1861   0.4883    0.556     N
C       0.1868   0.7309   0.0247     C
C       0.1889   0.9738   0.7238     C
H       0.1904   0.5432   0.7871     H
C       0.1978   0.6912   0.1382     C
C       0.2109   0.5352   0.9911     C
C       0.2114   0.6145   0.0656     C
C       0.2194   0.7028   0.7366     C
C       0.2226   0.9435    0.774     C
C       0.2275   0.5909   0.7783     C
O       0.2323   0.0181   0.1938     O
H       0.2345   0.2502   0.5314     H
C       0.2381   0.5221   0.4807     C
O       0.2387   0.1172    0.508     O
C       0.2413    0.558   0.0383     C
C       0.2415   0.6337   0.1127     C
O       0.2443   0.1274   0.9948     O
H       0.2452   0.7324   0.2042     H
H       0.2453   0.5481   0.4513     H
C       0.2473   0.3021   0.6798     C
Dy     0.24889  0.99901  0.96756    Dy
Dy     0.25111  0.00099  0.46756    Dy
C       0.2527   0.6979   0.1798     C
H       0.2547   0.4519   0.9513     H
H       0.2548   0.2676   0.7042     H
O       0.2557   0.8726   0.4948     O
C       0.2585   0.3663   0.6127     C
C       0.2587    0.442   0.5383     C
O       0.2613   0.8828    0.008     O
C       0.2619   0.4779   0.9807     C
H       0.2655   0.7498   0.0314     H
O       0.2677   0.9819   0.6938     O
C       0.2725   0.4091   0.2783     C
C       0.2774   0.0565    0.274     C
C       0.2806   0.2972   0.2366     C
C       0.2886   0.3855   0.5656     C
C       0.2891   0.4648   0.4911     C
C       0.3022   0.3088   0.6382     C
H       0.3096   0.4568   0.2871     H
C       0.3111   0.0262   0.2238     C
C       0.3132   0.2691   0.5247     C
N       0.3139   0.5117    0.056     N
N       0.3161    0.604   0.1406     N
C        0.319   0.1496   0.9625     C
H       0.3217   0.2694   0.2166     H
C        0.322   0.1494   0.4859     C
O       0.3244   0.9396   0.7813     O
H       0.3248   0.6922   0.3737     H
C       0.3255   0.6436   0.1816     C
H       0.3278   0.2636   0.0226     H
C       0.3285    0.462   0.0208     C
C       0.3296   0.7315   0.7515     C
C       0.3311   0.3663   0.2509     C
H        0.332   0.6101   0.3133     H
H       0.3373   0.4433   0.4702     H
H       0.3376    0.671   0.8845     H
O        0.339    0.837   0.7031     O
C       0.3399   0.6161   0.7935     C
H       0.3449    0.514   0.0848     H
H       0.3538   0.5099   0.7289     H
C       0.3539   0.2801   0.9917     C
C       0.3548   0.7096   0.3435     C
C       0.3564   0.2307   0.9532     C
C       0.3582   0.6607   0.3079     C
H       0.3584   0.2817   0.6273     H
C       0.3612   0.3404   0.5396     C
O       0.3623   0.0729   0.3041     O
O       0.3623   0.1071   0.9364     O
O       0.3666   0.1186   0.4508     O
H       0.3775   0.6616    0.502     H
O       0.3787   0.0133   0.5333     O
C       0.3802   0.2257      0.5     C
O       0.3823   0.0243   0.0323     O
C       0.3839   0.8063   0.7379     C
H       0.3888   0.8183   0.3632     H
C       0.3896   0.6876   0.7804     C
C       0.3915   0.3544   0.9822     C
C       0.3926   0.4054   0.0238     C
C       0.3932   0.2568   0.9084     C
C       0.3935    0.785   0.3378     C
H        0.397   0.2227   0.8834     H
C       0.3977   0.6466   0.8948     C
C       0.3987   0.6347   0.2209     C
C       0.4022   0.6866   0.2618     C
C       0.4056   0.4889   0.7484     C
H       0.4082   0.3848   0.2414     H
O       0.4102   0.0172   0.2181     O
C       0.4122   0.5711   0.8193     C
C       0.4239   0.3289   0.8986     C
C       0.4273   0.3791   0.9365     C
O       0.4301   0.9312   0.3136     O
O       0.4331   0.9682   0.9454     O
C       0.4367   0.8075   0.2956     C
O       0.4367   0.9789   0.4437     O
H       0.4403   0.6891   0.9614     H
H       0.4427   0.3452   0.8668     H
C       0.4444   0.5119   0.7946     C
H        0.445   0.4041    0.708     H
C       0.4453   0.7607   0.2581     C
O       0.4458   0.0866   0.7428     O
C       0.4458   0.5926    0.867     C
H       0.4478   0.5289   0.1598     H
C       0.4515   0.6559   0.9367     C
H       0.4539   0.4296   0.9311     H
Dy     0.45507  0.95537  0.71701    Dy
C       0.4562   0.4311    0.737     C
C       0.4563   0.6795    0.495     C
H         0.46   0.7788   0.5244     H
H       0.4653   0.7071   0.7912     H
C       0.4666   0.3967   0.0633     C
C       0.4704    0.583    0.224     C
O       0.4709   0.8382   0.7596     O
N       0.4752   0.4334    0.106     N
C       0.4773   0.8893   0.2868     C
C       0.4774   0.3654   0.5295     C
H       0.4814   0.7794   0.2292     H
N       0.4815   0.5322   0.1881     N
C        0.482     0.01   0.5253     C
C       0.4833   0.0152   0.0253     C
H       0.4876   0.5869   0.4608     H
C       0.4945   0.2515   0.4913     C
C       0.5055   0.7485   0.5087     C
H       0.5124   0.4131   0.5392     H
C       0.5167   0.9848   0.9747     C
C        0.518     0.99   0.4747     C
N       0.5185   0.4678   0.8119     N
H       0.5186   0.2206   0.7708     H
C       0.5226   0.6346   0.4705     C
C       0.5227   0.1107   0.7132     C
N       0.5248   0.5666    0.894     N
O       0.5291   0.1618   0.2404     O
C       0.5296    0.417    0.776     C
C       0.5334   0.6033   0.9367     C
H       0.5347   0.2929   0.2088     H
H         0.54   0.2212   0.4756     H
C       0.5437   0.3205    0.505     C
C       0.5438   0.5689    0.263     C
Dy     0.54493  0.04463  0.28299    Dy
H       0.5461   0.5704   0.0689     H
C       0.5485   0.3441   0.0633     C
H       0.5522   0.4711   0.8402     H
C       0.5542   0.4074    0.133     C
O       0.5542   0.9134   0.2572     O
C       0.5547   0.2393   0.7419     C
H        0.555   0.5959    0.292     H
C       0.5556   0.4881   0.2054     C
H       0.5573   0.6548   0.1332     H
H       0.5597   0.3109   0.0386     H
O       0.5633   0.0211   0.5563     O
C       0.5633   0.1925   0.7044     C
O       0.5669   0.0318   0.0546     O
O       0.5699   0.0688   0.6864     O
C       0.5727   0.6209   0.0635     C
C       0.5761   0.6711   0.1014     C
C       0.5878   0.4289   0.1807     C
O       0.5898   0.9828   0.7819     O
H       0.5918   0.6152   0.7586     H
C       0.5944   0.5111   0.2516     C
C       0.5978   0.3134   0.7382     C
C       0.6013   0.3653   0.7791     C
C       0.6023   0.3534   0.1052     C
H        0.603   0.7773   0.1166     H
C       0.6065    0.215   0.6622     C
C       0.6068   0.7432   0.0916     C
C       0.6074   0.5946   0.9762     C
C       0.6085   0.6456   0.0178     C
C       0.6104   0.3124   0.2196     C
H       0.6112   0.1817   0.6368     H
C       0.6161   0.1937   0.2621     C
O       0.6177   0.9757   0.9677     O
C       0.6198   0.7743      0.5     C
O       0.6213   0.9867   0.4667     O
H       0.6225   0.3384    0.498     H
O       0.6334   0.8814   0.5492     O
O       0.6377   0.8929   0.0636     O
O       0.6377   0.9271   0.6959     O
C       0.6388   0.6596   0.4604     C
H       0.6416   0.7183   0.3727     H
C       0.6418   0.3393   0.6921     C
C       0.6436   0.7693   0.0468     C
C       0.6452   0.2904   0.6565     C
C       0.6461   0.7199   0.0083     C
H       0.6462   0.4901   0.2711     H
H       0.6551    0.486   0.9152     H
C       0.6601   0.3839   0.2065     C
O        0.661    0.163   0.2969     O
H       0.6624    0.329   0.1155     H
H       0.6627   0.5567   0.5298     H
H        0.668   0.3899   0.6867     H
C       0.6689   0.6337   0.7491     C
C       0.6704   0.2685   0.2485     C
C       0.6715    0.538   0.9792     C
H       0.6722   0.7364   0.9774     H
C       0.6745   0.3564   0.8184     C
H       0.6752   0.3078   0.6263     H
O       0.6756   0.0604   0.2187     O
C        0.678   0.8506   0.5141     C
H       0.6783   0.7306   0.7834     H
C        0.681   0.8504   0.0375     C
N       0.6839    0.396   0.8594     N
N       0.6861   0.4883    0.944     N
C       0.6868   0.7309   0.4753     C
C       0.6889   0.9738   0.7762     C
H       0.6904   0.5432   0.7129     H
C       0.6978   0.6912   0.3618     C
C       0.7109   0.5352   0.5089     C
C       0.7114   0.6145   0.4344     C
C       0.7194   0.7028   0.7634     C
C       0.7226   0.9435    0.726     C
C       0.7275   0.5909   0.7217     C
O       0.7323   0.0181   0.3062     O
H       0.7345   0.2502   0.9686     H
C       0.7381   0.5221   0.0193     C
O       0.7387   0.1172    0.992     O
C       0.7413    0.558   0.4617     C
C       0.7415   0.6337   0.3873     C
O       0.7443   0.1274   0.5052     O
H       0.7452   0.7324   0.2958     H
H       0.7453   0.5481   0.0487     H
C       0.7473   0.3021   0.8202     C
Dy     0.74889  0.99901  0.53244    Dy
Dy     0.75111  0.00099  0.03244    Dy
C       0.7527   0.6979   0.3202     C
H       0.7547   0.4519   0.5487     H
H       0.7548   0.2676   0.7958     H
O       0.7557   0.8726   0.0052     O
C       0.7585   0.3663   0.8873     C
C       0.7587    0.442   0.9617     C
O       0.7613   0.8828    0.492     O
C       0.7619   0.4779   0.5193     C
H       0.7655   0.7498   0.4686     H
O       0.7677   0.9819   0.8062     O
C       0.7725   0.4091   0.2217     C
C       0.7774   0.0565    0.226     C
C       0.7806   0.2972   0.2634     C
C       0.7886   0.3855   0.9344     C
C       0.7891   0.4648   0.0089     C
C       0.8022   0.3088   0.8618     C
H       0.8096   0.4568   0.2129     H
C       0.8111   0.0262   0.2762     C
C       0.8132   0.2691   0.9753     C
N       0.8139   0.5117    0.444     N
N       0.8161    0.604   0.3594     N
C        0.819   0.1496   0.5375     C
H       0.8217   0.2694   0.2834     H
C        0.822   0.1494   0.0141     C
O       0.8244   0.9396   0.7187     O
H       0.8248   0.6922   0.1263     H
C       0.8255   0.6436   0.3184     C
H       0.8278   0.2636   0.4774     H
C       0.8285    0.462   0.4792     C
C       0.8296   0.7315   0.7485     C
C       0.8311   0.3663   0.2491     C
H        0.832   0.6101   0.1867     H
H       0.8373   0.4433   0.0298     H
H       0.8376    0.671   0.6155     H
O        0.839    0.837   0.7969     O
C       0.8399   0.6161   0.7065     C
H       0.8449    0.514   0.4152     H
H       0.8538   0.5099   0.7711     H
C       0.8539   0.2801   0.5083     C
C       0.8548   0.7096   0.1565     C
C       0.8564   0.2307   0.5468     C
C       0.8582   0.6607   0.1921     C
H       0.8584   0.2817   0.8727     H
C       0.8612   0.3404   0.9604     C
O       0.8623   0.0729   0.1959     O
O       0.8623   0.1071   0.5636     O
O       0.8666   0.1186   0.0492     O
H       0.8775   0.6616    0.998     H
O       0.8787   0.0133   0.9667     O
C       0.8802   0.2257      0.0     C
O       0.8823   0.0243   0.4677     O
C       0.8839   0.8063   0.7621     C
H       0.8888   0.8183   0.1368     H
C       0.8896   0.6876   0.7196     C
C       0.8915   0.3544   0.5178     C
C       0.8926   0.4054   0.4762     C
C       0.8932   0.2568   0.5916     C
C       0.8935    0.785   0.1622     C
H        0.897   0.2227   0.6166     H
C       0.8977   0.6466   0.6052     C
C       0.8987   0.6347   0.2791     C
C       0.9022   0.6866   0.2382     C
C       0.9056   0.4889   0.7516     C
H       0.9082   0.3848   0.2586     H
O       0.9102   0.0172   0.2819     O
C       0.9122   0.5711   0.6807     C
C       0.9239   0.3289   0.6014     C
C       0.9273   0.3791   0.5635     C
O       0.9301   0.9312   0.1864     O
O       0.9331   0.9682   0.5546     O
C       0.9367   0.8075   0.2044     C
O       0.9367   0.9789   0.0563     O
H       0.9403   0.6891   0.5386     H
H       0.9427   0.3452   0.6332     H
C       0.9444   0.5119   0.7054     C
H        0.945   0.4041    0.792     H
C       0.9453   0.7607   0.2419     C
O       0.9458   0.0866   0.7572     O
C       0.9458   0.5926    0.633     C
H       0.9478   0.5289   0.3402     H
C       0.9515   0.6559   0.5633     C
H       0.9539   0.4296   0.5689     H
Dy     0.95507  0.95537  0.78299    Dy
C       0.9562   0.4311    0.763     C
C       0.9563   0.6795    0.005     C
H         0.96   0.7788   0.9756     H
H       0.9653   0.7071   0.7088     H
C       0.9666   0.3967   0.4367     C
C       0.9704    0.583    0.276     C
O       0.9709   0.8382   0.7404     O
N       0.9752   0.4334    0.394     N
C       0.9773   0.8893   0.2132     C
C       0.9774   0.3654   0.9705     C
H       0.9814   0.7794   0.2708     H
N       0.9815   0.5322   0.3119     N
C        0.982     0.01   0.9747     C
C       0.9833   0.0152   0.4747     C
H       0.9876   0.5869   0.0392     H
C       0.9945   0.2515   0.0087     C
