data_I
_chemical_name_common  '/home/zhangsd/repos/MofS-CGCNN/ML/data/TSD/clean_cifs/MINVUA01_SL'
_cell_length_a  6.81200
_cell_length_b 16.73310
_cell_length_c 13.03800
_cell_angle_alpha 90.00000
_cell_angle_beta  90.00000
_cell_angle_gamma 90.00000
_space_group_name_H-M_alt      'P 1'


loop_
_space_group_symop_operation_xyz
  'x, y, z' 

loop_
_atom_site_label
_atom_site_fract_x
_atom_site_fract_y
_atom_site_fract_z
_atom_site_type_symbol
C         -0.0    0.054    0.461     C
C         -0.0    0.125    0.388     C
H         -0.0     0.25   0.1093     H
O         -0.0     0.25    0.186     O
C          0.0    0.375    0.388     C
C          0.0    0.446    0.461     C
C          0.0    0.554    0.539     C
C          0.0    0.625    0.612     C
O         -0.0     0.75    0.814     O
H         -0.0     0.75   0.8907     H
C         -0.0    0.875    0.612     C
C         -0.0    0.946    0.539     C
O        0.156    0.166    0.343     O
O        0.156    0.334    0.343     O
O        0.156    0.666    0.657     O
O        0.156    0.834    0.657     O
H      0.16038  0.07476  0.02287     H
H      0.16038  0.42524  0.02287     H
H      0.16038  0.57476  0.97713     H
H      0.16038  0.92524  0.97713     H
C        0.196     0.04    0.482     C
C        0.196     0.46    0.482     C
C        0.196     0.54    0.518     C
C        0.196     0.96    0.518     C
Cr        0.25     0.25     0.25    Cr
Cr        0.25     0.75     0.75    Cr
C        0.304     0.04    0.018     C
C        0.304     0.46    0.018     C
C        0.304     0.54    0.982     C
C        0.304     0.96    0.982     C
H      0.33962  0.07476  0.47713     H
H      0.33962  0.42524  0.47713     H
H      0.33962  0.57476  0.52287     H
H      0.33962  0.92524  0.52287     H
O        0.344    0.166    0.157     O
O        0.344    0.334    0.157     O
O        0.344    0.666    0.843     O
O        0.344    0.834    0.843     O
C          0.5    0.054    0.039     C
C          0.5    0.125    0.112     C
O          0.5     0.25    0.314     O
H          0.5     0.25   0.3907     H
C          0.5    0.375    0.112     C
C          0.5    0.446    0.039     C
C          0.5    0.554    0.961     C
C          0.5    0.625    0.888     C
H          0.5     0.75   0.6093     H
O          0.5     0.75    0.686     O
C          0.5    0.875    0.888     C
C          0.5    0.946    0.961     C
O        0.656    0.166    0.157     O
O        0.656    0.334    0.157     O
O        0.656    0.666    0.843     O
O        0.656    0.834    0.843     O
H      0.66038  0.07476  0.47713     H
H      0.66038  0.42524  0.47713     H
H      0.66038  0.57476  0.52287     H
H      0.66038  0.92524  0.52287     H
C        0.696     0.04    0.018     C
C        0.696     0.46    0.018     C
C        0.696     0.54    0.982     C
C        0.696     0.96    0.982     C
Cr        0.75     0.25     0.25    Cr
Cr        0.75     0.75     0.75    Cr
C        0.804     0.04    0.482     C
C        0.804     0.46    0.482     C
C        0.804     0.54    0.518     C
C        0.804     0.96    0.518     C
H      0.83962  0.07476  0.02287     H
H      0.83962  0.42524  0.02287     H
H      0.83962  0.57476  0.97713     H
H      0.83962  0.92524  0.97713     H
O        0.844    0.166    0.343     O
O        0.844    0.334    0.343     O
O        0.844    0.666    0.657     O
O        0.844    0.834    0.657     O
