data_I
_chemical_name_common  '/home/zhangsd/repos/MofS-CGCNN/ML/data/TSD/clean_cifs/MIQLII_clean'
_cell_length_a 10.24960
_cell_length_b 13.45830
_cell_length_c 16.24220
_cell_angle_alpha 90.00000
_cell_angle_beta  95.72000
_cell_angle_gamma 90.00000
_space_group_name_H-M_alt      'P 1'


loop_
_space_group_symop_operation_xyz
  'x, y, z' 

loop_
_atom_site_label
_atom_site_fract_x
_atom_site_fract_y
_atom_site_fract_z
_atom_site_type_symbol
C      0.00141  0.64009  0.31453     C
C      0.00154  0.14622  0.88163     C
C      0.00282  0.71389  0.24461     C
H        0.003   0.0985   0.9231     H
Zn     0.02167  0.29392    0.436    Zn
Br     0.02919  0.14479  0.50806    Br
O      0.04954  0.40997  0.50687     O
O      0.10696  0.38872  0.66723     O
O      0.11188   0.6123  0.35001     O
C      0.11537  0.25343  0.79489     C
C      0.11738  0.82094  0.15662     C
C      0.11873  0.18391  0.85865     C
C      0.11985  0.75089  0.21999     C
Zn     0.12411  0.53153  0.45508    Zn
O      0.15135  0.68432  0.62476     O
O      0.15678  0.30689   0.3581     O
H       0.1935   0.2782   0.7786     H
H       0.1996   0.7288   0.2459     H
O      0.23561  0.94208  0.09133     O
O      0.24215  0.09663  0.96509     O
C      0.24264  0.86051  0.12785     C
C      0.24705  0.15277  0.90304     C
C      0.25295  0.65277  0.59696     C
C      0.25736  0.36051  0.37215     C
O      0.25785  0.59663  0.53491     O
O      0.26439  0.44208  0.40867     O
H       0.3004   0.2288   0.2541     H
H       0.3065   0.7782   0.7214     H
O      0.34322  0.80689   0.1419     O
O      0.34865  0.18432  0.87524     O
Zn     0.37589  0.03153  0.04492    Zn
C      0.38015  0.25089  0.28001     C
C      0.38127  0.68391  0.64135     C
C      0.38262  0.32094  0.34338     C
C      0.38463  0.75343  0.70511     C
O      0.38812   0.1123  0.14999     O
O      0.39304  0.88872  0.83277     O
O      0.45046  0.90997  0.99313     O
Br     0.47081  0.64479  0.99194    Br
Zn     0.47833  0.79392    0.064    Zn
H        0.497   0.5985   0.5769     H
C      0.49718  0.21389  0.25539     C
C      0.49846  0.64622  0.61837     C
C      0.49859  0.14009  0.18547     C
C      0.50141  0.85991  0.81453     C
C      0.50154  0.35378  0.38163     C
C      0.50282  0.78611  0.74461     C
H        0.503   0.4015   0.4231     H
Zn     0.52167  0.20608    0.936    Zn
Br     0.52919  0.35521  0.00806    Br
O      0.54954  0.09003  0.00687     O
O      0.60696  0.11128  0.16723     O
O      0.61188   0.8877  0.85001     O
C      0.61537  0.24657  0.29489     C
C      0.61738  0.67906  0.65662     C
C      0.61873  0.31609  0.35865     C
C      0.61985  0.74911  0.71999     C
Zn     0.62411  0.96847  0.95508    Zn
O      0.65135  0.81568  0.12476     O
O      0.65678  0.19311   0.8581     O
H       0.6935   0.2218   0.2786     H
H       0.6996   0.7712   0.7459     H
O      0.73561  0.55792  0.59133     O
O      0.74215  0.40337  0.46509     O
C      0.74264  0.63949  0.62785     C
C      0.74705  0.34723  0.40304     C
C      0.75295  0.84723  0.09696     C
C      0.75736  0.13949  0.87215     C
O      0.75785  0.90337  0.03491     O
O      0.76439  0.05792  0.90867     O
H       0.8004   0.2712   0.7541     H
H       0.8065   0.7218   0.2214     H
O      0.84322  0.69311   0.6419     O
O      0.84865  0.31568  0.37524     O
Zn     0.87589  0.46847  0.54492    Zn
C      0.88015  0.24911  0.78001     C
C      0.88127  0.81609  0.14135     C
C      0.88262  0.17906  0.84338     C
C      0.88463  0.74657  0.20511     C
O      0.88812   0.3877  0.64999     O
O      0.89304  0.61128  0.33277     O
O      0.95046  0.59003  0.49313     O
Br     0.97081  0.85521  0.49194    Br
Zn     0.97833  0.70608    0.564    Zn
H        0.997   0.9015   0.0769     H
C      0.99718  0.28611  0.75539     C
C      0.99846  0.85378  0.11837     C
C      0.99859  0.35991  0.68547     C
