data_I
_chemical_name_common  '/home/zhangsd/repos/MofS-CGCNN/ML/data/TSD/clean_cifs/MOYNIY_clean'
_cell_length_a 20.55110
_cell_length_b 21.50040
_cell_length_c 14.06810
_cell_angle_alpha 90.00000
_cell_angle_beta  130.54700
_cell_angle_gamma 90.00000
_space_group_name_H-M_alt      'P 1'


loop_
_space_group_symop_operation_xyz
  'x, y, z' 

loop_
_atom_site_label
_atom_site_fract_x
_atom_site_fract_y
_atom_site_fract_z
_atom_site_type_symbol
Cd         0.0      0.0      0.0    Cd
Cd         0.0      0.0      0.5    Cd
Cd         0.0  0.04131     0.25    Cd
Cd         0.0  0.95869     0.75    Cd
O       0.0072  0.08915   0.0913     O
O       0.0072  0.91085   0.5913     O
H       0.0106   0.2996   0.4737     H
H       0.0106   0.7004   0.9737     H
H       0.0221   0.1468   0.5939     H
H       0.0221   0.8532   0.0939     H
H       0.0232   0.3558   0.9982     H
H       0.0232   0.6442   0.4982     H
C        0.037    0.327   0.0612     C
C        0.037    0.673   0.5612     C
O       0.0472  0.04031   0.9039     O
O       0.0472  0.95969   0.4039     O
H        0.049   0.3495     0.13     H
H        0.049   0.6505     0.63     H
C       0.0567   0.1223   0.4432     C
C       0.0567   0.8777   0.9432     C
C       0.0659   0.1727   0.6145     C
C       0.0659   0.8273   0.1145     C
H       0.0821   0.2181   0.7539     H
H       0.0821   0.7819   0.2539     H
O       0.0882   0.1176    0.392     O
O       0.0882   0.8824    0.892     O
H       0.0933   0.2169   0.1679     H
H       0.0933   0.7831   0.6679     H
C       0.0944   0.1683   0.5473     C
C       0.0944   0.8317   0.0473     C
C        0.102   0.2149   0.7107     C
C        0.102   0.7851   0.2107     C
H       0.1035   0.2659   0.0379     H
H       0.1035   0.7341   0.5379     H
C       0.1125   0.0524   0.9152     C
C       0.1125   0.9476   0.4152     C
C       0.1159   0.2888   0.1075     C
C       0.1159   0.7112   0.6075     C
H       0.1232   0.4397   0.4253     H
H       0.1232   0.5603   0.9253     H
H        0.125   0.1125   0.0924     H
H        0.125   0.8875   0.5924     H
O       0.1275   0.0222   0.8554     O
O       0.1275   0.9778   0.3554     O
H       0.1358   0.3449   0.5263     H
H       0.1358   0.6551   0.0263     H
C       0.1399   0.2462   0.2033     C
C       0.1399   0.7538   0.7033     C
H       0.1462   0.2693   0.2681     H
H       0.1462   0.7307   0.7681     H
C       0.1617   0.2061   0.5799     C
C       0.1617   0.7939   0.0799     C
H       0.1633   0.3167   0.1397     H
H       0.1633   0.6833   0.6397     H
C       0.1654   0.1279   0.0882     C
C       0.1654   0.8721   0.5882     C
C       0.1687   0.2529   0.7425     C
C       0.1687   0.7471   0.2425     C
C       0.1712   0.1042   0.0013     C
C       0.1712   0.8958   0.5013     C
H       0.1717   0.3904   0.4094     H
H       0.1717   0.6096   0.9094     H
H       0.1745   0.3077   0.9323     H
H       0.1745   0.6923   0.4323     H
C       0.1748   0.4157   0.4684     C
C       0.1748   0.5843   0.9684     C
H       0.1814   0.2032   0.5364     H
H       0.1814   0.7968   0.0364     H
C        0.185   0.3723   0.5686     C
C        0.185   0.6277   0.0686     C
H       0.1863   0.3979   0.6266     H
H       0.1863   0.6021   0.1266     H
H       0.1902   0.1362   0.3211     H
H       0.1902   0.8638   0.8211     H
C       0.1988    0.248   0.6777     C
C       0.1988    0.752   0.1777     C
C       0.2135   0.3242   0.9263     C
C       0.2135   0.6758   0.4263     C
C       0.2184   0.3013   0.8379     C
C       0.2184   0.6987   0.3379     C
C       0.2215   0.1752   0.1685     C
C       0.2215   0.8248   0.6685     C
H       0.2231   0.4431     0.51     H
H       0.2231   0.5569     0.01     H
C       0.2256   0.2076   0.2673     C
C       0.2256   0.7924   0.7673     C
C       0.2315   0.1277    0.995     C
C       0.2315   0.8723    0.495     C
H       0.2351   0.1111   0.9375     H
H       0.2351   0.8889   0.4375     H
C       0.2389   0.1641   0.3635     C
C       0.2389   0.8359   0.8635     C
H       0.2401   0.1886   0.4225     H
H       0.2401   0.8114   0.9225     H
H       0.2599   0.3114   0.5775     H
H       0.2599   0.6886   0.0775     H
C       0.2611   0.3359   0.6365     C
C       0.2611   0.6641   0.1365     C
H       0.2649   0.3889   0.0625     H
H       0.2649   0.6111   0.5625     H
C       0.2685   0.3723    0.005     C
C       0.2685   0.6277    0.505     C
C       0.2744   0.2924   0.7327     C
C       0.2744   0.7076   0.2327     C
H       0.2769   0.0569     0.49     H
H       0.2769   0.9431     0.99     H
C       0.2785   0.3248   0.8315     C
C       0.2785   0.6752   0.3315     C
C       0.2816   0.1987   0.1621     C
C       0.2816   0.8013   0.6621     C
C       0.2865   0.1758   0.0737     C
C       0.2865   0.8242   0.5737     C
C       0.3012    0.252   0.3223     C
C       0.3012    0.748   0.8223     C
H       0.3098   0.3638   0.6789     H
H       0.3098   0.6362   0.1789     H
H       0.3137   0.1021   0.3734     H
H       0.3137   0.8979   0.8734     H
C        0.315   0.1277   0.4314     C
C        0.315   0.8723   0.9314     C
H       0.3186   0.2968   0.4636     H
H       0.3186   0.7032   0.9636     H
C       0.3252   0.0843   0.5316     C
C       0.3252   0.9157   0.0316     C
H       0.3255   0.1923   0.0677     H
H       0.3255   0.8077   0.5677     H
H       0.3283   0.1096   0.5906     H
H       0.3283   0.8904   0.0906     H
C       0.3288   0.3958   0.9987     C
C       0.3288   0.6042   0.4987     C
C       0.3313   0.2471   0.2575     C
C       0.3313   0.7529   0.7575     C
C       0.3346   0.3721   0.9118     C
C       0.3346   0.6279   0.4118     C
H       0.3367   0.1833   0.8603     H
H       0.3367   0.8167   0.3603     H
C       0.3383   0.2939   0.4201     C
C       0.3383   0.7061   0.9201     C
H       0.3538   0.2307   0.7319     H
H       0.3538   0.7693   0.2319     H
C       0.3601   0.2538   0.7967     C
C       0.3601   0.7462   0.2967     C
H       0.3642   0.1551   0.4737     H
H       0.3642   0.8449   0.9737     H
O       0.3725   0.4778   0.1446     O
O       0.3725   0.5222   0.6446     O
H        0.375   0.3875   0.9076     H
H        0.375   0.6125   0.4076     H
H       0.3768   0.0603   0.5747     H
H       0.3768   0.9397   0.0747     H
C       0.3841   0.2112   0.8925     C
C       0.3841   0.7888   0.3925     C
C       0.3875   0.4476   0.0848     C
C       0.3875   0.5524   0.5848     C
H       0.3965   0.2341   0.9621     H
H       0.3965   0.7659   0.4621     H
C        0.398   0.2851   0.2893     C
C        0.398   0.7149   0.7893     C
C       0.4056   0.3317   0.4527     C
C       0.4056   0.6683   0.9527     C
H       0.4067   0.2831   0.8321     H
H       0.4067   0.7169   0.3321     H
O       0.4118   0.3824    0.608     O
O       0.4118   0.6176    0.108     O
H       0.4179   0.2819   0.2461     H
H       0.4179   0.7181   0.7461     H
C       0.4341   0.3273   0.3855     C
C       0.4341   0.6727   0.8855     C
C       0.4433   0.3777   0.5568     C
C       0.4433   0.6223   0.0568     C
H        0.451   0.1505     0.87     H
H        0.451   0.8495     0.37     H
O       0.4528  0.45969   0.0961     O
O       0.4528  0.54031   0.5961     O
C        0.463    0.173   0.9388     C
C        0.463    0.827   0.4388     C
H       0.4768   0.1442   0.0018     H
H       0.4768   0.8558   0.5018     H
H       0.4779   0.3532   0.4061     H
H       0.4779   0.6468   0.9061     H
H       0.4894   0.2004   0.5263     H
H       0.4894   0.7996   0.0263     H
O       0.4928  0.41085   0.9087     O
O       0.4928  0.58915   0.4087     O
Cd         0.5  0.45869     0.75    Cd
Cd         0.5      0.5      0.0    Cd
Cd         0.5      0.5      0.5    Cd
Cd         0.5  0.54131     0.25    Cd
O       0.5072  0.41085   0.5913     O
O       0.5072  0.58915   0.0913     O
H       0.5106   0.2004   0.9737     H
H       0.5106   0.7996   0.4737     H
H       0.5221   0.3532   0.0939     H
H       0.5221   0.6468   0.5939     H
H       0.5232   0.1442   0.4982     H
H       0.5232   0.8558   0.9982     H
C        0.537    0.173   0.5612     C
C        0.537    0.827   0.0612     C
O       0.5472  0.45969   0.4039     O
O       0.5472  0.54031   0.9039     O
H        0.549   0.1505     0.63     H
H        0.549   0.8495     0.13     H
C       0.5567   0.3777   0.9432     C
C       0.5567   0.6223   0.4432     C
C       0.5659   0.3273   0.1145     C
C       0.5659   0.6727   0.6145     C
H       0.5821   0.2819   0.2539     H
H       0.5821   0.7181   0.7539     H
O       0.5882   0.3824    0.892     O
O       0.5882   0.6176    0.392     O
H       0.5933   0.2831   0.6679     H
H       0.5933   0.7169   0.1679     H
C       0.5944   0.3317   0.0473     C
C       0.5944   0.6683   0.5473     C
C        0.602   0.2851   0.2107     C
C        0.602   0.7149   0.7107     C
H       0.6035   0.2341   0.5379     H
H       0.6035   0.7659   0.0379     H
C       0.6125   0.4476   0.4152     C
C       0.6125   0.5524   0.9152     C
C       0.6159   0.2112   0.6075     C
C       0.6159   0.7888   0.1075     C
H       0.6232   0.0603   0.9253     H
H       0.6232   0.9397   0.4253     H
H        0.625   0.3875   0.5924     H
H        0.625   0.6125   0.0924     H
O       0.6275   0.4778   0.3554     O
O       0.6275   0.5222   0.8554     O
H       0.6358   0.1551   0.0263     H
H       0.6358   0.8449   0.5263     H
C       0.6399   0.2538   0.7033     C
C       0.6399   0.7462   0.2033     C
H       0.6462   0.2307   0.7681     H
H       0.6462   0.7693   0.2681     H
C       0.6617   0.2939   0.0799     C
C       0.6617   0.7061   0.5799     C
H       0.6633   0.1833   0.6397     H
H       0.6633   0.8167   0.1397     H
C       0.6654   0.3721   0.5882     C
C       0.6654   0.6279   0.0882     C
C       0.6687   0.2471   0.2425     C
C       0.6687   0.7529   0.7425     C
C       0.6712   0.3958   0.5013     C
C       0.6712   0.6042   0.0013     C
H       0.6717   0.1096   0.9094     H
H       0.6717   0.8904   0.4094     H
H       0.6745   0.1923   0.4323     H
H       0.6745   0.8077   0.9323     H
C       0.6748   0.0843   0.9684     C
C       0.6748   0.9157   0.4684     C
H       0.6814   0.2968   0.0364     H
H       0.6814   0.7032   0.5364     H
C        0.685   0.1277   0.0686     C
C        0.685   0.8723   0.5686     C
H       0.6863   0.1021   0.1266     H
H       0.6863   0.8979   0.6266     H
H       0.6902   0.3638   0.8211     H
H       0.6902   0.6362   0.3211     H
C       0.6988    0.252   0.1777     C
C       0.6988    0.748   0.6777     C
C       0.7135   0.1758   0.4263     C
C       0.7135   0.8242   0.9263     C
C       0.7184   0.1987   0.3379     C
C       0.7184   0.8013   0.8379     C
C       0.7215   0.3248   0.6685     C
C       0.7215   0.6752   0.1685     C
H       0.7231   0.0569     0.01     H
H       0.7231   0.9431     0.51     H
C       0.7256   0.2924   0.7673     C
C       0.7256   0.7076   0.2673     C
C       0.7315   0.3723    0.495     C
C       0.7315   0.6277    0.995     C
H       0.7351   0.3889   0.4375     H
H       0.7351   0.6111   0.9375     H
C       0.7389   0.3359   0.8635     C
C       0.7389   0.6641   0.3635     C
H       0.7401   0.3114   0.9225     H
H       0.7401   0.6886   0.4225     H
H       0.7599   0.1886   0.0775     H
H       0.7599   0.8114   0.5775     H
C       0.7611   0.1641   0.1365     C
C       0.7611   0.8359   0.6365     C
H       0.7649   0.1111   0.5625     H
H       0.7649   0.8889   0.0625     H
C       0.7685   0.1277    0.505     C
C       0.7685   0.8723    0.005     C
C       0.7744   0.2076   0.2327     C
C       0.7744   0.7924   0.7327     C
H       0.7769   0.4431     0.99     H
H       0.7769   0.5569     0.49     H
C       0.7785   0.1752   0.3315     C
C       0.7785   0.8248   0.8315     C
C       0.7816   0.3013   0.6621     C
C       0.7816   0.6987   0.1621     C
C       0.7865   0.3242   0.5737     C
C       0.7865   0.6758   0.0737     C
C       0.8012    0.248   0.8223     C
C       0.8012    0.752   0.3223     C
H       0.8098   0.1362   0.1789     H
H       0.8098   0.8638   0.6789     H
H       0.8137   0.3979   0.8734     H
H       0.8137   0.6021   0.3734     H
C        0.815   0.3723   0.9314     C
C        0.815   0.6277   0.4314     C
H       0.8186   0.2032   0.9636     H
H       0.8186   0.7968   0.4636     H
C       0.8252   0.4157   0.0316     C
C       0.8252   0.5843   0.5316     C
H       0.8255   0.3077   0.5677     H
H       0.8255   0.6923   0.0677     H
H       0.8283   0.3904   0.0906     H
H       0.8283   0.6096   0.5906     H
C       0.8288   0.1042   0.4987     C
C       0.8288   0.8958   0.9987     C
C       0.8313   0.2529   0.7575     C
C       0.8313   0.7471   0.2575     C
C       0.8346   0.1279   0.4118     C
C       0.8346   0.8721   0.9118     C
H       0.8367   0.3167   0.3603     H
H       0.8367   0.6833   0.8603     H
C       0.8383   0.2061   0.9201     C
C       0.8383   0.7939   0.4201     C
H       0.8538   0.2693   0.2319     H
H       0.8538   0.7307   0.7319     H
C       0.8601   0.2462   0.2967     C
C       0.8601   0.7538   0.7967     C
H       0.8642   0.3449   0.9737     H
H       0.8642   0.6551   0.4737     H
O       0.8725   0.0222   0.6446     O
O       0.8725   0.9778   0.1446     O
H        0.875   0.1125   0.4076     H
H        0.875   0.8875   0.9076     H
H       0.8768   0.4397   0.0747     H
H       0.8768   0.5603   0.5747     H
C       0.8841   0.2888   0.3925     C
C       0.8841   0.7112   0.8925     C
C       0.8875   0.0524   0.5848     C
C       0.8875   0.9476   0.0848     C
H       0.8965   0.2659   0.4621     H
H       0.8965   0.7341   0.9621     H
C        0.898   0.2149   0.7893     C
C        0.898   0.7851   0.2893     C
C       0.9056   0.1683   0.9527     C
C       0.9056   0.8317   0.4527     C
H       0.9067   0.2169   0.3321     H
H       0.9067   0.7831   0.8321     H
O       0.9118   0.1176    0.108     O
O       0.9118   0.8824    0.608     O
H       0.9179   0.2181   0.7461     H
H       0.9179   0.7819   0.2461     H
C       0.9341   0.1727   0.8855     C
C       0.9341   0.8273   0.3855     C
C       0.9433   0.1223   0.0568     C
C       0.9433   0.8777   0.5568     C
H        0.951   0.3495     0.37     H
H        0.951   0.6505     0.87     H
O       0.9528  0.04031   0.5961     O
O       0.9528  0.95969   0.0961     O
C        0.963    0.327   0.4388     C
C        0.963    0.673   0.9388     C
H       0.9768   0.3558   0.5018     H
H       0.9768   0.6442   0.0018     H
H       0.9779   0.1468   0.9061     H
H       0.9779   0.8532   0.4061     H
H       0.9894   0.2996   0.0263     H
H       0.9894   0.7004   0.5263     H
O       0.9928  0.08915   0.4087     O
O       0.9928  0.91085   0.9087     O
