data_I
_chemical_name_common  '/home/zhangsd/repos/MofS-CGCNN/ML/data/TSD/clean_cifs/MUHNUA_clean'
_cell_length_a 19.00300
_cell_length_b 19.00300
_cell_length_c 16.91600
_cell_angle_alpha 90.00000
_cell_angle_beta  90.00000
_cell_angle_gamma 120.00000
_space_group_name_H-M_alt      'P 1'


loop_
_space_group_symop_operation_xyz
  'x, y, z' 

loop_
_atom_site_label
_atom_site_fract_x
_atom_site_fract_y
_atom_site_fract_z
_atom_site_type_symbol
Cu     0.00226  0.66932     0.25    Cu
H       0.0127   0.3811   0.0913     H
H       0.0127   0.3811   0.4087     H
H       0.0223   0.2166     0.25     H
H       0.0431   0.4549   0.1495     H
H       0.0431   0.4549   0.3505     H
H       0.0451    0.469    0.058     H
H       0.0451    0.469    0.442     H
C       0.0516   0.4376   0.0988     C
C       0.0516   0.4376   0.4012     C
H       0.0521   0.4749   0.5896     H
H       0.0521   0.4749   0.9104     H
H       0.0546   0.2985   0.2037     H
H       0.0546   0.2985   0.2963     H
H       0.0614   0.2357   0.6488     H
H       0.0614   0.2357   0.8512     H
C       0.0617   0.2736     0.25     C
H       0.0627   0.8117   0.5334     H
H       0.0627   0.8117   0.9666     H
C       0.0646   0.6183     0.25     C
N       0.0668   0.3428   0.6526     N
N       0.0668   0.3428   0.8474     N
N       0.0775   0.2808   0.6243     N
N       0.0775   0.2808   0.8757     N
N       0.0841    0.792     0.25     N
H       0.0879   0.7054   0.0141     H
H       0.0879   0.7054   0.4859     H
H       0.0912   0.9044   0.5256     H
H       0.0912   0.9044   0.9744     H
H       0.0946   0.6436   0.0705     H
H       0.0946   0.6436   0.4295     H
H       0.0956   0.1868   0.5256     H
H       0.0956   0.1868   0.9744     H
C          0.1    0.401    0.598     C
C          0.1    0.401    0.902     C
C       0.1015   0.4795   0.6096     C
C       0.1015   0.4795   0.8904     C
C       0.1049   0.8632   0.5143     C
C       0.1049   0.8632   0.9857     C
H       0.1063   0.4922    0.665     H
H       0.1063   0.4922    0.835     H
N       0.1106   0.5929     0.25     N
H       0.1108   0.8602   0.0418     H
H       0.1108   0.8602   0.4582     H
C        0.116   0.2984   0.5538     C
C        0.116   0.2984   0.9462     C
C       0.1224   0.6849   0.0313     C
C       0.1224   0.6849   0.4687     C
C       0.1299   0.3742   0.5338     C
C       0.1299   0.3742   0.9662     C
C       0.1354   0.4498   0.0953     C
C       0.1354   0.4498   0.4047     C
H       0.1359   0.6624    0.513     H
H       0.1359   0.6624    0.987     H
C       0.1368   0.2417   0.5143     C
C       0.1368   0.2417   0.9857     C
C       0.1377   0.8528     0.25     C
H       0.1398   0.2506   0.0418     H
H       0.1398   0.2506   0.4582     H
H        0.147   0.5219   0.5819     H
H        0.147   0.5219   0.9181     H
C       0.1472   0.2849     0.25     C
C         0.17   0.4215   0.0383     C
C         0.17   0.4215   0.4617     C
H       0.1743   0.9386   0.6488     H
H       0.1743   0.9386   0.8512     H
Cu     0.18107  0.54774     0.25    Cu
C       0.1824    0.884   0.5538     C
C       0.1824    0.884   0.9462     C
H       0.1868   0.0912   0.0256     H
H       0.1868   0.0912   0.4744     H
H       0.1883    0.251   0.5334     H
H       0.1883    0.251   0.9666     H
N       0.1888    0.489   0.1536     N
N       0.1888    0.489   0.3464     N
H       0.1943   0.9777     0.25     H
C       0.1977    0.752   0.0656     C
C       0.1977    0.752   0.4344     C
N       0.2033   0.9225   0.6243     N
N       0.2033   0.9225   0.8757     N
H       0.2077   0.7006   0.1619     H
H       0.2077   0.7006   0.3381     H
N        0.208   0.2921     0.25     N
C       0.2119   0.9383     0.25     C
H       0.2166   0.1943     0.75     H
N       0.2298   0.7441   0.1338     N
N       0.2298   0.7441   0.3662     N
H       0.2357   0.1743   0.1488     H
H       0.2357   0.1743   0.3512     H
C       0.2417   0.1049   0.0143     C
C       0.2417   0.1049   0.4857     C
H       0.2439   0.9454   0.2037     H
H       0.2439   0.9454   0.2963     H
C       0.2443   0.8701   0.5338     C
C       0.2443   0.8701   0.9662     C
C        0.248   0.4457   0.0656     C
C        0.248   0.4457   0.4344     C
H       0.2506   0.1108   0.5418     H
H       0.2506   0.1108   0.9582     H
H        0.251   0.0627   0.0334     H
H        0.251   0.0627   0.4666     H
C       0.2515     0.83   0.0383     C
C       0.2515     0.83   0.4617     C
N       0.2559   0.4857   0.1338     N
N       0.2559   0.4857   0.3662     N
C       0.2736   0.2119     0.75     C
N        0.276   0.9332   0.6526     N
N        0.276   0.9332   0.8474     N
N       0.2808   0.2033   0.1243     N
N       0.2808   0.2033   0.3757     N
C       0.2849   0.1377     0.75     C
N       0.2921   0.0841     0.75     N
H       0.2946   0.3825   0.0141     H
H       0.2946   0.3825   0.4859     H
C       0.2984   0.1824   0.0538     C
C       0.2984   0.1824   0.4462     C
H       0.2985   0.2439   0.7037     H
H       0.2985   0.2439   0.7963     H
H       0.2994   0.5071   0.1619     H
H       0.2994   0.5071   0.3381     H
N       0.3002   0.8112   0.1536     N
N       0.3002   0.8112   0.3464     N
C        0.301      0.9    0.598     C
C        0.301      0.9    0.902     C
C       0.3144   0.8646   0.0953     C
C       0.3144   0.8646   0.4047     C
C       0.3151   0.4375   0.0313     C
C       0.3151   0.4375   0.4687     C
Cu     0.33068  0.33294     0.25    Cu
Cu     0.33294  0.00226     0.75    Cu
Br     0.33333  0.66667     0.25    Br
H       0.3376   0.4735    0.513     H
H       0.3376   0.4735    0.987     H
N       0.3428    0.276   0.1526     N
N       0.3428    0.276   0.3474     N
H       0.3564    0.451   0.0705     H
H       0.3564    0.451   0.4295     H
Cu     0.36667  0.81893     0.25    Cu
H       0.3684   0.9873   0.0913     H
H       0.3684   0.9873   0.4087     H
C       0.3742   0.2443   0.0338     C
C       0.3742   0.2443   0.4662     C
H       0.3749    0.853   0.5819     H
H       0.3749    0.853   0.9181     H
C        0.378   0.8985   0.6096     C
C        0.378   0.8985   0.8904     C
H       0.3811   0.3684   0.5913     H
H       0.3811   0.3684   0.9087     H
C       0.3817   0.4463     0.25     C
H       0.3825   0.0879   0.5141     H
H       0.3825   0.0879   0.9859     H
H       0.3859   0.8937    0.665     H
H       0.3859   0.8937    0.835     H
C        0.386   0.9484   0.0988     C
C        0.386   0.9484   0.4012     C
C        0.401    0.301    0.098     C
C        0.401    0.301    0.402     C
N       0.4071   0.5177     0.25     N
H       0.4118   0.9569   0.1495     H
H       0.4118   0.9569   0.3505     H
C       0.4215   0.2515   0.5383     C
C       0.4215   0.2515   0.9617     C
H       0.4228   0.9479   0.5896     H
H       0.4228   0.9479   0.9104     H
H       0.4239   0.9549    0.058     H
H       0.4239   0.9549    0.442     H
C       0.4375   0.1224   0.5313     C
C       0.4375   0.1224   0.9687     C
C       0.4376    0.386   0.5988     C
C       0.4376    0.386   0.9012     C
C       0.4457   0.1977   0.5656     C
C       0.4457   0.1977   0.9344     C
C       0.4463   0.0646     0.75     C
C       0.4498   0.3144   0.5953     C
C       0.4498   0.3144   0.9047     C
H        0.451   0.0946   0.5705     H
H        0.451   0.0946   0.9295     H
Cu     0.45226  0.63333     0.25    Cu
H       0.4549   0.4118   0.6495     H
H       0.4549   0.4118   0.8505     H
H        0.469   0.4239    0.558     H
H        0.469   0.4239    0.942     H
H       0.4735   0.1359    0.013     H
H       0.4735   0.1359    0.487     H
H       0.4749   0.4228   0.0896     H
H       0.4749   0.4228   0.4104     H
H       0.4781   0.6251   0.5819     H
H       0.4781   0.6251   0.9181     H
C       0.4795    0.378   0.1096     C
C       0.4795    0.378   0.3904     C
N       0.4823   0.8894     0.25     N
N       0.4857   0.2298   0.6338     N
N       0.4857   0.2298   0.8662     N
N        0.489   0.3002   0.6536     N
N        0.489   0.3002   0.8464     N
H       0.4922   0.3859    0.165     H
H       0.4922   0.3859    0.335     H
H       0.4929   0.7923   0.1619     H
H       0.4929   0.7923   0.3381     H
H       0.5071   0.2077   0.6619     H
H       0.5071   0.2077   0.8381     H
H       0.5078   0.6141    0.665     H
H       0.5078   0.6141    0.835     H
N        0.511   0.6998   0.1536     N
N        0.511   0.6998   0.3464     N
N       0.5143   0.7702   0.1338     N
N       0.5143   0.7702   0.3662     N
N       0.5177   0.1106     0.75     N
C       0.5205    0.622   0.6096     C
C       0.5205    0.622   0.8904     C
H       0.5219   0.3749   0.0819     H
H       0.5219   0.3749   0.4181     H
H       0.5251   0.5772   0.5896     H
H       0.5251   0.5772   0.9104     H
H       0.5265   0.8641    0.513     H
H       0.5265   0.8641    0.987     H
H        0.531   0.5761    0.058     H
H        0.531   0.5761    0.442     H
H       0.5451   0.5882   0.1495     H
H       0.5451   0.5882   0.3505     H
Cu     0.54774  0.36667     0.75    Cu
H        0.549   0.9054   0.0705     H
H        0.549   0.9054   0.4295     H
C       0.5502   0.6856   0.0953     C
C       0.5502   0.6856   0.4047     C
C       0.5537   0.9354     0.25     C
C       0.5543   0.8023   0.0656     C
C       0.5543   0.8023   0.4344     C
C       0.5624    0.614   0.0988     C
C       0.5624    0.614   0.4012     C
C       0.5625   0.8776   0.0313     C
C       0.5625   0.8776   0.4687     C
H       0.5761   0.0451    0.558     H
H       0.5761   0.0451    0.942     H
H       0.5772   0.0521   0.0896     H
H       0.5772   0.0521   0.4104     H
C       0.5785   0.7485   0.0383     C
C       0.5785   0.7485   0.4617     C
H       0.5882   0.0431   0.6495     H
H       0.5882   0.0431   0.8505     H
N       0.5929   0.4823     0.75     N
C        0.599    0.699    0.598     C
C        0.599    0.699    0.902     C
C        0.614   0.0516   0.5988     C
C        0.614   0.0516   0.9012     C
H       0.6141   0.1063    0.165     H
H       0.6141   0.1063    0.335     H
H       0.6175   0.9121   0.0141     H
H       0.6175   0.9121   0.4859     H
C       0.6183   0.5537     0.75     C
H       0.6189   0.6316   0.0913     H
H       0.6189   0.6316   0.4087     H
C        0.622   0.1015   0.1096     C
C        0.622   0.1015   0.3904     C
H       0.6251    0.147   0.0819     H
H       0.6251    0.147   0.4181     H
C       0.6258   0.7557   0.5338     C
C       0.6258   0.7557   0.9662     C
H       0.6316   0.0127   0.5913     H
H       0.6316   0.0127   0.9087     H
Cu     0.63333  0.18107     0.75    Cu
H       0.6436    0.549   0.5705     H
H       0.6436    0.549   0.9295     H
N       0.6572    0.724   0.6526     N
N       0.6572    0.724   0.8474     N
H       0.6624   0.5265    0.013     H
H       0.6624   0.5265    0.487     H
Br     0.66667  0.33333     0.75    Br
Cu     0.66706  0.99774     0.25    Cu
Cu     0.66932  0.66706     0.75    Cu
C       0.6849   0.5625   0.5313     C
C       0.6849   0.5625   0.9687     C
C       0.6856   0.1354   0.5953     C
C       0.6856   0.1354   0.9047     C
C        0.699      0.1    0.098     C
C        0.699      0.1    0.402     C
N       0.6998   0.1888   0.6536     N
N       0.6998   0.1888   0.8464     N
H       0.7006   0.4929   0.6619     H
H       0.7006   0.4929   0.8381     H
H       0.7015   0.7561   0.2037     H
H       0.7015   0.7561   0.2963     H
C       0.7016   0.8176   0.5538     C
C       0.7016   0.8176   0.9462     C
H       0.7054   0.6175   0.5141     H
H       0.7054   0.6175   0.9859     H
N       0.7079   0.9159     0.25     N
C       0.7151   0.8623     0.25     C
N       0.7192   0.7967   0.6243     N
N       0.7192   0.7967   0.8757     N
N        0.724   0.0668   0.1526     N
N        0.724   0.0668   0.3474     N
C       0.7264   0.7881     0.25     C
N       0.7441   0.5143   0.6338     N
N       0.7441   0.5143   0.8662     N
C       0.7485     0.17   0.5383     C
C       0.7485     0.17   0.9617     C
H        0.749   0.9373   0.5334     H
H        0.749   0.9373   0.9666     H
H       0.7494   0.8892   0.0418     H
H       0.7494   0.8892   0.4582     H
C        0.752   0.5543   0.5656     C
C        0.752   0.5543   0.9344     C
C       0.7557   0.1299   0.0338     C
C       0.7557   0.1299   0.4662     C
H       0.7561   0.0546   0.7037     H
H       0.7561   0.0546   0.7963     H
C       0.7583   0.8951   0.5143     C
C       0.7583   0.8951   0.9857     C
H       0.7643   0.8257   0.6488     H
H       0.7643   0.8257   0.8512     H
N       0.7702   0.2559   0.6338     N
N       0.7702   0.2559   0.8662     N
H       0.7834   0.8057     0.25     H
C       0.7881   0.0617     0.75     C
N        0.792   0.7079     0.75     N
H       0.7923   0.2994   0.6619     H
H       0.7923   0.2994   0.8381     H
N       0.7967   0.0775   0.1243     N
N       0.7967   0.0775   0.3757     N
C       0.8023    0.248   0.5656     C
C       0.8023    0.248   0.9344     C
H       0.8057   0.0223     0.75     H
N       0.8112    0.511   0.6536     N
N       0.8112    0.511   0.8464     N
H       0.8117    0.749   0.0334     H
H       0.8117    0.749   0.4666     H
H       0.8132   0.9088   0.5256     H
H       0.8132   0.9088   0.9744     H
C       0.8176    0.116   0.0538     C
C       0.8176    0.116   0.4462     C
Cu     0.81893  0.45226     0.75    Cu
H       0.8257   0.0614   0.1488     H
H       0.8257   0.0614   0.3512     H
C         0.83   0.5785   0.5383     C
C         0.83   0.5785   0.9617     C
C       0.8528   0.7151     0.75     C
H        0.853   0.4781   0.0819     H
H        0.853   0.4781   0.4181     H
H       0.8602   0.7494   0.5418     H
H       0.8602   0.7494   0.9582     H
C       0.8623   0.1472     0.75     C
C       0.8632   0.7583   0.0143     C
C       0.8632   0.7583   0.4857     C
H       0.8641   0.3376    0.013     H
H       0.8641   0.3376    0.487     H
C       0.8646   0.5502   0.5953     C
C       0.8646   0.5502   0.9047     C
C       0.8701   0.6258   0.0338     C
C       0.8701   0.6258   0.4662     C
C       0.8776   0.3151   0.5313     C
C       0.8776   0.3151   0.9687     C
C        0.884   0.7016   0.0538     C
C        0.884   0.7016   0.4462     C
H       0.8892   0.1398   0.5418     H
H       0.8892   0.1398   0.9582     H
N       0.8894   0.4071     0.75     N
H       0.8937   0.5078    0.165     H
H       0.8937   0.5078    0.335     H
C       0.8951   0.1368   0.0143     C
C       0.8951   0.1368   0.4857     C
C       0.8985   0.5205   0.1096     C
C       0.8985   0.5205   0.3904     C
C          0.9    0.599    0.098     C
C          0.9    0.599    0.402     C
H       0.9044   0.8132   0.0256     H
H       0.9044   0.8132   0.4744     H
H       0.9054   0.3564   0.5705     H
H       0.9054   0.3564   0.9295     H
H       0.9088   0.0956   0.0256     H
H       0.9088   0.0956   0.4744     H
H       0.9121   0.2946   0.5141     H
H       0.9121   0.2946   0.9859     H
N       0.9159    0.208     0.75     N
N       0.9225   0.7192   0.1243     N
N       0.9225   0.7192   0.3757     N
N       0.9332   0.6572   0.1526     N
N       0.9332   0.6572   0.3474     N
C       0.9354   0.3817     0.75     C
H       0.9373   0.1883   0.0334     H
H       0.9373   0.1883   0.4666     H
C       0.9383   0.7264     0.75     C
H       0.9386   0.7643   0.1488     H
H       0.9386   0.7643   0.3512     H
H       0.9454   0.7015   0.7037     H
H       0.9454   0.7015   0.7963     H
H       0.9479   0.5251   0.0896     H
H       0.9479   0.5251   0.4104     H
C       0.9484   0.5624   0.5988     C
C       0.9484   0.5624   0.9012     C
H       0.9549    0.531    0.558     H
H       0.9549    0.531    0.942     H
H       0.9569   0.5451   0.6495     H
H       0.9569   0.5451   0.8505     H
H       0.9777   0.7834     0.75     H
H       0.9873   0.6189   0.5913     H
H       0.9873   0.6189   0.9087     H
Cu     0.99774  0.33068     0.75    Cu
