data_I
_chemical_name_common  '/home/zhangsd/repos/MofS-CGCNN/ML/data/TSD/clean_cifs/MULXOH_clean'
_cell_length_a 10.58260
_cell_length_b 12.00750
_cell_length_c 18.14700
_cell_angle_alpha 90.00000
_cell_angle_beta  90.00000
_cell_angle_gamma 110.07400
_space_group_name_H-M_alt      'P 1'


loop_
_space_group_symop_operation_xyz
  'x, y, z' 

loop_
_atom_site_label
_atom_site_fract_x
_atom_site_fract_y
_atom_site_fract_z
_atom_site_type_symbol
O       0.0049   0.1966   0.4361     O
H        0.006   0.3532   0.3228     H
C       0.0172    0.626   0.0045     C
H        0.019   0.2751   0.2559     H
H       0.0225   0.6946   0.0342     H
H        0.031    0.651   0.9534     H
O       0.0338   0.9627   0.6353     O
La     0.03527  0.14498  0.56857    La
C       0.0443   0.8646   0.6194     C
C       0.0447   0.7062   0.7124     C
H       0.0751   0.5899   0.7886     H
C       0.1201   0.4667    0.987     C
H       0.1202    0.562   0.0808     H
O        0.124   0.7366   0.4096     O
C       0.1276   0.8168   0.6713     C
C       0.1281   0.5785   0.0283     C
H       0.1301   0.6586   0.2357     H
C       0.1325   0.6551   0.7592     C
H        0.134    0.487    0.935     H
H       0.1416   0.5821   0.3038     H
O       0.1506   0.0208   0.4872     O
H         0.16   0.9351   0.7572     H
O       0.1634   0.8913   0.3385     O
H        0.167     0.77    0.844     H
C       0.1811    0.797   0.3557     C
H       0.1857   0.6242    0.727     H
H        0.189    0.793     0.64     H
C        0.193    0.641   0.2685     C
O       0.2112   0.3389   0.0547     O
H       0.2152   0.6388   0.0195     H
C       0.2162   0.9093   0.7239     C
C       0.2249   0.7469   0.8093     C
H       0.2287   0.5223   0.1961     H
C       0.2333   0.4244   0.0118     C
C       0.2667   0.0756   0.5118     C
H       0.2713   0.9777   0.6961     H
C       0.2751   0.7531   0.3093     C
C       0.2838   0.5907   0.2239     C
H       0.2848   0.8612   0.5195     H
O       0.2888   0.1611   0.5547     O
C        0.307    0.859   0.7685     C
H        0.311    0.707     0.14     H
H       0.3143   0.8758    0.227     H
C       0.3189    0.703   0.8557     C
H        0.333     0.73    0.344     H
O       0.3366   0.6087   0.8385     O
H         0.34   0.5649   0.2572     H
O       0.3494   0.4792   0.9872     O
H       0.3584   0.9179   0.8038     H
H        0.366    0.013    0.435     H
C       0.3675   0.8449   0.2592     C
H       0.3699   0.8414   0.7357     H
C       0.3719   0.9215   0.5283     C
C       0.3724   0.6832   0.1713     C
O        0.376   0.7634   0.9096     O
H       0.3798    0.938   0.5808     H
C       0.3799   0.0333    0.487     C
H       0.4249   0.9101   0.2886     H
C       0.4553   0.7938   0.2124     C
C       0.4557   0.6354   0.1194     C
La     0.46473  0.35502  0.06857    La
O       0.4662   0.5373   0.1353     O
H        0.469    0.849   0.4534     H
H       0.4775   0.8054   0.5342     H
H        0.481   0.2249   0.7559     H
C       0.4828    0.874   0.5045     C
H        0.494   0.1468   0.8228     H
O       0.4951   0.3034   0.9361     O
O       0.5049   0.6966   0.0639     O
H        0.506   0.8532   0.1772     H
C       0.5172    0.126   0.4955     C
H        0.519   0.7751   0.2441     H
H       0.5225   0.1946   0.4658     H
H        0.531    0.151   0.5466     H
O       0.5338   0.4627   0.8647     O
La     0.53527  0.64498  0.93143    La
C       0.5443   0.3646   0.8806     C
C       0.5447   0.2062   0.7876     C
H       0.5751   0.0899   0.7114     H
C       0.6201   0.9667    0.513     C
H       0.6202    0.062   0.4192     H
O        0.624   0.2366   0.0904     O
C       0.6276   0.3168   0.8287     C
C       0.6281   0.0785   0.4717     C
H       0.6301   0.1586   0.2643     H
C       0.6325   0.1551   0.7408     C
H        0.634    0.987    0.565     H
H       0.6416   0.0821   0.1962     H
O       0.6506   0.5208   0.0128     O
H         0.66   0.4351   0.7428     H
O       0.6634   0.3913   0.1615     O
H        0.667     0.27    0.656     H
C       0.6811    0.297   0.1443     C
H       0.6857   0.1242    0.773     H
H        0.689    0.293     0.86     H
C        0.693    0.141   0.2315     C
O       0.7112   0.8389   0.4453     O
H       0.7152   0.1388   0.4805     H
C       0.7162   0.4093   0.7761     C
C       0.7249   0.2469   0.6907     C
H       0.7287   0.0223   0.3039     H
C       0.7333   0.9244   0.4882     C
C       0.7667   0.5756   0.9882     C
H       0.7713   0.4777   0.8039     H
C       0.7751   0.2531   0.1907     C
C       0.7838   0.0907   0.2761     C
H       0.7848   0.3612   0.9805     H
O       0.7888   0.6611   0.9453     O
C        0.807    0.359   0.7315     C
H        0.811    0.207     0.36     H
H       0.8143   0.3758    0.273     H
C       0.8189    0.203   0.6443     C
H        0.833     0.23    0.156     H
O       0.8366   0.1087   0.6615     O
H         0.84   0.0649   0.2428     H
O       0.8494   0.9792   0.5128     O
H       0.8584   0.4179   0.6962     H
H        0.866    0.513    0.065     H
C       0.8675   0.3449   0.2408     C
H       0.8699   0.3414   0.7643     H
C       0.8719   0.4215   0.9717     C
C       0.8724   0.1832   0.3287     C
O        0.876   0.2634   0.5904     O
H       0.8798    0.438   0.9192     H
C       0.8799   0.5333    0.013     C
H       0.9249   0.4101   0.2114     H
C       0.9553   0.2938   0.2876     C
C       0.9557   0.1354   0.3806     C
La     0.96473  0.85502  0.43143    La
O       0.9662   0.0373   0.3647     O
H        0.969    0.349   0.0466     H
H       0.9775   0.3054   0.9658     H
H        0.981   0.7249   0.7441     H
C       0.9828    0.374   0.9955     C
H        0.994   0.6468   0.6772     H
O       0.9951   0.8034   0.5639     O
