data_I
_chemical_name_common  '/home/zhangsd/repos/MofS-CGCNN/ML/data/TSD/clean_cifs/MUNLUE_clean'
_cell_length_a 15.11730
_cell_length_b 16.74830
_cell_length_c 16.91010
_cell_angle_alpha 110.56600
_cell_angle_beta  90.03000
_cell_angle_gamma 100.93300
_space_group_name_H-M_alt      'P 1'


loop_
_space_group_symop_operation_xyz
  'x, y, z' 

loop_
_atom_site_label
_atom_site_fract_x
_atom_site_fract_y
_atom_site_fract_z
_atom_site_type_symbol
N       0.0034   0.1461   0.7029     N
N       0.0131   0.0155   0.6205     N
N       0.0185   0.7116   0.1497     N
N        0.031   0.6227   0.0225     N
H        0.034   0.9699   0.5886     H
H       0.0442   0.4512    0.136     H
C       0.0478   0.3571   0.9732     C
H       0.0518   0.5865   0.9785     H
C       0.0596   0.0945   0.6651     C
N       0.0616   0.3031   0.8962     N
C       0.0739   0.9786   0.3646     C
C       0.0755   0.6694   0.1005     C
H       0.0804    0.142   0.4667     H
N       0.0821   0.9004    0.314     N
C       0.1036   0.4419   0.1238     C
C       0.1202   0.3913   0.0418     C
C       0.1395   0.1311   0.4559     C
C       0.1508   0.0512   0.4005     C
C         0.16   0.1214   0.6668     C
H       0.1609   0.5121   0.2432     H
C       0.1668   0.6673   0.1251     C
H       0.1707   0.7462    0.249     H
C       0.1726   0.4784   0.1875     C
H        0.174   0.0024   0.5839     H
H        0.175   0.2481   0.7462     H
H       0.1908   0.5876   0.0079     H
C       0.2048    0.713   0.2075     C
H       0.2051   0.2496   0.5333     H
C       0.2064   0.0588   0.6173     C
C       0.2068   0.2052   0.7138     C
C        0.207   0.3742   0.0249     C
C       0.2135   0.1948   0.4953     C
C       0.2169   0.6193   0.0639     C
H       0.2181   0.3373   0.9703     H
C       0.2364   0.0358   0.3804     C
H        0.244   0.9818     0.34     H
C       0.2592   0.4652   0.1688     C
C       0.2769   0.4117   0.0887     C
C        0.293   0.7101   0.2294     C
O       0.2932   0.8038   0.3733     O
C       0.2986   0.0786   0.6168     C
C       0.2988   0.2256   0.7129     C
C       0.3017   0.1803   0.4804     C
C       0.3058   0.6181   0.0854     C
O       0.3098   0.3677    0.813     O
O       0.3109    0.933     0.54     O
C       0.3114   0.1012   0.4207     C
O       0.3243   0.5533   0.3087     O
O       0.3278    0.538   0.9413     O
C       0.3336   0.7563   0.3173     C
H       0.3359   0.4009   0.0777     H
C       0.3381   0.5163   0.2338     C
C       0.3444   0.6637   0.1662     C
C       0.3463   0.0116   0.5601     C
C       0.3476   0.1617   0.6646     C
C       0.3509   0.3151   0.7621     C
N        0.351   0.9063   0.8559     N
C       0.3526   0.5605   0.0182     C
N       0.3591   0.9553   0.9409     N
H       0.3659   0.8201   0.6867     H
O        0.367   0.7722   0.5263     O
H       0.3703   0.0913    0.407     H
O        0.374   0.3202   0.5741     O
C       0.3759   0.8339   0.8489     C
C       0.3775   0.7682   0.6916     C
C       0.3796   0.2436   0.5309     C
C       0.3835   0.7604   0.7707     C
C       0.3891    0.698   0.6192     C
C       0.3891   0.7069   0.5345     C
C       0.3901   0.9109   0.9812     C
C       0.3992   0.6838   0.7774     C
H       0.4001   0.6781   0.8313     H
N       0.4011   0.8331   0.9257     N
H       0.4056   0.6641   0.1795     H
C       0.4093   0.6246   0.6269     C
O       0.4103   0.6451   0.4741     O
O       0.4105    0.518   0.7776     O
C       0.4109   0.9332   0.0717     C
H       0.4116   0.1753    0.665     H
O       0.4123   0.7437   0.3364     O
H       0.4129   0.0626   0.1097     H
C       0.4137   0.6156   0.7064     C
H       0.4155   0.8102   0.0629     H
O       0.4198   0.5262   0.2089     O
C         0.42   0.8681   0.1016     C
H       0.4202   0.7914   0.9369     H
H       0.4206   0.5791   0.5779     H
O       0.4213   0.0361   0.5322     O
C       0.4214   0.0174   0.1289     C
O       0.4226   0.5347   0.0389     O
O       0.4238   0.3468   0.9272     O
O       0.4336    0.336   0.7528     O
C       0.4356   0.8864    0.187     C
C       0.4365   0.5357   0.7136     C
H       0.4377   0.8401   0.2067     H
Tb     0.43801  0.87643  0.47188    Tb
O       0.4389   0.9233   0.3579     O
H       0.4411   0.2668   0.9772     H
C       0.4439   0.0368   0.2134     C
C       0.4482   0.3272    0.987     C
C       0.4483   0.9703   0.2441     C
Tb     0.45351  0.47118  0.88233    Tb
H       0.4565   0.0957   0.2511     H
O       0.4566   0.2171   0.5356     O
C       0.4677   0.9862   0.3352     C
O       0.4774   0.4914   0.6559     O
Tb       0.478  0.63426  0.35257    Tb
O        0.482   0.3799   0.0604     O
O       0.4905   0.9384   0.6164     O
O       0.5095   0.0616   0.3836     O
O        0.518   0.6201   0.9396     O
Tb       0.522  0.36574  0.64743    Tb
O       0.5226   0.5086   0.3441     O
C       0.5323   0.0138   0.6648     C
O       0.5434   0.7829   0.4644     O
H       0.5435   0.9043   0.7489     H
Tb     0.54649  0.52882  0.11767    Tb
C       0.5517   0.0297   0.7559     C
C       0.5518   0.6728    0.013     C
C       0.5561   0.9632   0.7866     C
H       0.5589   0.7332   0.0228     H
O       0.5611   0.0767   0.6421     O
Tb     0.56199  0.12357  0.52812    Tb
H       0.5623   0.1599   0.7933     H
C       0.5635   0.4643   0.2864     C
C       0.5644   0.1136    0.813     C
O       0.5664    0.664   0.2472     O
O       0.5762   0.6532   0.0728     O
O       0.5774   0.4653   0.9611     O
C       0.5786   0.9826   0.8711     C
O       0.5787   0.9639   0.4678     O
H       0.5794   0.4209   0.4221     H
H       0.5798   0.2086   0.0631     H
C         0.58   0.1319   0.8984     C
O       0.5802   0.4738   0.7911     O
H       0.5845   0.1898   0.9371     H
C       0.5863   0.3844   0.2936     C
H       0.5871   0.9374   0.8903     H
O       0.5877   0.2563   0.6636     O
H       0.5884   0.8247    0.335     H
C       0.5891   0.0668   0.9283     C
O       0.5895    0.482   0.2224     O
O       0.5897   0.3549   0.5259     O
C       0.5907   0.3754   0.3731     C
H       0.5944   0.3359   0.8205     H
N       0.5989   0.1669   0.0743     N
H       0.5999   0.3219   0.1687     H
C       0.6008   0.3162   0.2226     C
C       0.6099   0.0891   0.0188     C
C       0.6109   0.2931   0.4655     C
C       0.6109    0.302   0.3808     C
C       0.6165   0.2396   0.2293     C
C       0.6204   0.7564   0.4691     C
C       0.6225   0.2318   0.3084     C
C       0.6241   0.1661   0.1511     C
O        0.626   0.6798   0.4259     O
H       0.6297   0.9087    0.593     H
O        0.633   0.2278   0.4737     O
H       0.6341   0.1799   0.3133     H
N       0.6409   0.0447   0.0591     N
C       0.6474   0.4395   0.9818     C
N        0.649   0.0937   0.1441     N
C       0.6491   0.6849   0.2379     C
C       0.6524   0.8383   0.3354     C
C       0.6537   0.9884   0.4399     C
C       0.6556   0.3363   0.8338     C
C       0.6619   0.4837   0.7662     C
H       0.6641   0.5991   0.9223     H
C       0.6664   0.2437   0.6827     C
O       0.6722    0.462   0.0587     O
O       0.6757   0.4467   0.6913     O
C       0.6886   0.8988   0.5793     C
O       0.6891    0.067     0.46     O
O       0.6902   0.6323    0.187     O
C       0.6942   0.3819   0.9146     C
C       0.6983   0.8197   0.5196     C
C       0.7012   0.7744   0.2871     C
C       0.7014   0.9214   0.3832     C
O       0.7068   0.1962   0.6267     O
C        0.707   0.2899   0.7706     C
C       0.7231   0.5883   0.9113     C
C       0.7408   0.5348   0.8312     C
H        0.756   0.0182     0.66     H
C       0.7636   0.9642   0.6196     C
H       0.7819   0.6627   0.0297     H
C       0.7831   0.3807   0.9361     C
C       0.7865   0.8052   0.5047     C
C        0.793   0.6258   0.9751     C
C       0.7932   0.7948   0.2862     C
C       0.7936   0.9412   0.3827     C
H       0.7949   0.7504   0.4667     H
C       0.7952    0.287   0.7925     C
H       0.8092   0.4124   0.9921     H
H        0.825   0.7519   0.2538     H
H        0.826   0.9976   0.4161     H
C       0.8274   0.5216   0.8125     C
H       0.8293   0.2538    0.751     H
C       0.8332   0.3327   0.8749     C
H       0.8391   0.4879   0.7568     H
C         0.84   0.8786   0.3332     C
C       0.8492   0.9488   0.5995     C
C       0.8605   0.8689   0.5441     C
C       0.8798   0.6087   0.9582     C
C       0.8964   0.5581   0.8762     C
N       0.9179   0.0996    0.686     N
H       0.9196    0.858   0.5333     H
C       0.9245   0.3306   0.8995     C
C       0.9261   0.0214   0.6354     C
N       0.9384   0.6969   0.1038     N
C       0.9404   0.9055   0.3349     C
H       0.9482   0.4135   0.0215     H
C       0.9522   0.6429   0.0268     C
H       0.9558   0.5488    0.864     H
H        0.966   0.0301   0.4114     H
N        0.969   0.3773   0.9775     N
N       0.9815   0.2884   0.8503     N
N       0.9869   0.9845   0.3795     N
N       0.9966   0.8539   0.2971     N
