data_I
_chemical_name_common  '/home/zhangsd/repos/MofS-CGCNN/ML/data/TSD/clean_cifs/MUSSIE_clean'
_cell_length_a 18.00260
_cell_length_b 18.00260
_cell_length_c 13.33160
_cell_angle_alpha 90.00000
_cell_angle_beta  90.00000
_cell_angle_gamma 120.00000
_space_group_name_H-M_alt      'P 1'


loop_
_space_group_symop_operation_xyz
  'x, y, z' 

loop_
_atom_site_label
_atom_site_fract_x
_atom_site_fract_y
_atom_site_fract_z
_atom_site_type_symbol
O       0.0087    0.696   0.6517     O
O       0.0087    0.696   0.8483     O
P      0.03717  0.51196     0.25     P
H       0.0377   0.5337     0.75     H
Be       0.046   0.3539     0.25    Be
O      0.04717  0.37577   0.6548     O
O      0.04717  0.37577   0.8452     O
Be      0.0476   0.6431   0.1184    Be
Be      0.0476   0.6431   0.3816    Be
O       0.0494   0.6394   0.5027     O
O       0.0494   0.6394   0.9973     O
O       0.0609  0.56564   0.1556     O
O       0.0609  0.56564   0.3444     O
O       0.0753   0.4541     0.25     O
P      0.08082  0.70125  0.58981     P
P      0.08082  0.70125  0.91019     P
P      0.09374  0.37676     0.75     P
H       0.0995   0.3012     0.75     H
O       0.1213   0.7362   0.1559     O
O       0.1213   0.7362   0.3441     O
H       0.1255   0.7816   0.5465     H
H       0.1255   0.7816   0.9535     H
O       0.1296   0.3427     0.25     O
O      0.14423   0.6872   0.6501     O
O      0.14423   0.6872   0.8499     O
P      0.17228  0.77421     0.25     P
O       0.1826   0.4531     0.75     O
Be      0.2009   0.7151     0.75    Be
H       0.2017   0.9005     0.75     H
O       0.2131   0.8704     0.25     O
H       0.2184   0.3439   0.5465     H
H       0.2184   0.3439   0.9535     H
P      0.22579  0.39807     0.25     P
H       0.2368   0.7541     0.25     H
H       0.2459   0.4827     0.25     H
O       0.2523   0.6638     0.75     O
O       0.2638   0.3851   0.1559     O
O       0.2638   0.3851   0.3441     O
O       0.2705   0.8174     0.75     O
P      0.28302  0.90626     0.75     P
Be      0.2849   0.4858     0.75    Be
P      0.29875  0.37957  0.58981     P
P      0.29875  0.37957  0.91019     P
H       0.3012   0.2017     0.25     H
O        0.304   0.3127   0.6517     O
O        0.304   0.3127   0.8483     O
Be      0.3079    0.954     0.25    Be
O       0.3127   0.0087   0.1517     O
O       0.3127   0.0087   0.3483     O
O       0.3128  0.45703   0.6501     O
O       0.3128  0.45703   0.8499     O
O       0.3286  0.95283   0.6548     O
O       0.3286  0.95283   0.8452     O
H      0.33333  0.66667   0.6581     H
P      0.33333  0.66667     0.75     P
H      0.33333  0.66667   0.8419     H
O       0.3362   0.5885     0.75     O
O       0.3427   0.2131     0.75     O
H       0.3439   0.1255   0.0465     H
H       0.3439   0.1255   0.4535     H
Be      0.3539   0.3079     0.75    Be
Be      0.3569   0.4045   0.1184    Be
Be      0.3569   0.4045   0.3816    Be
O       0.3606     0.41   0.5027     O
O       0.3606     0.41   0.9973     O
O      0.37577   0.3286   0.1548     O
O      0.37577   0.3286   0.3452     O
P      0.37676  0.28302     0.25     P
O       0.3788   0.9247     0.25     O
P      0.37957  0.08082  0.08981     P
P      0.37957  0.08082  0.41019     P
O       0.3851   0.1213   0.6559     O
O       0.3851   0.1213   0.8441     O
P      0.39807  0.17228     0.75     P
Be      0.4045   0.0476   0.6184    Be
Be      0.4045   0.0476   0.8816    Be
O         0.41   0.0494   0.0027     O
O         0.41   0.0494   0.4973     O
O       0.4115   0.7477     0.75     O
O      0.43436  0.49526   0.1556     O
O      0.43436  0.49526   0.3444     O
O       0.4531   0.2705     0.25     O
O       0.4541   0.3788     0.75     O
O      0.45703  0.14423   0.1501     O
O      0.45703  0.14423   0.3499     O
H       0.4663    0.504     0.75     H
P      0.47479  0.96283     0.25     P
H       0.4827   0.2368     0.75     H
Be      0.4858   0.2009     0.25    Be
P      0.48804  0.52521     0.25     P
O      0.49526   0.0609   0.6556     O
O      0.49526   0.0609   0.8444     O
H        0.496   0.9623     0.75     H
H        0.504   0.0377     0.25     H
O      0.50474   0.9391   0.1556     O
O      0.50474   0.9391   0.3444     O
P      0.51196  0.47479     0.75     P
Be      0.5142   0.7991     0.75    Be
H       0.5173   0.7632     0.25     H
P      0.52521  0.03717     0.75     P
H       0.5337    0.496     0.25     H
O      0.54297  0.85577   0.6501     O
O      0.54297  0.85577   0.8499     O
O       0.5459   0.6212     0.25     O
O       0.5469   0.7295     0.75     O
O      0.56564  0.50474   0.6556     O
O      0.56564  0.50474   0.8444     O
O       0.5885   0.2523     0.25     O
O         0.59   0.9506   0.5027     O
O         0.59   0.9506   0.9973     O
Be      0.5955   0.9524   0.1184    Be
Be      0.5955   0.9524   0.3816    Be
P      0.60193  0.82772     0.25     P
O       0.6149   0.8787   0.1559     O
O       0.6149   0.8787   0.3441     O
P      0.62043  0.91918  0.58981     P
P      0.62043  0.91918  0.91019     P
O       0.6212   0.0753     0.75     O
P      0.62324  0.71698     0.75     P
O      0.62423   0.6714   0.6548     O
O      0.62423   0.6714   0.8452     O
O       0.6394     0.59   0.0027     O
O       0.6394     0.59   0.4973     O
Be      0.6431   0.5955   0.6184    Be
Be      0.6431   0.5955   0.8816    Be
Be      0.6461   0.6921     0.25    Be
H       0.6561   0.8745   0.5465     H
H       0.6561   0.8745   0.9535     H
O       0.6573   0.7869     0.25     O
O       0.6638   0.4115     0.25     O
H      0.66667  0.33333   0.1581     H
P      0.66667  0.33333     0.25     P
H      0.66667  0.33333   0.3419     H
O       0.6714  0.04717   0.1548     O
O       0.6714  0.04717   0.3452     O
O       0.6872  0.54297   0.1501     O
O       0.6872  0.54297   0.3499     O
O       0.6873   0.9913   0.6517     O
O       0.6873   0.9913   0.8483     O
Be      0.6921    0.046     0.75    Be
O        0.696   0.6873   0.1517     O
O        0.696   0.6873   0.3483     O
H       0.6988   0.7983     0.75     H
P      0.70125  0.62043  0.08981     P
P      0.70125  0.62043  0.41019     P
Be      0.7151   0.5142     0.25    Be
P      0.71698  0.09374     0.25     P
O       0.7295   0.1826     0.25     O
O       0.7362   0.6149   0.6559     O
O       0.7362   0.6149   0.8441     O
O       0.7477   0.3362     0.25     O
H       0.7541   0.5173     0.75     H
H       0.7632   0.2459     0.75     H
P      0.77421  0.60193     0.75     P
H       0.7816   0.6561   0.0465     H
H       0.7816   0.6561   0.4535     H
O       0.7869   0.1296     0.75     O
H       0.7983   0.0995     0.25     H
Be      0.7991   0.2849     0.25    Be
O       0.8174   0.5469     0.25     O
P      0.82772  0.22579     0.75     P
O      0.85577   0.3128   0.1501     O
O      0.85577   0.3128   0.3499     O
O       0.8704   0.6573     0.75     O
H       0.8745   0.2184   0.0465     H
H       0.8745   0.2184   0.4535     H
O       0.8787   0.2638   0.6559     O
O       0.8787   0.2638   0.8441     O
H       0.9005   0.6988     0.25     H
P      0.90626  0.62324     0.25     P
P      0.91918  0.29875  0.08981     P
P      0.91918  0.29875  0.41019     P
O       0.9247   0.5459     0.75     O
O       0.9391  0.43436   0.6556     O
O       0.9391  0.43436   0.8444     O
O       0.9506   0.3606   0.0027     O
O       0.9506   0.3606   0.4973     O
Be      0.9524   0.3569   0.6184    Be
Be      0.9524   0.3569   0.8816    Be
O      0.95283  0.62423   0.1548     O
O      0.95283  0.62423   0.3452     O
Be       0.954   0.6461     0.75    Be
H       0.9623   0.4663     0.25     H
P      0.96283  0.48804     0.75     P
O       0.9913    0.304   0.1517     O
O       0.9913    0.304   0.3483     O
