data_I
_chemical_name_common  '/home/zhangsd/repos/MofS-CGCNN/ML/data/TSD/clean_cifs/NABMUA01_clean'
_cell_length_a 11.47990
_cell_length_b 11.47990
_cell_length_c 14.73500
_cell_angle_alpha 90.00000
_cell_angle_beta  90.00000
_cell_angle_gamma 120.00000
_space_group_name_H-M_alt      'P 1'


loop_
_space_group_symop_operation_xyz
  'x, y, z' 

loop_
_atom_site_label
_atom_site_fract_x
_atom_site_fract_y
_atom_site_fract_z
_atom_site_type_symbol
H        0.013   0.5065  0.91667     H
O       0.0224   0.3889  0.55312     O
O       0.0224   0.6335  0.28021     O
C       0.1024  0.42051  0.77917     C
C       0.1024  0.68189  0.05416     C
C      0.10664  0.55332  0.91667     C
O      0.17205  0.39936  0.72339     O
O      0.17205  0.77269  0.10994     O
C      0.17632  0.52351  0.85253     C
C      0.17632  0.65281   0.9808     C
Mg     0.19381  0.38761  0.58333    Mg
Mg     0.19381   0.8062     0.25    Mg
H        0.205   0.5675  0.34783     H
H        0.205   0.6375   0.4855     H
O      0.22731  0.39936  0.44327     O
O      0.22731  0.82795  0.39006     O
C      0.27717  0.59236  0.30859     C
C      0.27717  0.68481  0.52474     C
N      0.30713  0.61426  0.58333     N
N      0.30713  0.69287     0.25     N
C      0.31519  0.59236  0.85807     C
C      0.31519  0.72283  0.97526     C
C      0.31811  0.42051  0.38749     C
C      0.31811   0.8976  0.44584     C
C      0.34719  0.52351  0.31413     C
C      0.34719  0.82368   0.5192     C
H       0.3625   0.5675  0.81883     H
H       0.3625    0.795   0.0145     H
O       0.3665   0.3889  0.61355     O
O       0.3665   0.9776  0.21979     O
N      0.38574  0.69287  0.91667     N
Mg     0.38761  0.19381  0.41667    Mg
O       0.3889   0.0224  0.44688     O
O       0.3889   0.3665  0.38645     O
O      0.39936  0.17205  0.27661     O
O      0.39936  0.22731  0.55673     O
C      0.40764  0.68481  0.64193     C
C      0.40764  0.72283  0.19141     C
C      0.42051   0.1024  0.22083     C
C      0.42051  0.31811  0.61251     C
H       0.4325   0.6375  0.68117     H
H       0.4325    0.795  0.15217     H
C      0.44668  0.55332     0.25     C
C      0.44668  0.89336  0.58333     C
C      0.47649  0.65281  0.18587     C
C      0.47649  0.82368  0.64747     C
H       0.4935   0.5065     0.25     H
H       0.4935    0.987  0.58333     H
H       0.5065    0.013  0.08333     H
H       0.5065   0.4935     0.75     H
C      0.52351  0.17632  0.14747     C
C      0.52351  0.34719  0.68587     C
C      0.55332  0.10664  0.08333     C
C      0.55332  0.44668     0.75     C
H       0.5675    0.205  0.65217     H
H       0.5675   0.3625  0.18117     H
C      0.57949  0.68189  0.11251     C
C      0.57949   0.8976  0.72083     C
C      0.59236  0.27717  0.69141     C
C      0.59236  0.31519  0.14193     C
O      0.60064  0.77269  0.05673     O
O      0.60064  0.82795  0.77661     O
O       0.6111   0.6335  0.88645     O
O       0.6111   0.9776  0.94688     O
Mg     0.61239  0.80619  0.91667    Mg
N      0.61426  0.30713  0.41667     N
O       0.6335   0.0224  0.71979     O
O       0.6335   0.6111  0.11355     O
H       0.6375    0.205   0.5145     H
H       0.6375   0.4325  0.31883     H
C      0.65281  0.17632   0.0192     C
C      0.65281  0.47649  0.81413     C
C      0.68189   0.1024  0.94584     C
C      0.68189  0.57949  0.88749     C
C      0.68481  0.27717  0.47526     C
C      0.68481  0.40764  0.35807     C
N      0.69287  0.30713     0.75     N
N      0.69287  0.38574  0.08333     N
C      0.72283  0.31519  0.02474     C
C      0.72283  0.40764  0.80859     C
O      0.77269  0.17205  0.89006     O
O      0.77269  0.60064  0.94327     O
H        0.795   0.3625   0.9855     H
H        0.795   0.4325  0.84783     H
Mg      0.8062  0.19381     0.75    Mg
Mg      0.8062   0.6124  0.08333    Mg
C      0.82368  0.34719   0.4808     C
C      0.82368  0.47649  0.35253     C
O      0.82795  0.22731  0.60994     O
O      0.82795  0.60064  0.22339     O
C      0.89336  0.44668  0.41667     C
C       0.8976  0.31811  0.55416     C
C       0.8976  0.57949  0.27917     C
O       0.9776   0.3665  0.78021     O
O       0.9776   0.6111  0.05312     O
H        0.987   0.4935  0.41667     H
