data_I
_chemical_name_common  '/home/zhangsd/repos/MofS-CGCNN/ML/data/TSD/clean_cifs/NAFSOF_clean'
_cell_length_a 13.11300
_cell_length_b 29.05800
_cell_length_c 30.16700
_cell_angle_alpha 90.00000
_cell_angle_beta  90.00000
_cell_angle_gamma 90.00000
_space_group_name_H-M_alt      'P 1'


loop_
_space_group_symop_operation_xyz
  'x, y, z' 

loop_
_atom_site_label
_atom_site_fract_x
_atom_site_fract_y
_atom_site_fract_z
_atom_site_type_symbol
C          0.0   0.0256     0.25     C
C          0.0   0.0256     0.75     C
C          0.0  0.12114     0.25     C
C          0.0  0.12114     0.75     C
H          0.0   0.1531     0.25     H
H          0.0   0.1531     0.75     H
H          0.0   0.8469     0.25     H
H          0.0   0.8469     0.75     H
C          0.0  0.87886     0.25     C
C          0.0  0.87886     0.75     C
C          0.0   0.9744     0.25     C
C          0.0   0.9744     0.75     C
H        0.019   0.2135   0.1128     H
H        0.019   0.2135   0.8872     H
H        0.019   0.7865   0.3872     H
H        0.019   0.7865   0.6128     H
C       0.0195  0.16326  0.15907     C
C       0.0195  0.16326  0.84093     C
C       0.0195  0.83674  0.34093     C
C       0.0195  0.83674  0.65907     C
C       0.0319  0.04974  0.21248     C
C       0.0319  0.04974  0.78752     C
C       0.0319  0.95026  0.28752     C
C       0.0319  0.95026  0.71248     C
C       0.0325    0.098  0.21248     C
C       0.0325    0.098  0.78752     C
C       0.0325    0.902  0.28752     C
C       0.0325    0.902  0.71248     C
H       0.0361   0.1743    0.325     H
H       0.0361   0.1743    0.675     H
H       0.0361   0.8257    0.175     H
H       0.0361   0.8257    0.825     H
H       0.0528   0.0338   0.1874     H
H       0.0528   0.0338   0.8126     H
H       0.0528   0.9662   0.3126     H
H       0.0528   0.9662   0.6874     H
C       0.0536  0.18724  0.12187     C
C       0.0536  0.18724  0.87813     C
C       0.0536  0.81276  0.37813     C
C       0.0536  0.81276  0.62187     C
C       0.0676  0.12332  0.17247     C
C       0.0676  0.12332  0.82753     C
C       0.0676  0.87668  0.32753     C
C       0.0676  0.87668  0.67247     C
O       0.1218  0.23256  0.04636     O
O       0.1218  0.23256  0.95364     O
O       0.1218  0.76744  0.45364     O
O       0.1218  0.76744  0.54636     O
C       0.1362  0.17289  0.09879     C
C       0.1362  0.17289  0.90121     C
C       0.1362  0.82711  0.40121     C
C       0.1362  0.82711  0.59879     C
C       0.1522  0.10838  0.14859     C
C       0.1522  0.10838  0.85141     C
C       0.1522  0.89162  0.35141     C
C       0.1522  0.89162  0.64859     C
Cu     0.16668  0.27531      0.0    Cu
Cu     0.16668  0.72469      0.5    Cu
C       0.1772  0.20016  0.06056     C
C       0.1772  0.20016  0.93944     C
C       0.1772  0.79984  0.43944     C
C       0.1772  0.79984  0.56056     C
H       0.1856   0.0816   0.1572     H
H       0.1856   0.0816   0.8428     H
H       0.1856   0.9184   0.3428     H
H       0.1856   0.9184   0.6572     H
C       0.1877    0.133  0.11189     C
C       0.1877    0.133  0.88811     C
C       0.1877    0.867  0.38811     C
C       0.1877    0.867  0.61189     C
O       0.2369  0.31086  0.04573     O
O       0.2369  0.31086  0.95427     O
O       0.2369  0.68914  0.45427     O
O       0.2369  0.68914  0.54573     O
H       0.2449    0.123   0.0964     H
H       0.2449    0.123   0.9036     H
H       0.2449    0.877   0.4036     H
H       0.2449    0.877   0.5964     H
H       0.2551    0.377   0.0964     H
H       0.2551    0.377   0.9036     H
H       0.2551    0.623   0.4036     H
H       0.2551    0.623   0.5964     H
O       0.2631  0.18914  0.04573     O
O       0.2631  0.18914  0.95427     O
O       0.2631  0.81086  0.45427     O
O       0.2631  0.81086  0.54573     O
C       0.3123    0.367  0.11189     C
C       0.3123    0.367  0.88811     C
C       0.3123    0.633  0.38811     C
C       0.3123    0.633  0.61189     C
H       0.3144   0.4184   0.1572     H
H       0.3144   0.4184   0.8428     H
H       0.3144   0.5816   0.3428     H
H       0.3144   0.5816   0.6572     H
C       0.3228  0.29984  0.06056     C
C       0.3228  0.29984  0.93944     C
C       0.3228  0.70016  0.43944     C
C       0.3228  0.70016  0.56056     C
Cu     0.33332  0.22469      0.0    Cu
Cu     0.33332  0.77531      0.5    Cu
C       0.3478  0.39162  0.14859     C
C       0.3478  0.39162  0.85141     C
C       0.3478  0.60838  0.35141     C
C       0.3478  0.60838  0.64859     C
C       0.3638  0.32711  0.09879     C
C       0.3638  0.32711  0.90121     C
C       0.3638  0.67289  0.40121     C
C       0.3638  0.67289  0.59879     C
O       0.3782  0.26744  0.04636     O
O       0.3782  0.26744  0.95364     O
O       0.3782  0.73256  0.45364     O
O       0.3782  0.73256  0.54636     O
C       0.4324  0.37668  0.17247     C
C       0.4324  0.37668  0.82753     C
C       0.4324  0.62332  0.32753     C
C       0.4324  0.62332  0.67247     C
C       0.4464  0.31276  0.12187     C
C       0.4464  0.31276  0.87813     C
C       0.4464  0.68724  0.37813     C
C       0.4464  0.68724  0.62187     C
H       0.4472   0.4662   0.1874     H
H       0.4472   0.4662   0.8126     H
H       0.4472   0.5338   0.3126     H
H       0.4472   0.5338   0.6874     H
H       0.4639   0.3257    0.325     H
H       0.4639   0.3257    0.675     H
H       0.4639   0.6743    0.175     H
H       0.4639   0.6743    0.825     H
C       0.4675    0.402  0.21248     C
C       0.4675    0.402  0.78752     C
C       0.4675    0.598  0.28752     C
C       0.4675    0.598  0.71248     C
C       0.4681  0.45026  0.21248     C
C       0.4681  0.45026  0.78752     C
C       0.4681  0.54974  0.28752     C
C       0.4681  0.54974  0.71248     C
C       0.4805  0.33674  0.15907     C
C       0.4805  0.33674  0.84093     C
C       0.4805  0.66326  0.34093     C
C       0.4805  0.66326  0.65907     C
H        0.481   0.2865   0.1128     H
H        0.481   0.2865   0.8872     H
H        0.481   0.7135   0.3872     H
H        0.481   0.7135   0.6128     H
H          0.5   0.3469     0.25     H
H          0.5   0.3469     0.75     H
C          0.5  0.37886     0.25     C
C          0.5  0.37886     0.75     C
C          0.5   0.4744     0.25     C
C          0.5   0.4744     0.75     C
C          0.5   0.5256     0.25     C
C          0.5   0.5256     0.75     C
C          0.5  0.62114     0.25     C
C          0.5  0.62114     0.75     C
H          0.5   0.6531     0.25     H
H          0.5   0.6531     0.75     H
H        0.519   0.2865   0.3872     H
H        0.519   0.2865   0.6128     H
H        0.519   0.7135   0.1128     H
H        0.519   0.7135   0.8872     H
C       0.5195  0.33674  0.34093     C
C       0.5195  0.33674  0.65907     C
C       0.5195  0.66326  0.15907     C
C       0.5195  0.66326  0.84093     C
C       0.5319  0.45026  0.28752     C
C       0.5319  0.45026  0.71248     C
C       0.5319  0.54974  0.21248     C
C       0.5319  0.54974  0.78752     C
C       0.5325    0.402  0.28752     C
C       0.5325    0.402  0.71248     C
C       0.5325    0.598  0.21248     C
C       0.5325    0.598  0.78752     C
H       0.5361   0.3257    0.175     H
H       0.5361   0.3257    0.825     H
H       0.5361   0.6743    0.325     H
H       0.5361   0.6743    0.675     H
H       0.5528   0.4662   0.3126     H
H       0.5528   0.4662   0.6874     H
H       0.5528   0.5338   0.1874     H
H       0.5528   0.5338   0.8126     H
C       0.5536  0.31276  0.37813     C
C       0.5536  0.31276  0.62187     C
C       0.5536  0.68724  0.12187     C
C       0.5536  0.68724  0.87813     C
C       0.5676  0.37668  0.32753     C
C       0.5676  0.37668  0.67247     C
C       0.5676  0.62332  0.17247     C
C       0.5676  0.62332  0.82753     C
O       0.6218  0.26744  0.45364     O
O       0.6218  0.26744  0.54636     O
O       0.6218  0.73256  0.04636     O
O       0.6218  0.73256  0.95364     O
C       0.6362  0.32711  0.40121     C
C       0.6362  0.32711  0.59879     C
C       0.6362  0.67289  0.09879     C
C       0.6362  0.67289  0.90121     C
C       0.6522  0.39162  0.35141     C
C       0.6522  0.39162  0.64859     C
C       0.6522  0.60838  0.14859     C
C       0.6522  0.60838  0.85141     C
Cu     0.66668  0.22469      0.5    Cu
Cu     0.66668  0.77531      0.0    Cu
C       0.6772  0.29984  0.43944     C
C       0.6772  0.29984  0.56056     C
C       0.6772  0.70016  0.06056     C
C       0.6772  0.70016  0.93944     C
H       0.6856   0.4184   0.3428     H
H       0.6856   0.4184   0.6572     H
H       0.6856   0.5816   0.1572     H
H       0.6856   0.5816   0.8428     H
C       0.6877    0.367  0.38811     C
C       0.6877    0.367  0.61189     C
C       0.6877    0.633  0.11189     C
C       0.6877    0.633  0.88811     C
O       0.7369  0.18914  0.45427     O
O       0.7369  0.18914  0.54573     O
O       0.7369  0.81086  0.04573     O
O       0.7369  0.81086  0.95427     O
H       0.7449    0.377   0.4036     H
H       0.7449    0.377   0.5964     H
H       0.7449    0.623   0.0964     H
H       0.7449    0.623   0.9036     H
H       0.7551    0.123   0.4036     H
H       0.7551    0.123   0.5964     H
H       0.7551    0.877   0.0964     H
H       0.7551    0.877   0.9036     H
O       0.7631  0.31086  0.45427     O
O       0.7631  0.31086  0.54573     O
O       0.7631  0.68914  0.04573     O
O       0.7631  0.68914  0.95427     O
C       0.8123    0.133  0.38811     C
C       0.8123    0.133  0.61189     C
C       0.8123    0.867  0.11189     C
C       0.8123    0.867  0.88811     C
H       0.8144   0.0816   0.3428     H
H       0.8144   0.0816   0.6572     H
H       0.8144   0.9184   0.1572     H
H       0.8144   0.9184   0.8428     H
C       0.8228  0.20016  0.43944     C
C       0.8228  0.20016  0.56056     C
C       0.8228  0.79984  0.06056     C
C       0.8228  0.79984  0.93944     C
Cu     0.83332  0.27531      0.5    Cu
Cu     0.83332  0.72469      0.0    Cu
C       0.8478  0.10838  0.35141     C
C       0.8478  0.10838  0.64859     C
C       0.8478  0.89162  0.14859     C
C       0.8478  0.89162  0.85141     C
C       0.8638  0.17289  0.40121     C
C       0.8638  0.17289  0.59879     C
C       0.8638  0.82711  0.09879     C
C       0.8638  0.82711  0.90121     C
O       0.8782  0.23256  0.45364     O
O       0.8782  0.23256  0.54636     O
O       0.8782  0.76744  0.04636     O
O       0.8782  0.76744  0.95364     O
C       0.9324  0.12332  0.32753     C
C       0.9324  0.12332  0.67247     C
C       0.9324  0.87668  0.17247     C
C       0.9324  0.87668  0.82753     C
C       0.9464  0.18724  0.37813     C
C       0.9464  0.18724  0.62187     C
C       0.9464  0.81276  0.12187     C
C       0.9464  0.81276  0.87813     C
H       0.9472   0.0338   0.3126     H
H       0.9472   0.0338   0.6874     H
H       0.9472   0.9662   0.1874     H
H       0.9472   0.9662   0.8126     H
H       0.9639   0.1743    0.175     H
H       0.9639   0.1743    0.825     H
H       0.9639   0.8257    0.325     H
H       0.9639   0.8257    0.675     H
C       0.9675    0.098  0.28752     C
C       0.9675    0.098  0.71248     C
C       0.9675    0.902  0.21248     C
C       0.9675    0.902  0.78752     C
C       0.9681  0.04974  0.28752     C
C       0.9681  0.04974  0.71248     C
C       0.9681  0.95026  0.21248     C
C       0.9681  0.95026  0.78752     C
C       0.9805  0.16326  0.34093     C
C       0.9805  0.16326  0.65907     C
C       0.9805  0.83674  0.15907     C
C       0.9805  0.83674  0.84093     C
H        0.981   0.2135   0.3872     H
H        0.981   0.2135   0.6128     H
H        0.981   0.7865   0.1128     H
H        0.981   0.7865   0.8872     H
