data_I
_chemical_name_common  '/home/zhangsd/repos/MofS-CGCNN/ML/data/TSD/clean_cifs/NAHHAI_clean'
_cell_length_a 10.46220
_cell_length_b  7.18700
_cell_length_c 13.45440
_cell_angle_alpha 90.00000
_cell_angle_beta  112.69400
_cell_angle_gamma 90.00000
_space_group_name_H-M_alt      'P 1'


loop_
_space_group_symop_operation_xyz
  'x, y, z' 

loop_
_atom_site_label
_atom_site_fract_x
_atom_site_fract_y
_atom_site_fract_z
_atom_site_type_symbol
Cd         0.0      0.0      0.0    Cd
Cd         0.0      0.5      0.0    Cd
H       0.0313     0.25   0.4535     H
O       0.0564     0.75   0.3985     O
C       0.0711     0.25    0.659     C
N       0.0964   0.1572   0.1618     N
N       0.0964   0.3428   0.1618     N
O       0.0975     0.75   0.0976     O
O       0.1143     0.25   0.7627     O
C       0.1264     0.25    0.493     C
N       0.1355   0.0964   0.2606     N
N       0.1355   0.4036   0.2606     N
Cd      0.1437     0.75  0.27488    Cd
C       0.1639     0.25   0.3226     C
C       0.1796     0.25    0.608     C
C       0.2143     0.25   0.4427     C
C       0.3142     0.25   0.6678     C
H       0.3464     0.25   0.7426     H
C       0.3594     0.25   0.5052     C
O        0.365     0.75   0.3774     O
O       0.3944     0.75   0.2233     O
C       0.4078     0.25   0.6145     C
H       0.4215     0.25    0.471     H
C        0.436     0.75   0.3209     C
C        0.564     0.25   0.6791     C
H       0.5785     0.75    0.529     H
C       0.5922     0.75   0.3855     C
O       0.6056     0.25   0.7767     O
O        0.635     0.25   0.6226     O
C       0.6406     0.75   0.4948     C
H       0.6536     0.75   0.2574     H
C       0.6858     0.75   0.3322     C
C       0.7857     0.75   0.5573     C
C       0.8204     0.75    0.392     C
C       0.8361     0.75   0.6774     C
Cd      0.8563     0.25  0.72512    Cd
N       0.8645   0.5964   0.7394     N
N       0.8645   0.9036   0.7394     N
C       0.8736     0.75    0.507     C
O       0.8857     0.75   0.2373     O
O       0.9025     0.25   0.9024     O
N       0.9036   0.6572   0.8382     N
N       0.9036   0.8428   0.8382     N
C       0.9289     0.75    0.341     C
O       0.9436     0.25   0.6015     O
H       0.9687     0.75   0.5465     H
