data_I
_chemical_name_common  '/home/zhangsd/repos/MofS-CGCNN/ML/data/TSD/clean_cifs/NANNAU_clean'
_cell_length_a  9.30860
_cell_length_b 21.18290
_cell_length_c 21.45600
_cell_angle_alpha 90.00000
_cell_angle_beta  90.00000
_cell_angle_gamma 90.00000
_space_group_name_H-M_alt      'P 1'


loop_
_space_group_symop_operation_xyz
  'x, y, z' 

loop_
_atom_site_label
_atom_site_fract_x
_atom_site_fract_y
_atom_site_fract_z
_atom_site_type_symbol
N       0.0022   0.7568    0.725     N
O       0.0035  0.07453  0.30556     O
H      0.00472  0.86443  0.30524     H
H      0.00654  0.64558  0.45705     H
C       0.0116   0.2334   0.3971     C
C       0.0165   0.0986   0.8999     C
H      0.02453  0.56895  0.94538     H
H      0.02456  0.82793  0.55446     H
C       0.0256   0.7872   0.4693     C
C       0.0268   0.0998   0.5759     C
H      0.02846  0.38296  0.45268     H
C        0.031    0.161   0.5532     C
N       0.0318   0.6761  0.00628     N
H      0.03231  0.82576  0.78652     H
C       0.0348   0.6279   0.4948     C
C       0.0445   0.1476   0.2241     C
C       0.0543   0.7355    0.365     C
C       0.0595   0.1273   0.9552     C
C       0.0606   0.7861   0.7726     C
H      0.06081  0.67162  0.69541     H
C       0.0611  0.19623   0.4461     C
N       0.0625  0.94227  0.95004     N
H      0.06319   0.2737   0.3149     H
H      0.06499  0.26901  0.02754     H
C       0.0707  0.41035   0.5412     C
O       0.0709  0.47045  0.01435     O
Zn     0.07725  0.00286  0.35337    Zn
C       0.0786   0.7032   0.7245     C
C       0.0788    0.823   0.5184     C
H      0.07923  0.09678  0.86618     H
C       0.0823   0.8789   0.2819     C
H      0.08321  0.74725  0.10255     H
C       0.0924   0.2232   0.1424     C
O       0.0928  0.46123  0.11715     O
C       0.0975   0.3819    0.484     C
H      0.09781  0.04328  0.64427     H
C       0.0983   0.0846   0.6297     C
C       0.0983   0.0994   0.2699     C
C       0.0993   0.2504   0.3481     C
C        0.101   0.6618   0.2809     C
C       0.1035   0.2076   0.5868     C
H      0.10602  0.24883  0.57186     H
C       0.1064   0.7783   0.4152     C
H      0.10656  0.94026  0.85794     H
H      0.10703  0.81161  0.89968     H
C        0.121   0.5725   0.6051     C
H      0.12943  0.62323  0.10909     H
C       0.1353   0.4543   0.0609     C
C       0.1366   0.9514   0.8978     C
N       0.1374  0.84668  0.23577     N
N       0.1379  0.96404  0.00026     N
C       0.1403   0.1799   0.1857     C
N       0.1479  0.93543  0.29324     N
H      0.14867  0.55289    0.642     H
C        0.149   0.7044   0.3253     C
H      0.15392  0.42608  0.62651     H
H      0.15868  0.24457  0.11777     H
N       0.1664   0.7519  0.79876     N
H      0.16648  0.64257  0.25418     H
C       0.1677    0.649   0.0204     C
H      0.17038  0.99534  0.49686     H
C       0.1709   0.1308   0.6622     C
C       0.1709    0.193   0.6417     C
C       0.1721    0.602   0.5008     C
C       0.1728   0.4078   0.5879     C
N        0.181    0.697   0.7675     N
H      0.18408  0.02969  0.74585     H
C       0.1976   0.6217   0.0774     C
C       0.2041   0.8013   0.8986     C
C       0.2056   0.1566   0.9607     C
H      0.20566  0.19702  0.87584     H
C       0.2067   0.1801   0.4466     C
C       0.2122   0.8512   0.5138     C
H      0.21602  0.22425  0.66494     H
C       0.2163   0.5755   0.5558     C
C       0.2272   0.3522    0.474     C
O       0.2276  0.08516  0.27102     O
H      0.23449  0.60289  0.46697     H
H      0.23826   0.1721  0.18933     H
N       0.2394   0.0211   0.4119     N
C       0.2398   0.8076   0.4119     C
C       0.2417   0.2322   0.3492     C
H      0.24375  0.15662  0.47958     H
C       0.2441   0.0141   0.4742     C
H      0.24482  0.33265  0.43589     H
H      0.24676  0.87563  0.54655     H
H      0.24696   0.7123   0.3287     H
N       0.2478  0.88536  0.21677     N
C       0.2491   0.0626   0.7509     C
C       0.2509   0.9374   0.2509     C
N       0.2522  0.11464  0.71677     N
H      0.25304   0.2877   0.8287     H
H      0.25324  0.12437  0.04655     H
H      0.25518  0.66735  0.93589     H
C       0.2559   0.9859   0.9742     C
H      0.25625  0.84338  0.97958     H
C       0.2583   0.7678   0.8492     C
C       0.2602   0.1924   0.9119     C
N       0.2606   0.9789   0.9119     N
H      0.26174   0.8279  0.68933     H
H      0.26551  0.39711  0.96697     H
O       0.2724  0.91484  0.77102     O
C       0.2728   0.6478    0.974     C
C       0.2837   0.4245   0.0558     C
H      0.28398  0.77575  0.16494     H
C       0.2878   0.1488   0.0138     C
C       0.2933   0.8199   0.9466     C
H      0.29434  0.80298  0.37584     H
C       0.2944   0.8434   0.4607     C
C       0.2959   0.1987   0.3986     C
C       0.3024   0.3783   0.5774     C
H      0.31592  0.97031  0.24585     H
N        0.319    0.303   0.2675     N
C       0.3272   0.5922   0.0879     C
C       0.3279    0.398   0.0008     C
C       0.3291    0.807   0.1417     C
C       0.3291   0.8692   0.1622     C
H      0.32962  0.00466  0.99686     H
C       0.3323    0.351   0.5204     C
H      0.33352  0.35743  0.75418     H
N       0.3336   0.2481  0.29876     N
H      0.34132  0.75543  0.61777     H
H      0.34608  0.57392  0.12651     H
C        0.351   0.2956   0.8253     C
H      0.35133  0.44711    0.142     H
N       0.3521  0.06457  0.79324     N
C       0.3597   0.8201   0.6857     C
N       0.3621  0.03596  0.50026     N
N       0.3626  0.15332  0.73577     N
C       0.3634   0.0486   0.3978     C
C       0.3647   0.5457   0.5609     C
H      0.37057  0.37677  0.60909     H
C        0.379   0.4275   0.1051     C
H      0.39297  0.18839  0.39968     H
H      0.39344  0.05974  0.35794     H
C       0.3936   0.2217   0.9152     C
H      0.39398  0.75117  0.07186     H
C       0.3965   0.7924   0.0868     C
C        0.399   0.3382   0.7809     C
C       0.4007   0.7496   0.8481     C
C       0.4017   0.9006   0.7699     C
C       0.4017   0.9154   0.1297     C
H      0.40219  0.95672  0.14427     H
C       0.4025   0.6181    0.984     C
O       0.4072  0.53877  0.61715     O
C       0.4076   0.7768   0.6424     C
H      0.41679  0.25275  0.60255     H
C       0.4177   0.1211   0.7819     C
H      0.42077  0.90322  0.36618     H
C       0.4212    0.177   0.0184     C
C       0.4214   0.2968   0.2245     C
Zn     0.42275  0.99714  0.85337    Zn
O       0.4291  0.52955  0.51435     O
C       0.4293  0.58965   0.0412     C
H      0.43501  0.73099  0.52754     H
H      0.43681   0.7263   0.8149     H
N       0.4375  0.05773  0.45004     N
C       0.4389  0.80377   0.9461     C
H      0.43919  0.32838  0.19541     H
C       0.4394   0.2139   0.2726     C
C       0.4405   0.8727   0.4552     C
C       0.4457   0.2645    0.865     C
C       0.4555   0.8524   0.7241     C
C       0.4652   0.3721   0.9948     C
H      0.46769  0.17424  0.28652     H
N       0.4682   0.3239  0.50628     N
C        0.469    0.839   0.0532     C
H      0.47154  0.61704  0.95268     H
C       0.4732   0.9002   0.0759     C
C       0.4744   0.2128   0.9693     C
H      0.47544  0.17207  0.05446     H
H      0.47547  0.43105  0.44538     H
C       0.4835   0.9014   0.3999     C
C       0.4884   0.7666   0.8971     C
H      0.49346  0.35442  0.95705     H
H      0.49528  0.13557  0.80524     H
O       0.4965  0.92547  0.80556     O
N       0.4978   0.2432    0.225     N
N       0.5022   0.7432    0.275     N
O       0.5035  0.42547  0.69444     O
H      0.50472  0.63557  0.69476     H
H      0.50654  0.85442  0.54295     H
C       0.5116   0.2666   0.6029     C
C       0.5165   0.4014   0.1001     C
H      0.52453  0.93105  0.05462     H
H      0.52456  0.67207  0.44554     H
C       0.5256   0.7128   0.5307     C
C       0.5268   0.4002   0.4241     C
H      0.52846  0.11704  0.54732     H
C        0.531    0.339   0.4468     C
N       0.5318   0.8239  0.99372     N
H      0.53231  0.67424  0.21348     H
C       0.5348   0.8721   0.5052     C
C       0.5445   0.3524   0.7759     C
C       0.5543   0.7645    0.635     C
C       0.5595   0.3727   0.0448     C
C       0.5606   0.7139   0.2274     C
H      0.56081  0.82838  0.30459     H
C       0.5611  0.30377   0.5539     C
N       0.5625  0.55773  0.04996     N
H      0.56319   0.2263   0.6851     H
H      0.56499  0.23099  0.97246     H
C       0.5707  0.08965   0.4588     C
O       0.5709  0.02955  0.98565     O
Zn     0.57725  0.49714  0.64663    Zn
C       0.5786   0.7968   0.2755     C
C       0.5788    0.677   0.4816     C
H      0.57923  0.40322  0.13382     H
C       0.5823   0.6211   0.7181     C
H      0.58321  0.75275  0.89745     H
C       0.5924   0.2768   0.8576     C
O       0.5928  0.03877  0.88285     O
C       0.5975   0.1181    0.516     C
H      0.59781  0.45672  0.35573     H
C       0.5983   0.4006   0.7301     C
C       0.5983   0.4154   0.3703     C
C       0.5993   0.2496   0.6519     C
C        0.601   0.8382   0.7191     C
C       0.6035   0.2924   0.4132     C
H      0.60602  0.25117  0.42814     H
C       0.6064   0.7217   0.5848     C
H      0.60656  0.55974  0.14206     H
H      0.60703  0.68839  0.10032     H
C        0.621   0.9275   0.3949     C
H      0.62943  0.87677  0.89091     H
C       0.6353   0.0457   0.9391     C
C       0.6366   0.5486   0.1022     C
N       0.6374  0.65332  0.76423     N
N       0.6379  0.53596  0.99974     N
C       0.6403   0.3201   0.8143     C
N       0.6479  0.56457  0.70676     N
H      0.64867  0.94711    0.358     H
C        0.649   0.7956   0.6747     C
H      0.65392  0.07392  0.37349     H
H      0.65868  0.25543  0.88223     H
N       0.6664   0.7481  0.20124     N
H      0.66648  0.85743  0.74582     H
C       0.6677    0.851   0.9796     C
H      0.67038  0.50466  0.50314     H
C       0.6709    0.307   0.3583     C
C       0.6709   0.3692   0.3378     C
C       0.6721    0.898   0.4992     C
C       0.6728   0.0922   0.4121     C
N        0.681    0.803   0.2325     N
H      0.68408  0.47031  0.25415     H
C       0.6976   0.8783   0.9226     C
C       0.7041   0.6987   0.1014     C
C       0.7056   0.3434   0.0393     C
H      0.70566  0.30298  0.12416     H
C       0.7067   0.3199   0.5534     C
C       0.7122   0.6488   0.4862     C
H      0.71602  0.27575  0.33506     H
C       0.7163   0.9245   0.4442     C
C       0.7272   0.1478    0.526     C
O       0.7276  0.41484  0.72898     O
H      0.73449  0.89711  0.53303     H
H      0.73826   0.3279  0.81067     H
N       0.7394   0.4789   0.5881     N
C       0.7398   0.6924   0.5881     C
C       0.7417   0.2678   0.6508     C
H      0.74375  0.34338  0.52042     H
C       0.7441   0.4859   0.5258     C
H      0.74482  0.16735  0.56411     H
H      0.74676  0.62437  0.45345     H
H      0.74696   0.7877   0.6713     H
N       0.7478  0.61464  0.78323     N
C       0.7491   0.4374   0.2491     C
C       0.7509   0.5626   0.7491     C
N       0.7522  0.38536  0.28323     N
H      0.75304   0.2123   0.1713     H
H      0.75324  0.37563  0.95345     H
H      0.75518  0.83265  0.06411     H
C       0.7559   0.5141   0.0258     C
H      0.75625  0.65662  0.02042     H
C       0.7583   0.7322   0.1508     C
C       0.7602   0.3076   0.0881     C
N       0.7606   0.5211   0.0881     N
H      0.76174   0.6721  0.31067     H
H      0.76551  0.10289  0.03303     H
O       0.7724  0.58516  0.22898     O
C       0.7728   0.8522    0.026     C
C       0.7837   0.0755   0.9442     C
H      0.78398  0.72425  0.83506     H
C       0.7878   0.3512   0.9862     C
C       0.7933   0.6801   0.0534     C
H      0.79434  0.69702  0.62416     H
C       0.7944   0.6566   0.5393     C
C       0.7959   0.3013   0.6014     C
C       0.8024   0.1217   0.4226     C
H      0.81592  0.52969  0.75415     H
N        0.819    0.197   0.7325     N
C       0.8272   0.9078   0.9121     C
C       0.8279    0.102   0.9992     C
C       0.8291   0.6308   0.8378     C
C       0.8291    0.693   0.8583     C
H      0.82962  0.49534  0.00314     H
C       0.8323    0.149   0.4796     C
H      0.83352  0.14257  0.24582     H
N       0.8336   0.2519  0.70124     N
H      0.84132  0.74457  0.38223     H
H      0.84608  0.92608  0.87349     H
C        0.851   0.2044   0.1747     C
H      0.85133  0.05289    0.858     H
N       0.8521  0.43543  0.20676     N
C       0.8597   0.6799   0.3143     C
N       0.8621  0.46404  0.49974     N
N       0.8626  0.34668  0.26423     N
C       0.8634   0.4514   0.6022     C
C       0.8647   0.9543   0.4391     C
H      0.87057  0.12323  0.39091     H
C        0.879   0.0725   0.8949     C
H      0.89297  0.31161  0.60032     H
H      0.89344  0.44026  0.64206     H
C       0.8936   0.2783   0.0848     C
H      0.89398  0.74883  0.92814     H
C       0.8965   0.7076   0.9132     C
C        0.899   0.1618   0.2191     C
C       0.9007   0.7504   0.1519     C
C       0.9017   0.5846   0.8703     C
C       0.9017   0.5994   0.2301     C
H      0.90219  0.54328  0.85573     H
C       0.9025   0.8819    0.016     C
O       0.9072  0.96123  0.38285     O
C       0.9076   0.7232   0.3576     C
H      0.91679  0.24725  0.39745     H
C       0.9177   0.3789   0.2181     C
H      0.92077  0.59678  0.63382     H
C       0.9212    0.323   0.9816     C
C       0.9214   0.2032   0.7755     C
Zn     0.92275  0.50286  0.14663    Zn
O       0.9291  0.97045  0.48565     O
C       0.9293  0.91035   0.9588     C
H      0.93501  0.76901  0.47246     H
H      0.93681   0.7737   0.1851     H
N       0.9375  0.44227  0.54996     N
C       0.9389  0.69623   0.0539     C
H      0.93919  0.17162  0.80459     H
C       0.9394   0.2861   0.7274     C
C       0.9405   0.6273   0.5448     C
C       0.9457   0.2355    0.135     C
C       0.9555   0.6476   0.2759     C
C       0.9652   0.1279   0.0052     C
H      0.96769  0.32576  0.71348     H
N       0.9682   0.1761  0.49372     N
C        0.969    0.661   0.9468     C
H      0.97154  0.88296  0.04732     H
C       0.9732   0.5998   0.9241     C
C       0.9744   0.2872   0.0307     C
H      0.97544  0.32793  0.94554     H
H      0.97547  0.06895  0.55462     H
C       0.9835   0.5986   0.6001     C
C       0.9884   0.7334   0.1029     C
H      0.99346  0.14558  0.04295     H
H      0.99528  0.36443  0.19476     H
O       0.9965  0.57453  0.19444     O
N       0.9978   0.2568    0.775     N
