data_I
_chemical_name_common  '/home/zhangsd/repos/MofS-CGCNN/ML/data/TSD/clean_cifs/NANNEY_clean'
_cell_length_a  9.32720
_cell_length_b 21.37700
_cell_length_c 21.37700
_cell_angle_alpha 90.00000
_cell_angle_beta  90.00000
_cell_angle_gamma 90.00000
_space_group_name_H-M_alt      'P 1'


loop_
_space_group_symop_operation_xyz
  'x, y, z' 

loop_
_atom_site_label
_atom_site_fract_x
_atom_site_fract_y
_atom_site_fract_z
_atom_site_type_symbol
N       0.0023   0.7571   0.7756     N
O        0.004  0.07459   0.1948     O
H      0.00487  0.86484   0.1949     H
H      0.00836  0.64571  0.04291     H
C       0.0113  0.23337   0.1034     C
C       0.0164  0.09825      0.6     C
H      0.02476  0.82802   0.9449     H
H        0.025   0.5693  0.55398     H
C        0.026  0.09983  0.92445     C
C       0.0265   0.7877  0.03034     C
H      0.02732   0.3821  0.04682     H
C       0.0303  0.16107  0.94692     C
H       0.0311  0.82588  0.71364     H
N       0.0324  0.67629  0.49349     N
C       0.0359   0.6279   0.0051     C
C       0.0456  0.14757  0.27639     C
C       0.0544  0.73578  0.13465     C
C       0.0597  0.12702   0.5447     C
C       0.0598   0.7866   0.7276     C
H      0.06061  0.67252  0.80541     H
C       0.0612  0.19642  0.05428     C
N       0.0624  0.94221  0.55021     N
H      0.06378  0.26945  0.47299     H
H      0.06435  0.27361  0.18542     H
O       0.0703   0.4703  0.48556     O
C        0.071  0.41019  0.95841     C
Zn     0.07728  0.00306  0.14694    Zn
C       0.0785   0.7038   0.7762     C
C       0.0789   0.8231   0.9811     C
H      0.07928  0.09622  0.63372     H
C       0.0827  0.87898  0.21814     C
H      0.08343  0.74692  0.39676     H
O       0.0927  0.46141  0.38248     O
C       0.0933  0.22337  0.35805     C
C       0.0968  0.38144  0.01562     C
H      0.09689  0.04394  0.85554     H
C       0.0975  0.08486  0.87031     C
C       0.0995  0.09958  0.23054     C
C       0.0999   0.2502  0.15219     C
C       0.1008    0.662  0.21903     C
C       0.1015  0.20766  0.91323     C
H      0.10254  0.24858  0.92799     H
C       0.1059  0.77877  0.08449     C
H      0.10686   0.9402  0.64268     H
H      0.10733  0.81193  0.60008     H
C       0.1209   0.5724   0.8947     C
H      0.12982  0.62349  0.39012     H
C       0.1354  0.45423   0.4394     C
C       0.1366  0.95129  0.60266     C
N       0.1379  0.96399  0.49994     N
N       0.1385   0.8465  0.26431     N
C        0.141   0.1801  0.31485     C
H      0.14799  0.55297   0.8576     H
N       0.1483  0.93555  0.20684     N
C       0.1488   0.7046   0.1747     C
H      0.15417  0.42629   0.8731     H
H      0.15941  0.24463   0.3827     H
N       0.1659  0.75237  0.70153     N
H      0.16599  0.64292  0.24584     H
C       0.1676   0.6492   0.4795     C
C       0.1699  0.19297  0.85831     C
C       0.1703  0.13097  0.83784     C
H      0.17127  0.99573    0.003     H
C        0.172   0.6027   0.9989     C
C       0.1728  0.40786  0.91166     C
N       0.1808   0.6978   0.7333     N
H      0.18264     0.03  0.75389     H
C       0.1976  0.62182  0.42198     C
C       0.2042  0.80164  0.60138     C
C       0.2047  0.15626  0.53943     C
H      0.20614  0.19664  0.62433     H
C       0.2064  0.17993  0.05327     C
C       0.2123   0.8513    0.986     C
H      0.21534  0.22392  0.83504     H
C       0.2168  0.57528  0.94397     C
C       0.2268  0.35175  0.02583     C
O       0.2282  0.08503  0.22962     O
H      0.23468  0.60425  0.03275     H
H      0.23884  0.17248  0.31127     H
N       0.2393  0.02104  0.08831     N
C       0.2399  0.80801  0.08805     C
C       0.2425  0.23187  0.15122     C
H      0.24276  0.15654  0.02019     H
H      0.24399  0.33224  0.06398     H
C       0.2446  0.01427  0.02591     C
H      0.24654  0.71262  0.17154     H
H      0.24667  0.87553  0.95312     H
C        0.248   0.0625  0.74905     C
N       0.2481   0.8856  0.28353     N
N       0.2519   0.1144  0.78353     N
C        0.252   0.9375  0.24905     C
H      0.25333  0.12447  0.45312     H
H      0.25346  0.28738  0.67154     H
C       0.2554  0.98573  0.52591     C
H      0.25601  0.66776  0.56398     H
H      0.25724  0.84346  0.52019     H
C       0.2575  0.76813  0.65122     C
C       0.2601  0.19199  0.58805     C
N       0.2607  0.97896  0.58831     N
H      0.26116  0.82752  0.81127     H
H      0.26532  0.39575  0.53275     H
O       0.2718  0.91497  0.72962     O
C       0.2732  0.64825  0.52583     C
C       0.2832  0.42472  0.44397     C
H      0.28466  0.77608  0.33504     H
C       0.2877   0.1487    0.486     C
C       0.2936  0.82007  0.55327     C
H      0.29386  0.80336  0.12433     H
C       0.2953  0.84374  0.03943     C
C       0.2958  0.19836  0.10138     C
C       0.3024  0.37818  0.92198     C
H      0.31736     0.97  0.25389     H
N       0.3192   0.3022   0.2333     N
C       0.3272  0.59214  0.41166     C
C        0.328   0.3973   0.4989     C
H      0.32873  0.00427    0.503     H
C       0.3297  0.86903  0.33784     C
C       0.3301  0.80703  0.35831     C
C       0.3324   0.3508   0.9795     C
H      0.33401  0.35708  0.74584     H
N       0.3341  0.24763  0.20153     N
H      0.34059  0.75537   0.8827     H
H      0.34583  0.57371   0.3731     H
C       0.3512   0.2954   0.6747     C
N       0.3517  0.06445  0.70684     N
H      0.35201  0.44703   0.3576     H
C        0.359   0.8199  0.81485     C
N       0.3615   0.1535  0.76431     N
N       0.3621  0.03601  0.99994     N
C       0.3634  0.04871  0.10266     C
C       0.3646  0.54577   0.9394     C
H      0.37018  0.37651  0.89012     H
C       0.3791   0.4276   0.3947     C
H      0.39267  0.18807  0.10008     H
H      0.39314   0.0598  0.14268     H
C       0.3941  0.22123  0.58449     C
H      0.39746  0.75142  0.42799     H
C       0.3985  0.79234  0.41323     C
C       0.3992    0.338  0.71903     C
C       0.4001   0.7498  0.65219     C
C       0.4005  0.90042  0.73054     C
C       0.4025  0.91514  0.37031     C
H      0.40311  0.95606  0.35554     H
C       0.4032  0.61856  0.51562     C
C       0.4067  0.77663  0.85805     C
O       0.4073  0.53859  0.88248     O
H      0.41657  0.25308  0.89676     H
C       0.4173  0.12102  0.71814     C
H      0.42072  0.90378  0.13372     H
C       0.4211   0.1769   0.4811     C
C       0.4215   0.2962   0.2762     C
Zn     0.42272  0.99694  0.64694    Zn
C        0.429  0.58981  0.45841     C
O       0.4297   0.5297  0.98556     O
H      0.43565  0.72639  0.68542     H
H      0.43622  0.73055  0.97299     H
N       0.4376  0.05779  0.05021     N
C       0.4388  0.80358  0.55428     C
H      0.43939  0.32748  0.30541     H
C       0.4402   0.2134   0.2276     C
C       0.4403  0.87298   0.0447     C
C       0.4456  0.26422  0.63465     C
C       0.4544  0.85243  0.77639     C
C       0.4641   0.3721   0.5051     C
N       0.4676  0.32371  0.99349     N
H       0.4689  0.17412  0.21364     H
C       0.4697  0.83893  0.44692     C
H      0.47268   0.6179  0.54682     H
C       0.4735   0.2123  0.53034     C
C        0.474  0.90017  0.42445     C
H        0.475   0.4307  0.05398     H
H      0.47524  0.17198   0.4449     H
C       0.4836  0.90175      0.1     C
C       0.4887  0.76663   0.6034     C
H      0.49164  0.35429  0.54291     H
H      0.49513  0.13516   0.6949     H
O        0.496  0.92541   0.6948     O
N       0.4977   0.2429   0.2756     N
N       0.5023   0.7429   0.2244     N
O        0.504  0.42541   0.8052     O
H      0.50487  0.63516   0.8051     H
H      0.50836  0.85429  0.95709     H
C       0.5113  0.26663   0.8966     C
C       0.5164  0.40175      0.4     C
H      0.52476  0.67198   0.0551     H
H        0.525   0.9307  0.44602     H
C        0.526  0.40017  0.07555     C
C       0.5265   0.7123  0.96966     C
H      0.52732   0.1179  0.95318     H
C       0.5303  0.33893  0.05308     C
H       0.5311  0.67412  0.28636     H
N       0.5324  0.82371  0.50651     N
C       0.5359   0.8721   0.9949     C
C       0.5456  0.35243  0.72361     C
C       0.5544  0.76422  0.86535     C
C       0.5597  0.37298   0.4553     C
C       0.5598   0.7134   0.2724     C
H      0.56061  0.82748  0.19459     H
C       0.5612  0.30358  0.94572     C
N       0.5624  0.55779  0.44979     N
H      0.56378  0.23055  0.52701     H
H      0.56435  0.22639  0.81458     H
O       0.5703   0.0297  0.51444     O
C        0.571  0.08981  0.04159     C
Zn     0.57728  0.49694  0.85306    Zn
C       0.5785   0.7962   0.2238     C
C       0.5789   0.6769   0.0189     C
H      0.57928  0.40378  0.36628     H
C       0.5827  0.62102  0.78186     C
H      0.58343  0.75308  0.60324     H
O       0.5927  0.03859  0.61752     O
C       0.5933  0.27663  0.64195     C
C       0.5968  0.11856  0.98438     C
H      0.59689  0.45606  0.14446     H
C       0.5975  0.41514  0.12969     C
C       0.5995  0.40042  0.76946     C
C       0.5999   0.2498  0.84781     C
C       0.6008    0.838  0.78097     C
C       0.6015  0.29234  0.08677     C
H      0.60254  0.25142  0.07201     H
C       0.6059  0.72123  0.91551     C
H      0.60686   0.5598  0.35732     H
H      0.60733  0.68807  0.39992     H
C       0.6209   0.9276   0.1053     C
H      0.62982  0.87651  0.60988     H
C       0.6354  0.04577   0.5606     C
C       0.6366  0.54871  0.39734     C
N       0.6379  0.53601  0.50006     N
N       0.6385   0.6535  0.73569     N
C        0.641   0.3199  0.68515     C
H      0.64799  0.94703   0.1424     H
N       0.6483  0.56445  0.79316     N
C       0.6488   0.7954   0.8253     C
H      0.65417  0.07371   0.1269     H
H      0.65941  0.25537   0.6173     H
N       0.6659  0.74763  0.29847     N
H      0.66599  0.85708  0.75416     H
C       0.6676   0.8508   0.5205     C
C       0.6699  0.30703  0.14169     C
C       0.6703  0.36903  0.16216     C
H      0.67127  0.50427    0.997     H
C        0.672   0.8973   0.0011     C
C       0.6728  0.09214  0.08834     C
N       0.6808   0.8022   0.2667     N
H      0.68264     0.47  0.24611     H
C       0.6976  0.87818  0.57802     C
C       0.7042  0.69836  0.39862     C
C       0.7047  0.34374  0.46057     C
H      0.70614  0.30336  0.37567     H
C       0.7064  0.32007  0.94673     C
C       0.7123   0.6487    0.014     C
H      0.71534  0.27608  0.16496     H
C       0.7168  0.92472  0.05603     C
C       0.7268  0.14825  0.97417     C
O       0.7282  0.41497  0.77038     O
H      0.73468  0.89575  0.96725     H
H      0.73884  0.32752  0.68873     H
N       0.7393  0.47896  0.91169     N
C       0.7399  0.69199  0.91195     C
C       0.7425  0.26813  0.84878     C
H      0.74276  0.34346  0.97981     H
H      0.74399  0.16776  0.93602     H
C       0.7446  0.48573  0.97409     C
H      0.74654  0.78738  0.82846     H
H      0.74667  0.62447  0.04688     H
C        0.748   0.4375  0.25095     C
N       0.7481   0.6144  0.71647     N
N       0.7519   0.3856  0.21647     N
C        0.752   0.5625  0.75095     C
H      0.75333  0.37553  0.54688     H
H      0.75346  0.21262  0.32846     H
C       0.7554  0.51427  0.47409     C
H      0.75601  0.83224  0.43602     H
H      0.75724  0.65654  0.47981     H
C       0.7575  0.73187  0.34878     C
C       0.7601  0.30801  0.41195     C
N       0.7607  0.52104  0.41169     N
H      0.76116  0.67248  0.18873     H
H      0.76532  0.10425  0.46725     H
O       0.7718  0.58503  0.27038     O
C       0.7732  0.85175  0.47417     C
C       0.7832  0.07528  0.55603     C
H      0.78466  0.72392  0.66496     H
C       0.7877   0.3513    0.514     C
C       0.7936  0.67993  0.44673     C
H      0.79386  0.69664  0.87567     H
C       0.7953  0.65626  0.96057     C
C       0.7958  0.30164  0.89862     C
C       0.8024  0.12182  0.07802     C
H      0.81736     0.53  0.74611     H
N       0.8192   0.1978   0.7667     N
C       0.8272  0.90786  0.58834     C
C        0.828   0.1027   0.5011     C
H      0.82873  0.49573    0.497     H
C       0.8297  0.63097  0.66216     C
C       0.8301  0.69297  0.64169     C
C       0.8324   0.1492   0.0205     C
H      0.83401  0.14292  0.25416     H
N       0.8341  0.25237  0.79847     N
H      0.84059  0.74463   0.1173     H
H      0.84583  0.92629   0.6269     H
C       0.8512   0.2046   0.3253     C
N       0.8517  0.43555  0.29316     N
H      0.85201  0.05297   0.6424     H
C        0.859   0.6801  0.18515     C
N       0.8615   0.3465  0.23569     N
N       0.8621  0.46399    6e-05     N
C       0.8634  0.45129  0.89734     C
C       0.8646  0.95423   0.0606     C
H      0.87018  0.12349  0.10988     H
C       0.8791   0.0724   0.6053     C
H      0.89267  0.31193  0.89992     H
H      0.89314   0.4402  0.85732     H
C       0.8941  0.27877  0.41551     C
H      0.89746  0.74858  0.57201     H
C       0.8985  0.70766  0.58677     C
C       0.8992    0.162  0.28097     C
C       0.9001   0.7502  0.34781     C
C       0.9005  0.59958  0.26946     C
C       0.9025  0.58486  0.62969     C
H      0.90311  0.54394  0.64446     H
C       0.9032  0.88144  0.48438     C
C       0.9067  0.72337  0.14195     C
O       0.9073  0.96141  0.11752     O
H      0.91657  0.24692  0.10324     H
C       0.9173  0.37898  0.28186     C
H      0.92072  0.59622  0.86628     H
C       0.9211   0.3231   0.5189     C
C       0.9215   0.2038   0.7238     C
Zn     0.92272  0.50306  0.35306    Zn
C        0.929  0.91019  0.54159     C
O       0.9297   0.9703  0.01444     O
H      0.93565  0.77361  0.31458     H
H      0.93622  0.76945  0.02701     H
N       0.9376  0.44221  0.94979     N
C       0.9388  0.69642  0.44572     C
H      0.93939  0.17252  0.69459     H
C       0.9402   0.2866   0.7724     C
C       0.9403  0.62702   0.9553     C
C       0.9456  0.23578  0.36535     C
C       0.9544  0.64757  0.22361     C
C       0.9641   0.1279   0.4949     C
N       0.9676  0.17629  0.00651     N
H       0.9689  0.32588  0.78636     H
C       0.9697  0.66107  0.55308     C
H      0.97268   0.8821  0.45318     H
C       0.9735   0.2877  0.46966     C
C        0.974  0.59983  0.57555     C
H        0.975   0.0693  0.94602     H
H      0.97524  0.32802   0.5551     H
C       0.9836  0.59825      0.9     C
C       0.9887  0.73337   0.3966     C
H      0.99164  0.14571  0.45709     H
H      0.99513  0.36484   0.3051     H
O        0.996  0.57459   0.3052     O
N       0.9977   0.2571   0.7244     N
