data_I
_chemical_name_common  '/home/zhangsd/repos/MofS-CGCNN/ML/data/TSD/clean_cifs/NAQQED_clean'
_cell_length_a 21.75100
_cell_length_b 21.75100
_cell_length_c 16.14380
_cell_angle_alpha 90.00000
_cell_angle_beta  90.00000
_cell_angle_gamma 90.00000
_space_group_name_H-M_alt      'P 1'


loop_
_space_group_symop_operation_xyz
  'x, y, z' 

loop_
_atom_site_label
_atom_site_fract_x
_atom_site_fract_y
_atom_site_fract_z
_atom_site_type_symbol
H       0.0101   0.4803   0.3301     H
H       0.0101   0.9803   0.6699     H
O       0.0248   0.0822   0.1973     O
O       0.0248   0.5822   0.8027     O
C       0.0313   0.4106   0.1926     C
C       0.0313   0.9106   0.8074     C
C       0.0514   0.4692   0.3261     C
C       0.0514   0.9692   0.6739     C
O       0.0597   0.3841   0.1323     O
O       0.0597   0.8841   0.8677     O
C       0.0724   0.4354   0.2609     C
C       0.0724   0.9354   0.7391     C
H       0.0786   0.0095   0.5711     H
H       0.0786   0.5095   0.4289     H
C       0.0919    0.486   0.3841     C
C       0.0919    0.986   0.6159     C
Tm     0.11795  0.08566  0.12396    Tm
Tm     0.11795  0.58566  0.87604    Tm
N       0.1312   0.4201   0.2523     N
N       0.1312   0.9201   0.7477     N
O       0.1341   0.1903   0.1177     O
O       0.1341   0.6903   0.8823     O
O       0.1388   0.0055   0.0244     O
O       0.1388   0.5055   0.9756     O
C        0.153   0.4692   0.3788     C
C        0.153   0.9692   0.6212     C
C       0.1606   0.2187   0.0574     C
C       0.1606   0.7187   0.9426     C
Tm     0.16434  0.36795  0.12604    Tm
Tm     0.16434  0.86795  0.87396    Tm
C       0.1654   0.0142   0.9551     C
C       0.1654   0.5142   0.0449     C
O       0.1678   0.2748   0.0527     O
O       0.1678   0.7748   0.9473     O
N       0.1701   0.1188   0.9977     N
N       0.1701   0.6188   0.0023     N
C       0.1707   0.4366   0.3114     C
C       0.1707   0.9366   0.6886     C
O       0.1766   0.4738   0.0964     O
O       0.1766   0.9738   0.9036     O
H       0.1809   0.4799     0.42     H
H       0.1809   0.9799     0.58     H
C       0.1854   0.1776   0.9891     C
C       0.1854   0.6776   0.0109     C
C       0.1866   0.0793   0.9386     C
C       0.1866   0.5793   0.0614     C
C       0.2192    0.097   0.8712     C
C       0.2192   0.1986   0.9239     C
C       0.2192    0.597   0.1288     C
C       0.2192   0.6986   0.0761     C
O       0.2238   0.0734   0.1536     O
O       0.2238   0.5734   0.8464     O
H       0.2299   0.0691     0.83     H
H       0.2299   0.5691     0.17     H
H       0.2303   0.2399   0.9199     H
H       0.2303   0.7399   0.0801     H
C       0.2358   0.4154   0.2949     C
C       0.2358   0.9154   0.7051     C
C        0.236   0.1581   0.8659     C
C        0.236   0.6581   0.1341     C
H       0.2405   0.3286   0.6789     H
H       0.2405   0.8286   0.3211     H
O       0.2445   0.3888   0.2256     O
O       0.2445   0.8888   0.7744     O
O       0.2555   0.1112   0.2744     O
O       0.2555   0.6112   0.7256     O
H       0.2595   0.1714   0.8211     H
H       0.2595   0.6714   0.1789     H
C        0.264   0.3419   0.6341     C
C        0.264   0.8419   0.3659     C
C       0.2642   0.0846   0.2051     C
C       0.2642   0.5846   0.7949     C
H       0.2697   0.2601   0.5801     H
H       0.2697   0.7601   0.4199     H
H       0.2701   0.4309     0.67     H
H       0.2701   0.9309     0.33     H
O       0.2762   0.4266   0.3464     O
O       0.2762   0.9266   0.6536     O
C       0.2808   0.3014   0.5761     C
C       0.2808    0.403   0.6288     C
C       0.2808   0.8014   0.4239     C
C       0.2808    0.903   0.3712     C
C       0.3134   0.4207   0.5614     C
C       0.3134   0.9207   0.4386     C
C       0.3146   0.3224   0.5109     C
C       0.3146   0.8224   0.4891     C
H       0.3191   0.0201     0.08     H
H       0.3191   0.5201     0.92     H
O       0.3234   0.0262   0.4036     O
O       0.3234   0.5262   0.5964     O
C       0.3293   0.0634   0.1886     C
C       0.3293   0.5634   0.8114     C
N       0.3299   0.3812   0.5023     N
N       0.3299   0.8812   0.4977     N
O       0.3322   0.2252   0.4473     O
O       0.3322   0.7252   0.5527     O
C       0.3346   0.4858   0.5449     C
C       0.3346   0.9858   0.4551     C
Tm     0.33566  0.13205  0.37396    Tm
Tm     0.33566  0.63205  0.62604    Tm
C       0.3394   0.2813   0.4426     C
C       0.3394   0.7813   0.5574     C
C        0.347   0.0308   0.1212     C
C        0.347   0.5308   0.8788     C
O       0.3612   0.4945   0.4756     O
O       0.3612   0.9945   0.5244     O
O       0.3659   0.3097   0.3823     O
O       0.3659   0.8097   0.6177     O
N       0.3688   0.0799   0.2477     N
N       0.3688   0.5799   0.7523     N
Tm     0.38205  0.41434  0.37604    Tm
Tm     0.38205  0.91434  0.62396    Tm
C       0.4081    0.014   0.1159     C
C       0.4081    0.514   0.8841     C
H       0.4214   0.4905   0.9289     H
H       0.4214   0.9905   0.0711     H
C       0.4276   0.0646   0.2391     C
C       0.4276   0.5646   0.7609     C
O       0.4403   0.1159   0.3677     O
O       0.4403   0.6159   0.6323     O
C       0.4486   0.0308   0.1739     C
C       0.4486   0.5308   0.8261     C
C       0.4687   0.0894   0.3074     C
C       0.4687   0.5894   0.6926     C
O       0.4752   0.4178   0.3027     O
O       0.4752   0.9178   0.6973     O
H       0.4899   0.0197   0.1699     H
H       0.4899   0.5197   0.8301     H
H       0.5101   0.4803   0.1699     H
H       0.5101   0.9803   0.8301     H
O       0.5248   0.0822   0.3027     O
O       0.5248   0.5822   0.6973     O
C       0.5313   0.4106   0.3074     C
C       0.5313   0.9106   0.6926     C
C       0.5514   0.4692   0.1739     C
C       0.5514   0.9692   0.8261     C
O       0.5597   0.3841   0.3677     O
O       0.5597   0.8841   0.6323     O
C       0.5724   0.4354   0.2391     C
C       0.5724   0.9354   0.7609     C
H       0.5786   0.0095   0.9289     H
H       0.5786   0.5095   0.0711     H
C       0.5919    0.486   0.1159     C
C       0.5919    0.986   0.8841     C
Tm     0.61795  0.08566  0.37604    Tm
Tm     0.61795  0.58566  0.62396    Tm
N       0.6312   0.4201   0.2477     N
N       0.6312   0.9201   0.7523     N
O       0.6341   0.1903   0.3823     O
O       0.6341   0.6903   0.6177     O
O       0.6388   0.0055   0.4756     O
O       0.6388   0.5055   0.5244     O
C        0.653   0.4692   0.1212     C
C        0.653   0.9692   0.8788     C
C       0.6606   0.2187   0.4426     C
C       0.6606   0.7187   0.5574     C
Tm     0.66434  0.36795  0.37396    Tm
Tm     0.66434  0.86795  0.62604    Tm
C       0.6654   0.0142   0.5449     C
C       0.6654   0.5142   0.4551     C
O       0.6678   0.2748   0.4473     O
O       0.6678   0.7748   0.5527     O
N       0.6701   0.1188   0.5023     N
N       0.6701   0.6188   0.4977     N
C       0.6707   0.4366   0.1886     C
C       0.6707   0.9366   0.8114     C
O       0.6766   0.4738   0.4036     O
O       0.6766   0.9738   0.5964     O
H       0.6809   0.4799     0.08     H
H       0.6809   0.9799     0.92     H
C       0.6854   0.1776   0.5109     C
C       0.6854   0.6776   0.4891     C
C       0.6866   0.0793   0.5614     C
C       0.6866   0.5793   0.4386     C
C       0.7192    0.097   0.6288     C
C       0.7192   0.1986   0.5761     C
C       0.7192    0.597   0.3712     C
C       0.7192   0.6986   0.4239     C
O       0.7238   0.0734   0.3464     O
O       0.7238   0.5734   0.6536     O
H       0.7299   0.0691     0.67     H
H       0.7299   0.5691     0.33     H
H       0.7303   0.2399   0.5801     H
H       0.7303   0.7399   0.4199     H
C       0.7358   0.4154   0.2051     C
C       0.7358   0.9154   0.7949     C
C        0.736   0.1581   0.6341     C
C        0.736   0.6581   0.3659     C
H       0.7405   0.3286   0.8211     H
H       0.7405   0.8286   0.1789     H
O       0.7445   0.3888   0.2744     O
O       0.7445   0.8888   0.7256     O
O       0.7555   0.1112   0.2256     O
O       0.7555   0.6112   0.7744     O
H       0.7595   0.1714   0.6789     H
H       0.7595   0.6714   0.3211     H
C        0.764   0.3419   0.8659     C
C        0.764   0.8419   0.1341     C
C       0.7642   0.0846   0.2949     C
C       0.7642   0.5846   0.7051     C
H       0.7697   0.2601   0.9199     H
H       0.7697   0.7601   0.0801     H
H       0.7701   0.4309     0.83     H
H       0.7701   0.9309     0.17     H
O       0.7762   0.4266   0.1536     O
O       0.7762   0.9266   0.8464     O
C       0.7808   0.3014   0.9239     C
C       0.7808    0.403   0.8712     C
C       0.7808   0.8014   0.0761     C
C       0.7808    0.903   0.1288     C
C       0.8134   0.4207   0.9386     C
C       0.8134   0.9207   0.0614     C
C       0.8146   0.3224   0.9891     C
C       0.8146   0.8224   0.0109     C
H       0.8191   0.0201     0.42     H
H       0.8191   0.5201     0.58     H
O       0.8234   0.0262   0.0964     O
O       0.8234   0.5262   0.9036     O
C       0.8293   0.0634   0.3114     C
C       0.8293   0.5634   0.6886     C
N       0.8299   0.3812   0.9977     N
N       0.8299   0.8812   0.0023     N
O       0.8322   0.2252   0.0527     O
O       0.8322   0.7252   0.9473     O
C       0.8346   0.4858   0.9551     C
C       0.8346   0.9858   0.0449     C
Tm     0.83566  0.13205  0.12604    Tm
Tm     0.83566  0.63205  0.87396    Tm
C       0.8394   0.2813   0.0574     C
C       0.8394   0.7813   0.9426     C
C        0.847   0.0308   0.3788     C
C        0.847   0.5308   0.6212     C
O       0.8612   0.4945   0.0244     O
O       0.8612   0.9945   0.9756     O
O       0.8659   0.3097   0.1177     O
O       0.8659   0.8097   0.8823     O
N       0.8688   0.0799   0.2523     N
N       0.8688   0.5799   0.7477     N
Tm     0.88205  0.41434  0.12396    Tm
Tm     0.88205  0.91434  0.87604    Tm
C       0.9081    0.014   0.3841     C
C       0.9081    0.514   0.6159     C
H       0.9214   0.4905   0.5711     H
H       0.9214   0.9905   0.4289     H
C       0.9276   0.0646   0.2609     C
C       0.9276   0.5646   0.7391     C
O       0.9403   0.1159   0.1323     O
O       0.9403   0.6159   0.8677     O
C       0.9486   0.0308   0.3261     C
C       0.9486   0.5308   0.6739     C
C       0.9687   0.0894   0.1926     C
C       0.9687   0.5894   0.8074     C
O       0.9752   0.4178   0.1973     O
O       0.9752   0.9178   0.8027     O
H       0.9899   0.0197   0.3301     H
H       0.9899   0.5197   0.6699     H
