data_I
_chemical_name_common  '/home/zhangsd/repos/MofS-CGCNN/ML/data/TSD/clean_cifs/NAQQON_clean'
_cell_length_a 21.93140
_cell_length_b 21.93140
_cell_length_c 16.70590
_cell_angle_alpha 90.00000
_cell_angle_beta  90.00000
_cell_angle_gamma 90.00000
_space_group_name_H-M_alt      'P 1'


loop_
_space_group_symop_operation_xyz
  'x, y, z' 

loop_
_atom_site_label
_atom_site_fract_x
_atom_site_fract_y
_atom_site_fract_z
_atom_site_type_symbol
H       0.0139   0.4778    0.331     H
H       0.0139   0.9778    0.669     H
O       0.0167   0.0766   0.2003     O
O       0.0167   0.5766   0.7997     O
C        0.039   0.4133   0.1977     C
C        0.039   0.9133   0.8023     C
C       0.0548    0.467   0.3291     C
C       0.0548    0.967   0.6709     C
O       0.0657   0.3864   0.1409     O
O       0.0657   0.8864   0.8591     O
C       0.0783   0.4331   0.2662     C
C       0.0783   0.9331   0.7338     C
H       0.0816   0.0068   0.5667     H
H       0.0816   0.5068   0.4333     H
C       0.0954   0.4843   0.3897     C
C       0.0954   0.9843   0.6103     C
Pr      0.1095  0.07456  0.11564    Pr
Pr      0.1095  0.57456  0.88436    Pr
N       0.1362   0.4179   0.2607     N
N       0.1362   0.9179   0.7393     N
O       0.1364   0.1843   0.1091     O
O       0.1364   0.6843   0.8909     O
O       0.1407   0.4991   0.9892     O
O       0.1407   0.9991   0.0108     O
C       0.1557   0.4679   0.3843     C
C       0.1557   0.9679   0.6157     C
C       0.1633    0.211   0.0523     C
C       0.1633    0.711   0.9477     C
C       0.1675   0.0103   0.9456     C
C       0.1675   0.5103   0.0544     C
N       0.1679   0.1138   0.9893     N
N       0.1679   0.6138   0.0107     N
O       0.1734   0.2667   0.0497     O
O       0.1734   0.7667   0.9503     O
C       0.1745   0.4361   0.3183     C
C       0.1745   0.9361   0.6817     C
Pr     0.17544   0.3595  0.13436    Pr
Pr     0.17544   0.8595  0.86564    Pr
O       0.1809   0.4717    0.106     O
O       0.1809   0.9717    0.894     O
C       0.1831   0.1717   0.9838     C
C       0.1831   0.6717   0.0162     C
H       0.1832   0.4782   0.4245     H
H       0.1832   0.9782   0.5755     H
C       0.1861   0.0755   0.9317     C
C       0.1861   0.5755   0.0683     C
C        0.217   0.1952   0.9209     C
C        0.217   0.6952   0.0791     C
C       0.2179   0.0943   0.8657     C
C       0.2179   0.5943   0.1343     C
O       0.2217   0.0691    0.144     O
O       0.2217   0.5691    0.856     O
H       0.2278   0.2361    0.919     H
H       0.2278   0.7361    0.081     H
H       0.2282   0.0668   0.8255     H
H       0.2282   0.5668   0.1745     H
C       0.2343   0.1546   0.8603     C
C       0.2343   0.6546   0.1397     C
C       0.2397   0.4175   0.3044     C
C       0.2397   0.9175   0.6956     C
H       0.2432   0.3316   0.6833     H
H       0.2432   0.8316   0.3167     H
O       0.2491   0.1093   0.2608     O
O       0.2491   0.6093   0.7392     O
O       0.2509   0.3907   0.2392     O
O       0.2509   0.8907   0.7608     O
H       0.2568   0.1684   0.8167     H
H       0.2568   0.6684   0.1833     H
C       0.2603   0.0825   0.1956     C
C       0.2603   0.5825   0.8044     C
C       0.2657   0.3454   0.6397     C
C       0.2657   0.8454   0.3603     C
H       0.2718   0.4332   0.6745     H
H       0.2718   0.9332   0.3255     H
H       0.2722   0.2639    0.581     H
H       0.2722   0.7639    0.419     H
O       0.2783   0.4309    0.356     O
O       0.2783   0.9309    0.644     O
C       0.2821   0.4057   0.6343     C
C       0.2821   0.9057   0.3657     C
C        0.283   0.3048   0.5791     C
C        0.283   0.8048   0.4209     C
C       0.3139   0.4245   0.5683     C
C       0.3139   0.9245   0.4317     C
H       0.3168   0.0218   0.0755     H
H       0.3168   0.5218   0.9245     H
C       0.3169   0.3283   0.5162     C
C       0.3169   0.8283   0.4838     C
O       0.3191   0.0283    0.394     O
O       0.3191   0.5283    0.606     O
Pr     0.32456   0.1405  0.36564    Pr
Pr     0.32456   0.6405  0.63436    Pr
C       0.3255   0.0639   0.1817     C
C       0.3255   0.5639   0.8183     C
O       0.3266   0.2333   0.4503     O
O       0.3266   0.7333   0.5497     O
N       0.3321   0.3862   0.5107     N
N       0.3321   0.8862   0.4893     N
C       0.3325   0.4897   0.5544     C
C       0.3325   0.9897   0.4456     C
C       0.3367    0.289   0.4477     C
C       0.3367    0.789   0.5523     C
C       0.3443   0.0321   0.1157     C
C       0.3443   0.5321   0.8843     C
O       0.3593   0.0009   0.5108     O
O       0.3593   0.5009   0.4892     O
O       0.3636   0.3157   0.3909     O
O       0.3636   0.8157   0.6091     O
N       0.3638   0.0821   0.2393     N
N       0.3638   0.5821   0.7607     N
Pr      0.3905  0.42544  0.38436    Pr
Pr      0.3905  0.92544  0.61564    Pr
C       0.4046   0.0157   0.1103     C
C       0.4046   0.5157   0.8897     C
H       0.4184   0.4932   0.9333     H
H       0.4184   0.9932   0.0667     H
C       0.4217   0.0669   0.2338     C
C       0.4217   0.5669   0.7662     C
O       0.4343   0.1136   0.3591     O
O       0.4343   0.6136   0.6409     O
C       0.4452    0.033   0.1709     C
C       0.4452    0.533   0.8291     C
C        0.461   0.0867   0.3023     C
C        0.461   0.5867   0.6977     C
O       0.4833   0.4234   0.2997     O
O       0.4833   0.9234   0.7003     O
H       0.4861   0.0222    0.169     H
H       0.4861   0.5222    0.831     H
H       0.5139   0.4778    0.169     H
H       0.5139   0.9778    0.831     H
O       0.5167   0.0766   0.2997     O
O       0.5167   0.5766   0.7003     O
C        0.539   0.4133   0.3023     C
C        0.539   0.9133   0.6977     C
C       0.5548    0.467   0.1709     C
C       0.5548    0.967   0.8291     C
O       0.5657   0.3864   0.3591     O
O       0.5657   0.8864   0.6409     O
C       0.5783   0.4331   0.2338     C
C       0.5783   0.9331   0.7662     C
H       0.5816   0.0068   0.9333     H
H       0.5816   0.5068   0.0667     H
C       0.5954   0.4843   0.1103     C
C       0.5954   0.9843   0.8897     C
Pr      0.6095  0.07456  0.38436    Pr
Pr      0.6095  0.57456  0.61564    Pr
N       0.6362   0.4179   0.2393     N
N       0.6362   0.9179   0.7607     N
O       0.6364   0.1843   0.3909     O
O       0.6364   0.6843   0.6091     O
O       0.6407   0.4991   0.5108     O
O       0.6407   0.9991   0.4892     O
C       0.6557   0.4679   0.1157     C
C       0.6557   0.9679   0.8843     C
C       0.6633    0.211   0.4477     C
C       0.6633    0.711   0.5523     C
C       0.6675   0.0103   0.5544     C
C       0.6675   0.5103   0.4456     C
N       0.6679   0.1138   0.5107     N
N       0.6679   0.6138   0.4893     N
O       0.6734   0.2667   0.4503     O
O       0.6734   0.7667   0.5497     O
C       0.6745   0.4361   0.1817     C
C       0.6745   0.9361   0.8183     C
Pr     0.67544   0.3595  0.36564    Pr
Pr     0.67544   0.8595  0.63436    Pr
O       0.6809   0.4717    0.394     O
O       0.6809   0.9717    0.606     O
C       0.6831   0.1717   0.5162     C
C       0.6831   0.6717   0.4838     C
H       0.6832   0.4782   0.0755     H
H       0.6832   0.9782   0.9245     H
C       0.6861   0.0755   0.5683     C
C       0.6861   0.5755   0.4317     C
C        0.717   0.1952   0.5791     C
C        0.717   0.6952   0.4209     C
C       0.7179   0.0943   0.6343     C
C       0.7179   0.5943   0.3657     C
O       0.7217   0.0691    0.356     O
O       0.7217   0.5691    0.644     O
H       0.7278   0.2361    0.581     H
H       0.7278   0.7361    0.419     H
H       0.7282   0.0668   0.6745     H
H       0.7282   0.5668   0.3255     H
C       0.7343   0.1546   0.6397     C
C       0.7343   0.6546   0.3603     C
C       0.7397   0.4175   0.1956     C
C       0.7397   0.9175   0.8044     C
H       0.7432   0.3316   0.8167     H
H       0.7432   0.8316   0.1833     H
O       0.7491   0.1093   0.2392     O
O       0.7491   0.6093   0.7608     O
O       0.7509   0.3907   0.2608     O
O       0.7509   0.8907   0.7392     O
H       0.7568   0.1684   0.6833     H
H       0.7568   0.6684   0.3167     H
C       0.7603   0.0825   0.3044     C
C       0.7603   0.5825   0.6956     C
C       0.7657   0.3454   0.8603     C
C       0.7657   0.8454   0.1397     C
H       0.7718   0.4332   0.8255     H
H       0.7718   0.9332   0.1745     H
H       0.7722   0.2639    0.919     H
H       0.7722   0.7639    0.081     H
O       0.7783   0.4309    0.144     O
O       0.7783   0.9309    0.856     O
C       0.7821   0.4057   0.8657     C
C       0.7821   0.9057   0.1343     C
C        0.783   0.3048   0.9209     C
C        0.783   0.8048   0.0791     C
C       0.8139   0.4245   0.9317     C
C       0.8139   0.9245   0.0683     C
H       0.8168   0.0218   0.4245     H
H       0.8168   0.5218   0.5755     H
C       0.8169   0.3283   0.9838     C
C       0.8169   0.8283   0.0162     C
O       0.8191   0.0283    0.106     O
O       0.8191   0.5283    0.894     O
Pr     0.82456   0.1405  0.13436    Pr
Pr     0.82456   0.6405  0.86564    Pr
C       0.8255   0.0639   0.3183     C
C       0.8255   0.5639   0.6817     C
O       0.8266   0.2333   0.0497     O
O       0.8266   0.7333   0.9503     O
N       0.8321   0.3862   0.9893     N
N       0.8321   0.8862   0.0107     N
C       0.8325   0.4897   0.9456     C
C       0.8325   0.9897   0.0544     C
C       0.8367    0.289   0.0523     C
C       0.8367    0.789   0.9477     C
C       0.8443   0.0321   0.3843     C
C       0.8443   0.5321   0.6157     C
O       0.8593   0.0009   0.9892     O
O       0.8593   0.5009   0.0108     O
O       0.8636   0.3157   0.1091     O
O       0.8636   0.8157   0.8909     O
N       0.8638   0.0821   0.2607     N
N       0.8638   0.5821   0.7393     N
Pr      0.8905  0.42544  0.11564    Pr
Pr      0.8905  0.92544  0.88436    Pr
C       0.9046   0.0157   0.3897     C
C       0.9046   0.5157   0.6103     C
H       0.9184   0.4932   0.5667     H
H       0.9184   0.9932   0.4333     H
C       0.9217   0.0669   0.2662     C
C       0.9217   0.5669   0.7338     C
O       0.9343   0.1136   0.1409     O
O       0.9343   0.6136   0.8591     O
C       0.9452    0.033   0.3291     C
C       0.9452    0.533   0.6709     C
C        0.961   0.0867   0.1977     C
C        0.961   0.5867   0.8023     C
O       0.9833   0.4234   0.2003     O
O       0.9833   0.9234   0.7997     O
H       0.9861   0.0222    0.331     H
H       0.9861   0.5222    0.669     H
