data_I
_chemical_name_common  '/home/zhangsd/repos/MofS-CGCNN/ML/data/TSD/clean_cifs/NATFAS_clean'
_cell_length_a 14.39290
_cell_length_b 17.85160
_cell_length_c 26.71110
_cell_angle_alpha 90.00000
_cell_angle_beta  90.00000
_cell_angle_gamma 90.00000
_space_group_name_H-M_alt      'P 1'


loop_
_space_group_symop_operation_xyz
  'x, y, z' 

loop_
_atom_site_label
_atom_site_fract_x
_atom_site_fract_y
_atom_site_fract_z
_atom_site_type_symbol
C       0.0013   0.0228   0.9496     C
C       0.0013   0.4772   0.9496     C
C       0.0053   0.1129   0.4939     C
C       0.0053   0.3871   0.4939     C
C       0.0087     0.25   0.5011     C
O       0.0088   0.6155  0.11425     O
O       0.0088   0.8845  0.11425     O
C       0.0095   0.0493   0.8959     C
C       0.0095   0.4507   0.8959     C
O       0.0194  0.60935  0.23022     O
O       0.0194  0.89065  0.23022     O
H       0.0306     0.75   0.5265     H
C       0.0375   0.1823   0.5214     C
C       0.0375   0.3177   0.5214     C
O       0.0426   0.0034  0.86591     O
O       0.0426   0.4966  0.86591     O
H       0.0474     0.75   0.2114     H
O       0.0537  0.56651  0.75874     O
O       0.0537  0.93349  0.75874     O
O       0.0578     0.08   0.4658     O
O       0.0578     0.42   0.4658     O
Zn     0.06416  0.02868  0.79596    Zn
Zn     0.06416  0.47132  0.79596    Zn
C       0.0793   0.0251  0.97869     C
C       0.0793   0.4749  0.97869     C
C       0.0804    0.005  0.02895     C
C       0.0804    0.495  0.02895     C
O       0.0807   0.5987  0.50163     O
O       0.0807   0.9013  0.50163     O
O       0.0827   0.0529  0.57753     O
O       0.0827   0.4471  0.57753     O
C       0.0961   0.1825  0.56182     C
C       0.0961   0.3175  0.56182     C
C       0.1038   0.6099  0.21842     C
C       0.1038   0.8901  0.21842     C
C       0.1102     0.75   0.2197     C
H       0.1141     0.75   0.7972     H
O       0.1178   0.6124  0.61113     O
O       0.1178   0.8876  0.61113     O
C       0.1205     0.75   0.7626     C
C       0.1237   0.6093  0.76623     C
C       0.1237   0.8907  0.76623     C
C       0.1253   0.6817  0.73702     C
C       0.1253   0.8183  0.73702     C
C       0.1255     0.25   0.5821     C
C       0.1302   0.1116   0.5853     C
C       0.1302   0.3884   0.5853     C
C       0.1313    0.682  0.68474     C
C       0.1313    0.818  0.68474     C
C       0.1331     0.75   0.6598     C
Zn     0.13343  0.54218   0.5559    Zn
Zn     0.13343  0.95782   0.5559    Zn
H       0.1346   0.0409   0.9641     H
H       0.1346   0.4591   0.9641     H
H       0.1356     0.75    0.625     H
O       0.1444  0.55225  0.20171     O
O       0.1444  0.94775  0.20171     O
H       0.1462     0.25   0.7618     H
C        0.149   0.6126  0.65492     C
C        0.149   0.8874  0.65492     C
C       0.1566   0.6816  0.22577     C
C       0.1566   0.8184  0.22577     C
O       0.1605   0.0775   0.7152     O
O       0.1605   0.4225   0.7152     O
H       0.1652     0.25   0.6096     H
O       0.1656   0.0041  0.10332     O
O       0.1656   0.4959  0.10332     O
C        0.169    0.012  0.05762     C
C        0.169    0.488  0.05762     C
O       0.1743   0.0979  0.79566     O
O       0.1743   0.4021  0.79566     O
O       0.1866   0.5962  0.79574     O
O       0.1866   0.9038  0.79574     O
C       0.1931   0.1131  0.75098     C
C       0.1931   0.3869  0.75098     C
O       0.1958   0.5632  0.67558     O
O       0.1958   0.9368  0.67558     O
O       0.2008   0.1152  0.61193     O
O       0.2008   0.3848  0.61193     O
C        0.207     0.25   0.7499     C
O       0.2412   0.0247  0.03289     O
O       0.2412   0.4753  0.03289     O
Zn     0.24583  0.03592  0.65801    Zn
Zn     0.24583  0.46408  0.65801    Zn
C       0.2481   0.6822  0.24116     C
C       0.2481   0.8178  0.24116     C
C       0.2519   0.1822  0.74116     C
C       0.2519   0.3178  0.74116     C
Zn     0.25417  0.53592  0.15801    Zn
Zn     0.25417  0.96408  0.15801    Zn
O       0.2588   0.5247  0.53289     O
O       0.2588   0.9753  0.53289     O
C        0.293     0.75   0.2499     C
O       0.2992   0.6152  0.11193     O
O       0.2992   0.8848  0.11193     O
O       0.3042   0.0632  0.17558     O
O       0.3042   0.4368  0.17558     O
C       0.3069   0.6131  0.25098     C
C       0.3069   0.8869  0.25098     C
O       0.3134   0.0962  0.29574     O
O       0.3134   0.4038  0.29574     O
O       0.3257   0.5979  0.29566     O
O       0.3257   0.9021  0.29566     O
C        0.331    0.512  0.55762     C
C        0.331    0.988  0.55762     C
O       0.3344   0.5041  0.60332     O
O       0.3344   0.9959  0.60332     O
H       0.3348     0.75   0.1096     H
O       0.3395   0.5775   0.2152     O
O       0.3395   0.9225   0.2152     O
C       0.3434   0.1816  0.72577     C
C       0.3434   0.3184  0.72577     C
C        0.351   0.1126  0.15492     C
C        0.351   0.3874  0.15492     C
H       0.3538     0.75   0.2618     H
O       0.3556  0.05225  0.70171     O
O       0.3556  0.44775  0.70171     O
H       0.3644     0.25    0.125     H
H       0.3654   0.5409   0.4641     H
H       0.3654   0.9591   0.4641     H
Zn     0.36657  0.04218   0.0559    Zn
Zn     0.36657  0.45782   0.0559    Zn
C       0.3669     0.25   0.1598     C
C       0.3687    0.182  0.18474     C
C       0.3687    0.318  0.18474     C
C       0.3698   0.6116   0.0853     C
C       0.3698   0.8884   0.0853     C
C       0.3745     0.75   0.0821     C
C       0.3747   0.1817  0.23702     C
C       0.3747   0.3183  0.23702     C
C       0.3763   0.1093  0.26623     C
C       0.3763   0.3907  0.26623     C
C       0.3795     0.25   0.2626     C
O       0.3822   0.1124  0.11113     O
O       0.3822   0.3876  0.11113     O
H       0.3859     0.25   0.2972     H
C       0.3898     0.25   0.7197     C
C       0.3962   0.1099  0.71842     C
C       0.3962   0.3901  0.71842     C
C       0.4039   0.6825  0.06182     C
C       0.4039   0.8175  0.06182     C
O       0.4173   0.5529  0.07753     O
O       0.4173   0.9471  0.07753     O
O       0.4193   0.0987  0.00163     O
O       0.4193   0.4013  0.00163     O
C       0.4196    0.505  0.52895     C
C       0.4196    0.995  0.52895     C
C       0.4207   0.5251  0.47869     C
C       0.4207   0.9749  0.47869     C
Zn     0.43584  0.52868  0.29596    Zn
Zn     0.43584  0.97132  0.29596    Zn
O       0.4422     0.58   0.9658     O
O       0.4422     0.92   0.9658     O
O       0.4463  0.06651  0.25874     O
O       0.4463  0.43349  0.25874     O
H       0.4526     0.25   0.7114     H
O       0.4574   0.5034  0.36591     O
O       0.4574   0.9966  0.36591     O
C       0.4625   0.6823   0.0214     C
C       0.4625   0.8177   0.0214     C
H       0.4694     0.25   0.0265     H
O       0.4806  0.10935  0.73022     O
O       0.4806  0.39065  0.73022     O
C       0.4905   0.5493   0.3959     C
C       0.4905   0.9507   0.3959     C
O       0.4912   0.1155  0.61425     O
O       0.4912   0.3845  0.61425     O
C       0.4913     0.75   0.0011     C
C       0.4947   0.6129   0.9939     C
C       0.4947   0.8871   0.9939     C
C       0.4987   0.5228   0.4496     C
C       0.4987   0.9772   0.4496     C
C       0.5013   0.0228   0.5504     C
C       0.5013   0.4772   0.5504     C
C       0.5053   0.1129   0.0061     C
C       0.5053   0.3871   0.0061     C
C       0.5087     0.25   0.9989     C
O       0.5088   0.6155  0.38575     O
O       0.5088   0.8845  0.38575     O
C       0.5095   0.0493   0.6041     C
C       0.5095   0.4507   0.6041     C
O       0.5194  0.60935  0.26978     O
O       0.5194  0.89065  0.26978     O
H       0.5306     0.75   0.9735     H
C       0.5375   0.1823   0.9786     C
C       0.5375   0.3177   0.9786     C
O       0.5426   0.0034  0.63409     O
O       0.5426   0.4966  0.63409     O
H       0.5474     0.75   0.2886     H
O       0.5537  0.56651  0.74126     O
O       0.5537  0.93349  0.74126     O
O       0.5578     0.08   0.0342     O
O       0.5578     0.42   0.0342     O
Zn     0.56416  0.02868  0.70404    Zn
Zn     0.56416  0.47132  0.70404    Zn
C       0.5793   0.0251  0.52131     C
C       0.5793   0.4749  0.52131     C
C       0.5804    0.005  0.47105     C
C       0.5804    0.495  0.47105     C
O       0.5807   0.5987  0.99837     O
O       0.5807   0.9013  0.99837     O
O       0.5827   0.0529  0.92247     O
O       0.5827   0.4471  0.92247     O
C       0.5961   0.1825  0.93818     C
C       0.5961   0.3175  0.93818     C
C       0.6038   0.6099  0.28158     C
C       0.6038   0.8901  0.28158     C
C       0.6102     0.75   0.2803     C
H       0.6141     0.75   0.7028     H
O       0.6178   0.6124  0.88887     O
O       0.6178   0.8876  0.88887     O
C       0.6205     0.75   0.7374     C
C       0.6237   0.6093  0.73377     C
C       0.6237   0.8907  0.73377     C
C       0.6253   0.6817  0.76298     C
C       0.6253   0.8183  0.76298     C
C       0.6255     0.25   0.9179     C
C       0.6302   0.1116   0.9147     C
C       0.6302   0.3884   0.9147     C
C       0.6313    0.682  0.81526     C
C       0.6313    0.818  0.81526     C
C       0.6331     0.75   0.8402     C
Zn     0.63343  0.54218   0.9441    Zn
Zn     0.63343  0.95782   0.9441    Zn
H       0.6346   0.0409   0.5359     H
H       0.6346   0.4591   0.5359     H
H       0.6356     0.75    0.875     H
O       0.6444  0.55225  0.29829     O
O       0.6444  0.94775  0.29829     O
H       0.6462     0.25   0.7382     H
C        0.649   0.6126  0.84508     C
C        0.649   0.8874  0.84508     C
C       0.6566   0.6816  0.27423     C
C       0.6566   0.8184  0.27423     C
O       0.6605   0.0775   0.7848     O
O       0.6605   0.4225   0.7848     O
H       0.6652     0.25   0.8904     H
O       0.6656   0.0041  0.39668     O
O       0.6656   0.4959  0.39668     O
C        0.669    0.012  0.44238     C
C        0.669    0.488  0.44238     C
O       0.6743   0.0979  0.70434     O
O       0.6743   0.4021  0.70434     O
O       0.6866   0.5962  0.70426     O
O       0.6866   0.9038  0.70426     O
C       0.6931   0.1131  0.74902     C
C       0.6931   0.3869  0.74902     C
O       0.6958   0.5632  0.82442     O
O       0.6958   0.9368  0.82442     O
O       0.7008   0.1152  0.88807     O
O       0.7008   0.3848  0.88807     O
C        0.707     0.25   0.7501     C
O       0.7412   0.0247  0.46711     O
O       0.7412   0.4753  0.46711     O
Zn     0.74583  0.03592  0.84199    Zn
Zn     0.74583  0.46408  0.84199    Zn
C       0.7481   0.6822  0.25884     C
C       0.7481   0.8178  0.25884     C
C       0.7519   0.1822  0.75884     C
C       0.7519   0.3178  0.75884     C
Zn     0.75417  0.53592  0.34199    Zn
Zn     0.75417  0.96408  0.34199    Zn
O       0.7588   0.5247  0.96711     O
O       0.7588   0.9753  0.96711     O
C        0.793     0.75   0.2501     C
O       0.7992   0.6152  0.38807     O
O       0.7992   0.8848  0.38807     O
O       0.8042   0.0632  0.32442     O
O       0.8042   0.4368  0.32442     O
C       0.8069   0.6131  0.24902     C
C       0.8069   0.8869  0.24902     C
O       0.8134   0.0962  0.20426     O
O       0.8134   0.4038  0.20426     O
O       0.8257   0.5979  0.20434     O
O       0.8257   0.9021  0.20434     O
C        0.831    0.512  0.94238     C
C        0.831    0.988  0.94238     C
O       0.8344   0.5041  0.89668     O
O       0.8344   0.9959  0.89668     O
H       0.8348     0.75   0.3904     H
O       0.8395   0.5775   0.2848     O
O       0.8395   0.9225   0.2848     O
C       0.8434   0.1816  0.77423     C
C       0.8434   0.3184  0.77423     C
C        0.851   0.1126  0.34508     C
C        0.851   0.3874  0.34508     C
H       0.8538     0.75   0.2382     H
O       0.8556  0.05225  0.79829     O
O       0.8556  0.44775  0.79829     O
H       0.8644     0.25    0.375     H
H       0.8654   0.5409   0.0359     H
H       0.8654   0.9591   0.0359     H
Zn     0.86657  0.04218   0.4441    Zn
Zn     0.86657  0.45782   0.4441    Zn
C       0.8669     0.25   0.3402     C
C       0.8687    0.182  0.31526     C
C       0.8687    0.318  0.31526     C
C       0.8698   0.6116   0.4147     C
C       0.8698   0.8884   0.4147     C
C       0.8745     0.75   0.4179     C
C       0.8747   0.1817  0.26298     C
C       0.8747   0.3183  0.26298     C
C       0.8763   0.1093  0.23377     C
C       0.8763   0.3907  0.23377     C
C       0.8795     0.25   0.2374     C
O       0.8822   0.1124  0.38887     O
O       0.8822   0.3876  0.38887     O
H       0.8859     0.25   0.2028     H
C       0.8898     0.25   0.7803     C
C       0.8962   0.1099  0.78158     C
C       0.8962   0.3901  0.78158     C
C       0.9039   0.6825  0.43818     C
C       0.9039   0.8175  0.43818     C
O       0.9173   0.5529  0.42247     O
O       0.9173   0.9471  0.42247     O
O       0.9193   0.0987  0.49837     O
O       0.9193   0.4013  0.49837     O
C       0.9196    0.505  0.97105     C
C       0.9196    0.995  0.97105     C
C       0.9207   0.5251  0.02131     C
C       0.9207   0.9749  0.02131     C
Zn     0.93584  0.52868  0.20404    Zn
Zn     0.93584  0.97132  0.20404    Zn
O       0.9422     0.58   0.5342     O
O       0.9422     0.92   0.5342     O
O       0.9463  0.06651  0.24126     O
O       0.9463  0.43349  0.24126     O
H       0.9526     0.25   0.7886     H
O       0.9574   0.5034  0.13409     O
O       0.9574   0.9966  0.13409     O
C       0.9625   0.6823   0.4786     C
C       0.9625   0.8177   0.4786     C
H       0.9694     0.25   0.4735     H
O       0.9806  0.10935  0.76978     O
O       0.9806  0.39065  0.76978     O
C       0.9905   0.5493   0.1041     C
C       0.9905   0.9507   0.1041     C
O       0.9912   0.1155  0.88575     O
O       0.9912   0.3845  0.88575     O
C       0.9913     0.75   0.4989     C
C       0.9947   0.6129   0.5061     C
C       0.9947   0.8871   0.5061     C
C       0.9987   0.5228   0.0504     C
C       0.9987   0.9772   0.0504     C
