data_I
_chemical_name_common  '/home/zhangsd/repos/MofS-CGCNN/ML/data/TSD/clean_cifs/NATHOH_ion_b'
_cell_length_a 17.04970
_cell_length_b 17.04970
_cell_length_c 24.90800
_cell_angle_alpha 120.07140
_cell_angle_beta  120.07140
_cell_angle_gamma 50.59760
_space_group_name_H-M_alt      'P 1'


loop_
_space_group_symop_operation_xyz
  'x, y, z' 

loop_
_atom_site_label
_atom_site_fract_x
_atom_site_fract_y
_atom_site_fract_z
_atom_site_type_symbol
Mn         0.0      0.5      0.5    Mn
H       0.0051   0.7575   0.1962     H
O       0.0151   0.4069   0.2885     O
O      0.01662  0.60042     0.48     O
Mo     0.01923  0.25101  0.48212    Mo
O      0.02012  0.39972   0.4023     O
P      0.02309  0.06929  0.34231     P
O       0.0373   0.1093   0.4155     O
O       0.0496   0.9126   0.1758     O
Mo     0.05379  0.25277  0.35531    Mo
O       0.0593   0.7147   0.7234     O
O       0.0619   0.1123   0.3247     O
Mo     0.06705  0.57973  0.68489    Mo
P      0.06929  0.02309  0.84231     P
C        0.076   0.7054   0.2049     C
O       0.0764   0.5956   0.3898     O
O      0.07652  0.69492   0.6097     O
H       0.0771   0.5675   0.1792     H
O       0.0874   0.9504   0.3242     O
H        0.093    0.792   0.3743     H
O       0.0934   0.8952   0.6945     O
O       0.1048   0.9066   0.8055     O
O       0.1093   0.0373   0.9155     O
O       0.1094   0.1998   0.5447     O
O      0.11149  0.72169   0.5213     O
O       0.1123   0.0619   0.8247     O
C       0.1156   0.5998   0.1956     C
O       0.1247   0.2271   0.4471     O
Mo     0.13044  0.58378  0.46514    Mo
O      0.13514  0.41654   0.6387     O
H       0.1427   0.7973   0.0977     H
Zn     0.14334  0.85666     0.25    Zn
N       0.1598   0.7186   0.2291     N
N       0.1603   0.7525   0.3803     N
O       0.1647   0.2001   0.3386     O
O      0.16822  0.39062   0.5292     O
H       0.1879   0.5995   0.3518     H
P      0.19223  0.60321  0.62555     P
O      0.19249  0.42129   0.4401     O
O      0.19274  0.53154   0.6468     O
O       0.1973   0.5325    0.761     O
O       0.1998   0.1094   0.0447     O
O       0.2001   0.1647   0.8386     O
H       0.2027   0.8573   0.4023     H
H        0.208    0.907   0.1257     H
C       0.2095   0.7781   0.1014     C
Na     0.21023  0.72543  0.79401    Na
C       0.2146   0.6442    0.372     C
C       0.2219   0.7905   0.3986     C
O      0.22413  0.53593   0.5614     O
N       0.2242   0.5534    0.216     N
O        0.226   0.3094   0.0925     O
O       0.2271   0.1247   0.9471     O
O       0.2286    0.341   0.9751     O
H       0.2425   0.9949   0.3038     H
C       0.2431   0.6307    0.238     C
N       0.2475   0.8397   0.1197     N
Mo     0.25101  0.01923  0.98212    Mo
Mo     0.25277  0.05379  0.85531    Mo
O       0.2636    0.645   0.6784     O
Mo     0.26769  0.35405  0.61144    Mo
H       0.2702    0.488   0.2148     H
Na     0.27457  0.78977  0.70599    Na
O      0.27831  0.88851   0.9787     O
O      0.27859  0.53979   0.4757     O
N       0.2814   0.8402   0.2709     N
O       0.2853   0.9407   0.7766     O
C       0.2946    0.924   0.2951     C
Mo     0.29486  0.35602  0.51822    Mo
C       0.2987   0.6763   0.0894     C
H       0.3013   0.6135   0.0769     H
O      0.30508  0.92348   0.8903     O
O       0.3094    0.226   0.5925     O
H       0.3104   0.6214    0.258     H
N        0.317   0.6206   0.4013     N
P      0.31755  0.46913  0.76889     P
C       0.3237   0.7013   0.4106     C
O        0.341   0.2286   0.4751     O
O       0.3417   0.3719   0.7082     O
O       0.3507   0.5397   0.7771     O
O       0.3525   0.3787   0.1065     O
Mo     0.35405  0.26769  0.11144    Mo
O        0.355   0.7364   0.8216     O
C       0.3558   0.7854    0.128     C
Mo     0.35602  0.29486  0.01822    Mo
C       0.3693   0.7569    0.262     C
O       0.3719   0.3417   0.2082     O
O      0.37342  0.39902    0.013     O
O       0.3743   0.4243   0.8258     O
H       0.3786   0.6896    0.242     H
O       0.3787   0.3525   0.6065     O
N       0.3794    0.683   0.0987     N
H       0.3865   0.6987   0.4231     H
O      0.39062  0.16822   0.0292     O
P      0.39241  0.46291  0.50625     P
P      0.39679  0.80777  0.87445     P
O      0.39902  0.37342    0.513     O
O      0.39958  0.98338     0.02     O
O      0.39972  0.02012   0.9023     O
C       0.4002   0.8844   0.3044     C
H       0.4005   0.8121   0.1482     H
O       0.4044   0.9236   0.1102     O
O       0.4069   0.0151   0.7885     O
O       0.4136   0.4616   0.9636     O
Mo     0.41622  0.86956  0.03486    Mo
O      0.41654  0.13514   0.1387     O
Mn     0.41752  0.58248     0.75    Mn
Mo     0.42027  0.93295  0.81511    Mo
O      0.42129  0.19249   0.9401     O
O       0.4243   0.3743   0.3258     O
H       0.4325   0.9229   0.3208     H
O      0.43483  0.52243   0.5736     O
Zn     0.43896  0.47748  0.40729    Zn
N       0.4466   0.7758    0.284     N
O       0.4468     0.49   0.1745     O
O      0.46021  0.72141   0.0243     O
O       0.4603   0.6493   0.7229     O
O       0.4616   0.4136   0.4636     O
P      0.46291  0.39241  0.00625     P
O      0.46407  0.77587   0.9386     O
O       0.4675   0.8027    0.739     O
O      0.46846  0.80726   0.8532     O
P      0.46913  0.31755  0.26889     P
Zn     0.47748  0.43896  0.90729    Zn
O      0.47757  0.56517   0.9264     O
H        0.488   0.2702   0.7148     H
O         0.49   0.4468   0.6745     O
Mn         0.5     -0.0      0.0    Mn
O         0.51   0.5532   0.3255     O
H        0.512   0.7298   0.2852     H
O      0.52243  0.43483   0.0736     O
Zn     0.52252  0.56104  0.09271    Zn
P      0.53087  0.68245  0.73111     P
O      0.53154  0.19274   0.1468     O
O       0.5325   0.1973    0.261     O
O      0.53593  0.22413   0.0614     O
P      0.53709  0.60759  0.99375     P
O       0.5384   0.5864   0.5364     O
O       0.5397   0.3507   0.2771     O
O      0.53979  0.27859   0.9757     O
O       0.5532     0.51   0.8255     O
N       0.5534   0.2242    0.716     N
Zn     0.56104  0.52252  0.59271    Zn
O      0.56517  0.47757   0.4264     O
H       0.5675   0.0771   0.6792     H
O       0.5757   0.6257   0.6742     O
O      0.57871  0.80751   0.0599     O
Mo     0.57973  0.06705  0.18489    Mo
Mn     0.58248  0.41752     0.25    Mn
O      0.58346  0.86486   0.8613     O
Mo     0.58378  0.13044  0.96514    Mo
O       0.5864   0.5384   0.0364     O
O       0.5931   0.9849   0.2115     O
O       0.5956   0.0764   0.8898     O
H       0.5995   0.1879   0.8518     H
C       0.5998   0.1156   0.6956     C
O      0.60028  0.97988   0.0977     O
O      0.60042  0.01662     0.98     O
O      0.60098  0.62658    0.487     O
P      0.60321  0.19223  0.12555     P
P      0.60759  0.53709  0.49375     P
O      0.60938  0.83178   0.9708     O
H       0.6135   0.3013   0.5769     H
N       0.6206    0.317   0.9013     N
O       0.6213   0.6475   0.3935     O
H       0.6214   0.3104    0.758     H
O       0.6257   0.5757   0.1742     O
O      0.62658  0.60098    0.987     O
O       0.6281   0.6583   0.7918     O
C       0.6307   0.2431    0.738     C
Mo     0.64398  0.70514  0.98178    Mo
C       0.6442   0.2146    0.872     C
O        0.645   0.2636   0.1784     O
Mo     0.64595  0.73231  0.88856    Mo
O       0.6475   0.6213   0.8935     O
O       0.6493   0.4603   0.2229     O
O       0.6583   0.6281   0.2918     O
O        0.659   0.7714   0.5249     O
C       0.6763   0.2987   0.5894     C
P      0.68245  0.53087  0.23111     P
N        0.683   0.3794   0.5987     N
H       0.6896   0.3786    0.742     H
O       0.6906    0.774   0.4075     O
O      0.69492  0.07652   0.1097     O
H       0.6987   0.3865   0.9231     H
C       0.7013   0.3237   0.9106     C
Mo     0.70514  0.64398  0.48178    Mo
C       0.7054    0.076   0.7049     C
O       0.7147   0.0593   0.2234     O
N       0.7186   0.1598   0.7291     N
O      0.72141  0.46021   0.5243     O
O      0.72169  0.11149   0.0213     O
Na     0.72543  0.21023  0.29401    Na
H       0.7298    0.512   0.7852     H
Mo     0.73231  0.64595  0.38856    Mo
O       0.7364    0.355   0.3216     O
Mo     0.74723  0.94621  0.14469    Mo
Mo     0.74899  0.98077  0.01788    Mo
N       0.7525   0.1603   0.8803     N
C       0.7569   0.3693    0.762     C
H       0.7575   0.0051   0.6962     H
O       0.7714    0.659   0.0249     O
O       0.7729   0.8753   0.0529     O
O        0.774   0.6906   0.9075     O
N       0.7758   0.4466    0.784     N
O      0.77587  0.46407   0.4386     O
C       0.7781   0.2095   0.6014     C
C       0.7854   0.3558    0.628     C
Na     0.78977  0.27457  0.20599    Na
C       0.7905   0.2219   0.8986     C
H        0.792    0.093   0.8743     H
H       0.7973   0.1427   0.5977     H
O       0.7999   0.8353   0.1614     O
O       0.8002   0.8906   0.9553     O
O       0.8027   0.4675    0.239     O
O      0.80726  0.46846   0.3532     O
O      0.80751  0.57871   0.5599     O
P      0.80777  0.39679  0.37445     P
H       0.8121   0.4005   0.6482     H
O      0.83178  0.60938   0.4708     O
O       0.8353   0.7999   0.6614     O
N       0.8397   0.2475   0.6197     N
N       0.8402   0.2814   0.7709     N
Zn     0.85666  0.14334     0.75    Zn
H       0.8573   0.2027   0.9023     H
O      0.86486  0.58346   0.3613     O
Mo     0.86956  0.41622  0.53486    Mo
O       0.8753   0.7729   0.5529     O
C       0.8844   0.4002   0.8044     C
O       0.8877   0.9381   0.1753     O
O      0.88851  0.27831   0.4787     O
O       0.8906   0.8002   0.4553     O
O       0.8907   0.9627   0.0845     O
O       0.8952   0.0934   0.1945     O
O       0.9066   0.1048   0.3055     O
H        0.907    0.208   0.6257     H
O       0.9126   0.0496   0.6758     O
H       0.9229   0.4325   0.8208     H
O      0.92348  0.30508   0.3903     O
O       0.9236   0.4044   0.6102     O
C        0.924   0.2946   0.7951     C
P      0.93071  0.97691  0.15769     P
Mo     0.93295  0.42027  0.31511    Mo
O       0.9381   0.8877   0.6753     O
O       0.9407   0.2853   0.2766     O
Mo     0.94621  0.74723  0.64469    Mo
O       0.9504   0.0874   0.8242     O
O       0.9627   0.8907   0.5845     O
P      0.97691  0.93071  0.65769     P
O      0.97988  0.60028   0.5977     O
Mo     0.98077  0.74899  0.51788    Mo
O      0.98338  0.39958     0.52     O
O       0.9849   0.5931   0.7115     O
H       0.9949   0.2425   0.8038     H
