data_I
_chemical_name_common  '/home/zhangsd/repos/MofS-CGCNN/ML/data/TSD/clean_cifs/NAVFUM_clean'
_cell_length_a  7.72860
_cell_length_b  7.58740
_cell_length_c 17.98160
_cell_angle_alpha 90.00000
_cell_angle_beta  98.21400
_cell_angle_gamma 90.00000
_space_group_name_H-M_alt      'P 1'


loop_
_space_group_symop_operation_xyz
  'x, y, z' 

loop_
_atom_site_label
_atom_site_fract_x
_atom_site_fract_y
_atom_site_fract_z
_atom_site_type_symbol
C       0.0369   0.0247   0.6963     C
C       0.0369   0.4753   0.1963     C
O       0.0524   0.2471  0.85914     O
O       0.0524   0.2529  0.35914     O
C       0.0668   0.6412   0.1495     C
C       0.0668   0.8588   0.6495     C
O       0.1023   0.5283  0.77575     O
O       0.1023   0.9717  0.27575     O
O       0.1549   0.1408  0.70149     O
O       0.1549   0.3592  0.20149     O
O       0.2077   0.6538  0.12343     O
O       0.2077   0.8462  0.62343     O
Fe     0.27555  0.18472   0.3075    Fe
Fe     0.27555  0.31528   0.8075    Fe
O       0.2989   0.0909  0.51394     O
O       0.2989   0.4091  0.01394     O
H        0.342   0.6403   0.2989     H
H        0.342   0.8597   0.7989     H
Fe     0.37541  0.06133  0.63687    Fe
Fe     0.37541  0.43867  0.13687    Fe
O       0.4027   0.0989  0.84487     O
O       0.4027   0.4011  0.34487     O
O       0.4066   0.0386  0.40707     O
O       0.4066   0.4614  0.90707     O
C       0.4136   0.0382   0.4782     C
C       0.4136   0.4618   0.9782     C
O       0.4231   0.1797  0.13555     O
O       0.4231   0.3203  0.63555     O
P      0.44984  0.57134   0.3099     P
P      0.44984  0.92866   0.8099     P
O        0.479   0.0455  0.26443     O
O        0.479   0.4545  0.76443     O
O        0.521   0.5455  0.23557     O
O        0.521   0.9545  0.73557     O
P      0.55016  0.07134   0.1901     P
P      0.55016  0.42866   0.6901     P
O       0.5769   0.6797  0.36445     O
O       0.5769   0.8203  0.86445     O
C       0.5864   0.5382   0.0218     C
C       0.5864   0.9618   0.5218     C
O       0.5934   0.5386  0.09293     O
O       0.5934   0.9614  0.59293     O
O       0.5973   0.5989  0.65513     O
O       0.5973   0.9011  0.15513     O
Fe     0.62459  0.56133  0.86313    Fe
Fe     0.62459  0.93867  0.36313    Fe
H        0.658   0.1403   0.2011     H
H        0.658   0.3597   0.7011     H
O       0.7011   0.5909  0.98606     O
O       0.7011   0.9091  0.48606     O
Fe     0.72445  0.68472   0.1925    Fe
Fe     0.72445  0.81528   0.6925    Fe
O       0.7923   0.1538  0.37657     O
O       0.7923   0.3462  0.87657     O
O       0.8451   0.6408  0.79851     O
O       0.8451   0.8592  0.29851     O
O       0.8977   0.0283  0.72425     O
O       0.8977   0.4717  0.22425     O
C       0.9332   0.1412   0.3505     C
C       0.9332   0.3588   0.8505     C
O       0.9476   0.7471  0.64086     O
O       0.9476   0.7529  0.14086     O
C       0.9631   0.5247   0.8037     C
C       0.9631   0.9753   0.3037     C
