data_I
_chemical_name_common  '/home/zhangsd/repos/MofS-CGCNN/ML/data/TSD/clean_cifs/NENFAN_clean'
_cell_length_a 22.09300
_cell_length_b 13.90400
_cell_length_c 14.23000
_cell_angle_alpha 90.00000
_cell_angle_beta  98.43100
_cell_angle_gamma 90.00000
_space_group_name_H-M_alt      'P 1'


loop_
_space_group_symop_operation_xyz
  'x, y, z' 

loop_
_atom_site_label
_atom_site_fract_x
_atom_site_fract_y
_atom_site_fract_z
_atom_site_type_symbol
O      0.00646   0.1582   0.9876     O
O      0.00646   0.8418   0.4876     O
O      0.05762    0.024   0.4636     O
O      0.05762    0.976   0.9636     O
P       0.0578  0.11956  0.51652     P
P       0.0578  0.88044  0.01652     P
Ga     0.08351  0.09588  0.00783    Ga
Ga     0.08351  0.90412  0.50783    Ga
O      0.08581   0.1084   0.6212     O
O      0.08581   0.8916   0.1212     O
O      0.09557   0.1945   0.4714     O
O      0.09557   0.8055   0.9714     O
O      0.09671   0.1211   0.1369     O
O      0.09671   0.8789   0.6369     O
O      0.11419   0.1851   0.9315     O
O      0.11419   0.8149   0.4315     O
O      0.14577   0.1841   0.2886     O
O      0.14577   0.8159   0.7886     O
P      0.15629  0.11853   0.2064     P
P      0.15629  0.88147   0.7064     P
Ga     0.16013  0.10223  0.69399    Ga
Ga     0.16013  0.89777  0.19399    Ga
O        0.162   0.1944   0.7839     O
O        0.162   0.8056   0.2839     O
Ga     0.16258  0.20145  0.41396    Ga
Ga     0.16258  0.79855  0.91396    Ga
F      0.16782  0.03482  0.03045     F
F      0.16782  0.96518  0.53045     F
P      0.17161  0.21385  0.89051     P
P      0.17161  0.78615  0.39051     P
O      0.17162   0.0168   0.2456     O
O      0.17162   0.9832   0.7456     O
O      0.17825   0.3298   0.4275     O
O      0.17825   0.6702   0.9275     O
O      0.17976   0.3228    0.905     O
O      0.17976   0.6772    0.405     O
O      0.21046   0.1583   0.1622     O
O      0.21046   0.8417   0.6622     O
O       0.2143   0.4942    0.431     O
O       0.2143   0.5058    0.931     O
O      0.22416   0.1384   0.6344     O
O      0.22416   0.8616   0.1344     O
O       0.2285   0.1281   0.4595     O
O       0.2285   0.8719   0.9595     O
O       0.2287   0.1609   0.9383     O
O       0.2287   0.8391   0.4383     O
P      0.23656  0.39052  0.44075     P
P      0.23656  0.60948  0.94075     P
Ga     0.24448   0.1106  0.06007    Ga
Ga     0.24448   0.8894  0.56007    Ga
Ga     0.25552   0.3894  0.93993    Ga
Ga     0.25552   0.6106  0.43993    Ga
P      0.26344  0.10948  0.55925     P
P      0.26344  0.89052  0.05925     P
O       0.2713   0.3391   0.0617     O
O       0.2713   0.6609   0.5617     O
O       0.2715   0.3719   0.5405     O
O       0.2715   0.6281   0.0405     O
O      0.27584   0.3616   0.3656     O
O      0.27584   0.6384   0.8656     O
O       0.2857   0.0058    0.569     O
O       0.2857   0.9942    0.069     O
O      0.28954   0.3417   0.8378     O
O      0.28954   0.6583   0.3378     O
O      0.32024   0.1772    0.095     O
O      0.32024   0.8228    0.595     O
O      0.32175   0.1702   0.5725     O
O      0.32175   0.8298   0.0725     O
O      0.32838   0.4832   0.7544     O
O      0.32838   0.5168   0.2544     O
P      0.32839  0.28615  0.10949     P
P      0.32839  0.71385  0.60949     P
F      0.33218  0.46518  0.96955     F
F      0.33218  0.53482  0.46955     F
Ga     0.33742  0.29855  0.58604    Ga
Ga     0.33742  0.70145  0.08604    Ga
O        0.338   0.3056   0.2161     O
O        0.338   0.6944   0.7161     O
Ga     0.33987  0.39777  0.30601    Ga
Ga     0.33987  0.60223  0.80601    Ga
P      0.34371  0.38147   0.7936     P
P      0.34371  0.61853   0.2936     P
O      0.35423   0.3159   0.7114     O
O      0.35423   0.6841   0.2114     O
O      0.38581   0.3149   0.0685     O
O      0.38581   0.6851   0.5685     O
O      0.40329   0.3789   0.8631     O
O      0.40329   0.6211   0.3631     O
O      0.40443   0.3055   0.5286     O
O      0.40443   0.6945   0.0286     O
O      0.41419   0.3916   0.3788     O
O      0.41419   0.6084   0.8788     O
Ga     0.41649  0.40412  0.99217    Ga
Ga     0.41649  0.59588  0.49217    Ga
P       0.4422  0.38044  0.48348     P
P       0.4422  0.61956  0.98348     P
O      0.44238    0.476   0.5364     O
O      0.44238    0.524   0.0364     O
O      0.49354   0.3418   0.0124     O
O      0.49354   0.6582   0.5124     O
O      0.50646   0.3418   0.4876     O
O      0.50646   0.6582   0.9876     O
O      0.55762    0.476   0.9636     O
O      0.55762    0.524   0.4636     O
P       0.5578  0.38044  0.01652     P
P       0.5578  0.61956  0.51652     P
Ga     0.58351  0.40412  0.50783    Ga
Ga     0.58351  0.59588  0.00783    Ga
O      0.58581   0.3916   0.1212     O
O      0.58581   0.6084   0.6212     O
O      0.59557   0.3055   0.9714     O
O      0.59557   0.6945   0.4714     O
O      0.59671   0.3789   0.6369     O
O      0.59671   0.6211   0.1369     O
O      0.61419   0.3149   0.4315     O
O      0.61419   0.6851   0.9315     O
O      0.64577   0.3159   0.7886     O
O      0.64577   0.6841   0.2886     O
P      0.65629  0.38147   0.7064     P
P      0.65629  0.61853   0.2064     P
Ga     0.66013  0.39777  0.19399    Ga
Ga     0.66013  0.60223  0.69399    Ga
O        0.662   0.3056   0.2839     O
O        0.662   0.6944   0.7839     O
Ga     0.66258  0.29855  0.91396    Ga
Ga     0.66258  0.70145  0.41396    Ga
F      0.66782  0.46518  0.53045     F
F      0.66782  0.53482  0.03045     F
P      0.67161  0.28615  0.39051     P
P      0.67161  0.71385  0.89051     P
O      0.67162   0.4832   0.7456     O
O      0.67162   0.5168   0.2456     O
O      0.67825   0.1702   0.9275     O
O      0.67825   0.8298   0.4275     O
O      0.67976   0.1772    0.405     O
O      0.67976   0.8228    0.905     O
O      0.71046   0.3417   0.6622     O
O      0.71046   0.6583   0.1622     O
O       0.7143   0.0058    0.931     O
O       0.7143   0.9942    0.431     O
O      0.72416   0.3616   0.1344     O
O      0.72416   0.6384   0.6344     O
O       0.7285   0.3719   0.9595     O
O       0.7285   0.6281   0.4595     O
O       0.7287   0.3391   0.4383     O
O       0.7287   0.6609   0.9383     O
P      0.73656  0.10948  0.94075     P
P      0.73656  0.89052  0.44075     P
Ga     0.74448   0.3894  0.56007    Ga
Ga     0.74448   0.6106  0.06007    Ga
Ga     0.75552   0.1106  0.43993    Ga
Ga     0.75552   0.8894  0.93993    Ga
P      0.76344  0.39052  0.05925     P
P      0.76344  0.60948  0.55925     P
O       0.7713   0.1609   0.5617     O
O       0.7713   0.8391   0.0617     O
O       0.7715   0.1281   0.0405     O
O       0.7715   0.8719   0.5405     O
O      0.77584   0.1384   0.8656     O
O      0.77584   0.8616   0.3656     O
O       0.7857   0.4942    0.069     O
O       0.7857   0.5058    0.569     O
O      0.78954   0.1583   0.3378     O
O      0.78954   0.8417   0.8378     O
O      0.82024   0.3228    0.595     O
O      0.82024   0.6772    0.095     O
O      0.82175   0.3298   0.0725     O
O      0.82175   0.6702   0.5725     O
O      0.82838   0.0168   0.2544     O
O      0.82838   0.9832   0.7544     O
P      0.82839  0.21385  0.60949     P
P      0.82839  0.78615  0.10949     P
F      0.83218  0.03482  0.46955     F
F      0.83218  0.96518  0.96955     F
Ga     0.83742  0.20145  0.08604    Ga
Ga     0.83742  0.79855  0.58604    Ga
O        0.838   0.1944   0.7161     O
O        0.838   0.8056   0.2161     O
Ga     0.83987  0.10223  0.80601    Ga
Ga     0.83987  0.89777  0.30601    Ga
P      0.84371  0.11853   0.2936     P
P      0.84371  0.88147   0.7936     P
O      0.85423   0.1841   0.2114     O
O      0.85423   0.8159   0.7114     O
O      0.88581   0.1851   0.5685     O
O      0.88581   0.8149   0.0685     O
O      0.90329   0.1211   0.3631     O
O      0.90329   0.8789   0.8631     O
O      0.90443   0.1945   0.0286     O
O      0.90443   0.8055   0.5286     O
O      0.91419   0.1084   0.8788     O
O      0.91419   0.8916   0.3788     O
Ga     0.91649  0.09588  0.49217    Ga
Ga     0.91649  0.90412  0.99217    Ga
P       0.9422  0.11956  0.98348     P
P       0.9422  0.88044  0.48348     P
O      0.94238    0.024   0.0364     O
O      0.94238    0.976   0.5364     O
O      0.99354   0.1582   0.5124     O
O      0.99354   0.8418   0.0124     O
