data_I
_chemical_name_common  '/home/zhangsd/repos/MofS-CGCNN/ML/data/TSD/clean_cifs/NEXXEV_clean'
_cell_length_a 12.91500
_cell_length_b 21.26420
_cell_length_c 21.26420
_cell_angle_alpha 84.67580
_cell_angle_beta  72.32130
_cell_angle_gamma 72.32130
_space_group_name_H-M_alt      'P 1'


loop_
_space_group_symop_operation_xyz
  'x, y, z' 

loop_
_atom_site_label
_atom_site_fract_x
_atom_site_fract_y
_atom_site_fract_z
_atom_site_type_symbol
C      0.01127  0.13753  0.65373     C
O      0.01203   0.5453  0.90104     O
C      0.01624  0.08517  0.60995     C
O      0.02155  0.50151  0.04015     O
C      0.02649  0.66231  0.19711     C
H       0.0327   0.7441   0.3471     H
H       0.0413   0.2368   0.3188     H
C       0.0414   0.2641   0.1861     C
Li      0.0502   0.3059   0.9905    Li
N      0.05468  0.70552  0.23132     N
H       0.0616   0.8906    0.651     H
O      0.06321  0.95985  0.49849     O
C      0.06508  0.91188  0.46756     C
C      0.07446  0.22914  0.66934     C
C      0.08219  0.17841  0.63101     C
C       0.0829   0.5833   0.1091     C
Li     0.08797  0.04443  0.47783    Li
C       0.0957   0.3063   0.7691     C
H       0.0969   0.6812   0.7632     H
O      0.10172  0.06933  0.56023     O
H       0.1032    0.349   0.1094     H
N       0.1052  0.80293  0.74027     N
H       0.1073   0.1528   0.3898     H
C      0.10863  0.62477  0.14477     C
Li     0.11023  0.52217  0.95557    Li
C       0.1162  0.20775  0.30505     C
H       0.1191   0.8038   0.3962     H
O      0.11956  0.37579  0.94029     O
H       0.1239   0.2559   0.6529     H
C        0.129  0.69495  0.79225     C
H       0.1362   0.1709   0.5887     H
H       0.1393     0.56    0.072     H
C       0.1399  0.87736  0.64844     C
C       0.1438   0.7562   0.7868     C
N       0.1484  0.25973  0.19707     N
H       0.1499   0.6102   0.8472     H
C       0.1567  0.15791  0.34749     C
C       0.1621  0.65251  0.84209     C
C       0.1657  0.35156  0.12264     C
C       0.1711   0.6937   0.2309     C
C      0.17675  0.87206  0.42444     C
C       0.1803  0.82998  0.69302     C
H       0.1842   0.6277   0.1331     H
C      0.18423  0.81837  0.38977     C
H       0.1853   0.9354   0.5708     H
C       0.1868   0.2132   0.2438     C
C        0.189  0.77677  0.83123     C
H       0.1915   0.4292   0.0646     H
H       0.1961   0.8202    0.828     H
C       0.2033  0.30698  0.17002     C
C      0.21136  0.39005  0.91483     C
C      0.21193  0.67071  0.88383     C
C        0.214  0.90446  0.60114     C
C       0.2196  0.39886  0.09554     C
C       0.2234   0.7341   0.8799     C
O      0.22431  0.56884  0.94074     O
O      0.23128  0.43977  0.93067     O
O      0.23389  0.05926  0.43116     O
H       0.2381   0.2684   0.8746     H
H       0.2539   0.7481   0.9097     H
C      0.25559  0.62063  0.93079     C
Li     0.26195  0.04915  0.51755    Li
C      0.26647  0.11617  0.32929     C
H       0.2713    0.928     0.44     H
C       0.2753   0.8909   0.4167     C
C      0.28834  0.78496  0.34496     C
H       0.2916   0.7496   0.3194     H
C       0.2958  0.31337  0.18783     C
C        0.297  0.16877  0.22323     C
C        0.297  0.81217  0.68663     C
C      0.29829  0.28481  0.84841     C
C      0.30253  0.34627  0.86247     C
C      0.30701  0.06921  0.37937     C
C      0.31353  0.40401  0.11173     C
H       0.3191   0.1962   0.6038     H
H       0.3216    0.285   0.2206     H
O      0.32351  0.63102  0.95776     O
H       0.3272   0.7794    0.715     H
Li     0.32865  0.48245  0.95085    Li
C      0.32927  0.88827  0.59599     C
C       0.3374   0.1201   0.2659     C
O       0.3377  0.49177  0.03783     O
O      0.34324  0.10677  0.52875     O
H       0.3443    0.172   0.1798     H
Li      0.3466   0.6941   0.0095    Li
C       0.3491  0.35963  0.15897     C
H       0.3606   0.2504   0.6806     H
O       0.3673  0.96217  0.50823     O
C       0.3677  0.84103  0.64037     C
H       0.3685    0.795   0.2136     H
C       0.3746  0.45367  0.08133     C
H       0.3771    0.205   0.7864     H
C      0.37817  0.85523  0.37523     C
H       0.3811   0.7316   0.1254     H
C      0.38199  0.24671  0.79571     C
C      0.38591  0.80289  0.33769     C
C      0.39161  0.36899  0.82159     C
C      0.39237  0.18163  0.61023     C
H       0.3958   0.4113   0.8291     H
C       0.4096  0.91867  0.54633     C
H       0.4117   0.0903   0.2519     H
O      0.41229  0.04224  0.36898     O
H       0.4127   0.3618   0.1714     H
Li      0.4152  0.56175  0.00405    Li
C      0.41826  0.21504  0.65504     C
C      0.42441  0.75329  0.20429     C
C      0.43151  0.71519  0.15159     C
O      0.43564  0.62421  0.05971     O
C      0.44452  0.08812  0.53244     C
H        0.445   0.8669   0.3723     H
H       0.4459   0.8286   0.6382     H
O      0.45837   0.4547  0.09896     O
C      0.46988  0.26882  0.75782     C
C      0.47294  0.33066  0.77086     C
C      0.47325  0.12794  0.57556     C
O      0.47876  0.47125  0.89323     O
Li       0.481  0.99595  0.43825    Li
N      0.49152  0.76868  0.29448     N
C       0.4916   0.7359   0.8139     C
C      0.49652  0.73118  0.24218     C
C      0.51127  0.65373  0.13753     C
O      0.51203  0.90104   0.5453     O
C      0.51624  0.60995  0.08517     C
O      0.52155  0.04015  0.50151     O
C      0.52649  0.19711  0.66231     C
H       0.5327   0.3471   0.7441     H
H       0.5413   0.3188   0.2368     H
C       0.5414   0.1861   0.2641     C
Li      0.5502   0.9905   0.3059    Li
N      0.55468  0.23132  0.70552     N
H       0.5616    0.651   0.8906     H
O      0.56321  0.49849  0.95985     O
C      0.56508  0.46756  0.91188     C
C      0.57446  0.66934  0.22914     C
C      0.58219  0.63101  0.17841     C
C       0.5829   0.1091   0.5833     C
Li     0.58797  0.47783  0.04443    Li
C       0.5957   0.7691   0.3063     C
H       0.5969   0.7632   0.6812     H
O      0.60172  0.56023  0.06933     O
H       0.6032   0.1094    0.349     H
N       0.6052  0.74027  0.80293     N
H       0.6073   0.3898   0.1528     H
C      0.60863  0.14477  0.62477     C
Li     0.61023  0.95557  0.52217    Li
C       0.6162  0.30505  0.20775     C
H       0.6191   0.3962   0.8038     H
O      0.61956  0.94029  0.37579     O
H       0.6239   0.6529   0.2559     H
C        0.629  0.79225  0.69495     C
H       0.6362   0.5887   0.1709     H
H       0.6393    0.072     0.56     H
C       0.6399  0.64844  0.87736     C
C       0.6438   0.7868   0.7562     C
N       0.6484  0.19707  0.25973     N
H       0.6499   0.8472   0.6102     H
C       0.6567  0.34749  0.15791     C
C       0.6621  0.84209  0.65251     C
C       0.6657  0.12264  0.35156     C
C       0.6711   0.2309   0.6937     C
C      0.67675  0.42444  0.87206     C
C       0.6803  0.69302  0.82998     C
H       0.6842   0.1331   0.6277     H
C      0.68423  0.38977  0.81837     C
H       0.6853   0.5708   0.9354     H
C       0.6868   0.2438   0.2132     C
C        0.689  0.83123  0.77677     C
H       0.6915   0.0646   0.4292     H
H       0.6961    0.828   0.8202     H
C       0.7033  0.17002  0.30698     C
C      0.71136  0.91483  0.39005     C
C      0.71193  0.88383  0.67071     C
C        0.714  0.60114  0.90446     C
C       0.7196  0.09554  0.39886     C
C       0.7234   0.8799   0.7341     C
O      0.72431  0.94074  0.56884     O
O      0.73128  0.93067  0.43977     O
O      0.73389  0.43116  0.05926     O
H       0.7381   0.8746   0.2684     H
H       0.7539   0.9097   0.7481     H
C      0.75559  0.93079  0.62063     C
Li     0.76195  0.51755  0.04915    Li
C      0.76647  0.32929  0.11617     C
H       0.7713     0.44    0.928     H
C       0.7753   0.4167   0.8909     C
C      0.78834  0.34496  0.78496     C
H       0.7916   0.3194   0.7496     H
C       0.7958  0.18783  0.31337     C
C        0.797  0.22323  0.16877     C
C        0.797  0.68663  0.81217     C
C      0.79829  0.84841  0.28481     C
C      0.80253  0.86247  0.34627     C
C      0.80701  0.37937  0.06921     C
C      0.81353  0.11173  0.40401     C
H       0.8191   0.6038   0.1962     H
H       0.8216   0.2206    0.285     H
O      0.82351  0.95776  0.63102     O
H       0.8272    0.715   0.7794     H
Li     0.82865  0.95085  0.48245    Li
C      0.82927  0.59599  0.88827     C
C       0.8374   0.2659   0.1201     C
O       0.8377  0.03783  0.49177     O
O      0.84324  0.52875  0.10677     O
H       0.8443   0.1798    0.172     H
Li      0.8466   0.0095   0.6941    Li
C       0.8491  0.15897  0.35963     C
H       0.8606   0.6806   0.2504     H
O       0.8673  0.50823  0.96217     O
C       0.8677  0.64037  0.84103     C
H       0.8685   0.2136    0.795     H
C       0.8746  0.08133  0.45367     C
H       0.8771   0.7864    0.205     H
C      0.87817  0.37523  0.85523     C
H       0.8811   0.1254   0.7316     H
C      0.88199  0.79571  0.24671     C
C      0.88591  0.33769  0.80289     C
C      0.89161  0.82159  0.36899     C
C      0.89237  0.61023  0.18163     C
H       0.8958   0.8291   0.4113     H
C       0.9096  0.54633  0.91867     C
H       0.9117   0.2519   0.0903     H
O      0.91229  0.36898  0.04224     O
H       0.9127   0.1714   0.3618     H
Li      0.9152  0.00405  0.56175    Li
C      0.91826  0.65504  0.21504     C
C      0.92441  0.20429  0.75329     C
C      0.93151  0.15159  0.71519     C
O      0.93564  0.05971  0.62421     O
C      0.94452  0.53244  0.08812     C
H        0.945   0.3723   0.8669     H
H       0.9459   0.6382   0.8286     H
O      0.95837  0.09896   0.4547     O
C      0.96988  0.75782  0.26882     C
C      0.97294  0.77086  0.33066     C
C      0.97325  0.57556  0.12794     C
O      0.97876  0.89323  0.47125     O
Li       0.981  0.43825  0.99595    Li
N      0.99152  0.29448  0.76868     N
C       0.9916   0.8139   0.7359     C
C      0.99652  0.24218  0.73118     C
