data_I
_chemical_name_common  '/home/zhangsd/repos/MofS-CGCNN/ML/data/TSD/clean_cifs/NEYJIM_clean'
_cell_length_a 11.65540
_cell_length_b 13.40450
_cell_length_c 20.67970
_cell_angle_alpha 89.14100
_cell_angle_beta  76.43900
_cell_angle_gamma 67.33200
_space_group_name_H-M_alt      'P 1'


loop_
_space_group_symop_operation_xyz
  'x, y, z' 

loop_
_atom_site_label
_atom_site_fract_x
_atom_site_fract_y
_atom_site_fract_z
_atom_site_type_symbol
H       0.0121   0.9875   0.7087     H
Cu     0.01278  0.81068  0.21901    Cu
H       0.0156   0.0977   0.9094     H
C       0.0265   0.8286   0.0771     C
H       0.0281    0.348   0.4857     H
Cu       0.034  0.69168  0.37258    Cu
C       0.0396   0.3175   0.2332     C
H       0.0401   0.7666   0.8057     H
N       0.0405   0.4159   0.2434     N
C        0.041   0.6974   0.8009     C
C       0.0464   0.5021   0.7792     C
H       0.0464   0.8487   0.9796     H
N       0.0476   0.7591   0.1232     N
H       0.0531   0.4317   0.7712     H
C       0.0645   0.7964     0.01     C
C       0.0749   0.9702   0.2854     C
N       0.0757   0.2293   0.5441     N
C       0.0821    0.276   0.4867     C
H        0.095   0.2581   0.2496     H
C       0.1023   0.6544   0.1012     C
H       0.1056   0.0742   0.3401     H
H       0.1129   0.6026   0.1322     H
N       0.1201   0.6176   0.8273     N
Cl       0.121   0.6381  0.26854    Cl
C       0.1247   0.5181   0.8133     C
N        0.125   0.8747   0.2496     N
N       0.1274   0.6908    0.987     N
C       0.1437   0.6204   0.0342     C
C        0.146   0.0085   0.3139     C
H       0.1511   0.0897   0.5807     H
C       0.1535   0.1251   0.5417     C
C       0.1686   0.2183   0.4285     C
H       0.1714   0.2536   0.3895     H
O       0.1724     0.59   0.6099     O
N        0.175   0.1232   0.7306     N
H       0.1837   0.4583   0.8275     H
H       0.1842   0.5465   0.0212     H
Cu     0.18503  0.43489  0.26498    Cu
H       0.1894   0.2529   0.6901     H
O       0.1955   0.4471   0.3664     O
O       0.1979   0.7411   0.5373     O
O          0.2   0.4701      0.5     O
Cu     0.20719  0.64582  0.89207    Cu
H       0.2106   0.9776   0.7607     H
O       0.2188   0.6228   0.4275     O
Mo     0.23018  0.44471  0.58422    Mo
C       0.2366   0.1815   0.6968     C
C       0.2372   0.0686   0.4832     C
Mo     0.24697  0.69742  0.61991    Mo
N       0.2474   0.1152   0.4258     N
C        0.249   0.0211   0.7373     C
C       0.2514   0.8211   0.2406     C
N       0.2717   0.9541    0.305     N
Mo     0.27321  0.73129  0.44659    Mo
H       0.2882   0.9956   0.4836     H
H       0.2921   0.7552   0.2147     H
Mo     0.29466  0.46387  0.40893    Mo
C       0.3231   0.8603   0.2685     C
H       0.3296    0.469   0.1374     H
O       0.3322   0.4118   0.6497     O
O       0.3352   0.6026   0.6745     O
H       0.3413   0.7279   0.7761     H
O       0.3542   0.2978   0.5439     O
O       0.3627   0.7625   0.5993     O
N       0.3678    0.388   0.2155     N
C       0.3688   0.1384   0.6716     C
Cu     0.37125  0.02131  0.34534    Cu
C       0.3777   0.9779   0.7116     C
N       0.3822   0.6427   0.8508     N
O       0.3868    0.793   0.4716     O
O       0.3958    0.322    0.415     O
C       0.3963   0.4287   0.1564     C
O       0.4021   0.5182   0.5672     O
H       0.4074   0.1823    0.649     H
C       0.4085   0.6862   0.7945     C
H       0.4107   0.8196   0.2615     H
O       0.4112    0.678   0.3673     O
O       0.4121    0.619    0.516     O
O       0.4135   0.4335    0.493     O
O       0.4177   0.4835    0.343     O
H       0.4235   0.9054   0.7168     H
O       0.4336   0.5457   0.4449     O
N       0.4427   0.0359   0.6786     N
Mo     0.45439  0.45221  0.67225    Mo
H       0.4544   0.2945   0.2773     H
C       0.4677   0.3281   0.2382     C
H       0.4687   0.5579   0.9168     H
C       0.4829   0.5867    0.876     C
Mo     0.49906  0.23584  0.47508    Mo
P          0.5      0.5      0.5     P
Mo     0.50094  0.76416  0.52492    Mo
C       0.5171   0.4133    0.124     C
H       0.5313   0.4421   0.0832     H
C       0.5323   0.6719   0.7618     C
H       0.5456   0.7055   0.7227     H
Mo     0.54561  0.54779  0.32775    Mo
N       0.5573   0.9641   0.3214     N
O       0.5664   0.4543   0.5551     O
H       0.5765   0.0946   0.2832     H
O       0.5823   0.5165    0.657     O
O       0.5865   0.5665    0.507     O
O       0.5879    0.381    0.484     O
O       0.5888    0.322   0.6327     O
H       0.5893   0.1804   0.7385     H
C       0.5915   0.3138   0.2055     C
H       0.5926   0.8177    0.351     H
O       0.5979   0.4818   0.4328     O
C       0.6037   0.5713   0.8436     C
O       0.6042    0.678    0.585     O
O       0.6132    0.207   0.5284     O
N       0.6178   0.3573   0.1492     N
C       0.6223   0.0221   0.2884     C
Cu     0.62875  0.97869  0.65466    Cu
C       0.6312   0.8616   0.3284     C
N       0.6322    0.612   0.7845     N
O       0.6373   0.2375   0.4007     O
O       0.6458   0.7022   0.4561     O
H       0.6587   0.2721   0.2239     H
O       0.6648   0.3974   0.3255     O
O       0.6678   0.5882   0.3503     O
H       0.6704    0.531   0.8626     H
C       0.6769   0.1397   0.7315     C
Mo     0.70534  0.53613  0.59107    Mo
H       0.7079   0.2448   0.7853     H
H       0.7118   0.0044   0.5164     H
Mo     0.72679  0.26871  0.55341    Mo
N       0.7283   0.0459    0.695     N
C       0.7486   0.1789   0.7594     C
C        0.751   0.9789   0.2627     C
N       0.7526   0.8848   0.5742     N
Mo     0.75303  0.30258  0.38009    Mo
C       0.7628   0.9314   0.5168     C
C       0.7634   0.8185   0.3032     C
Mo     0.76982  0.55529  0.41578    Mo
O       0.7812   0.3772   0.5725     O
H       0.7894   0.0224   0.2393     H
Cu     0.79281  0.35418  0.10793    Cu
O          0.8   0.5299      0.5     O
O       0.8021   0.2589   0.4627     O
O       0.8045   0.5529   0.6336     O
H       0.8106   0.7471   0.3099     H
Cu     0.81497  0.56511  0.73502    Cu
H       0.8158   0.4535   0.9788     H
H       0.8163   0.5417   0.1725     H
N        0.825   0.8768   0.2694     N
O       0.8276     0.41   0.3901     O
H       0.8286   0.7464   0.6105     H
C       0.8314   0.7817   0.5715     C
C       0.8465   0.8749   0.4583     C
H       0.8489   0.9103   0.4193     H
C        0.854   0.9915   0.6861     C
C       0.8563   0.3796   0.9658     C
N       0.8726   0.3092    0.013     N
N        0.875   0.1253   0.7504     N
C       0.8753   0.4819   0.1867     C
Cl       0.879   0.3619  0.73146    Cl
N       0.8799   0.3824   0.1727     N
H       0.8871   0.3974   0.8678     H
H       0.8944   0.9258   0.6599     H
C       0.8977   0.3456   0.8988     C
H        0.905   0.7419   0.7504     H
C       0.9179    0.724   0.5133     C
N       0.9243   0.7707   0.4559     N
C       0.9251   0.0298   0.7146     C
C       0.9355   0.2036     0.99     C
H       0.9469   0.5683   0.2288     H
N       0.9524   0.2409   0.8768     N
H       0.9536   0.1513   0.0204     H
C       0.9536   0.4979   0.2208     C
C        0.959   0.3026   0.1991     C
N       0.9595   0.5841   0.7566     N
H       0.9599   0.2334   0.1943     H
C       0.9604   0.6825   0.7668     C
Cu       0.966  0.30832  0.62742    Cu
H       0.9719    0.652   0.5143     H
C       0.9735   0.1714   0.9229     C
H       0.9844   0.9023   0.0906     H
Cu     0.98722  0.18932  0.78099    Cu
H       0.9879   0.0125   0.2913     H
