data_I
_chemical_name_common  '/home/zhangsd/repos/MofS-CGCNN/ML/data/TSD/clean_cifs/NIHVUX_clean'
_cell_length_a 15.36900
_cell_length_b 15.40300
_cell_length_c 20.10400
_cell_angle_alpha 84.83500
_cell_angle_beta  89.82800
_cell_angle_gamma 74.46000
_space_group_name_H-M_alt      'P 1'


loop_
_space_group_symop_operation_xyz
  'x, y, z' 

loop_
_atom_site_label
_atom_site_fract_x
_atom_site_fract_y
_atom_site_fract_z
_atom_site_type_symbol
C        0.003   0.3971    0.629     C
O       0.0064   0.8839   0.3248     O
H       0.0093   0.4703   0.3852     H
O       0.0115   0.8428   0.8204     O
O       0.0182   0.9757   0.5731     O
O       0.0209   0.6931   0.5574     O
H       0.0211   0.1323   0.9613     H
C       0.0229   0.4739   0.6016     C
C        0.027    0.889   0.0518     C
O       0.0362   0.9838   0.2132     O
H       0.0374   0.2662   0.6204     H
C        0.039    0.974   0.0246     C
H       0.0436   0.7318   0.3053     H
O       0.0446    0.647   0.6895     O
W      0.04839  0.24887  0.36902     W
C        0.051   0.3197   0.6051     C
O       0.0523   0.8332    0.473     O
O       0.0573   0.9265   0.6973     O
W      0.05899  0.05957  0.74732     W
O         0.06    0.189    0.291     O
C       0.0661   0.5997    0.323     C
Mn     0.06931  0.06923  0.49905    Mn
O       0.0736   0.6665   0.8151     O
O       0.0768   0.8109   0.6152     O
W      0.07833  0.07725  0.25027     W
C       0.0801    0.677   0.2935     C
W      0.08466  0.75284  0.87386     W
P       0.0856    0.904   0.6258     P
H       0.0872   0.7842   0.1193     H
C       0.0893   0.4709    0.555     C
C        0.093    0.839   0.0996     C
Mn     0.09486  0.91384   0.3916    Mn
H       0.1012   0.5241   0.5369     H
O       0.1043   0.1542   0.4224     O
C       0.1096   0.0007   0.0478     C
H       0.1116   0.4663   0.3191     H
W      0.11438  0.57823  0.75417     W
H        0.116   0.0575   0.0327     H
C        0.118   0.5217    0.301     C
W      0.11925  0.73004  0.52015     W
C       0.1217   0.3148   0.5577     C
O       0.1303   0.0072   0.3222     O
N        0.136   0.3922   0.5363     N
O       0.1364   0.9662    0.819     O
O       0.1408   0.8291   0.9184     O
C        0.147   0.6791   0.2459     C
O       0.1493   0.0993   0.5715     O
H       0.1549   0.2602   0.5432     H
H       0.1584   0.7332   0.2293     H
N       0.1606    0.868   0.1173     N
C        0.168   0.9497   0.0904     C
O       0.1687   0.9483   0.4708     O
O       0.1757   0.0445   0.7047     O
O       0.1815    0.914    0.613     O
C        0.182    0.524    0.252     C
O       0.1904   0.6517   0.9097     O
O       0.1925   0.6313   0.5871     O
N       0.1959   0.5968   0.2249     N
O        0.196   0.5106   0.6951     O
O        0.199   0.3907   0.4911     O
O          0.2   0.7793    0.801     O
O       0.2119   0.5284   0.8253     O
H       0.2153   0.4689    0.238     H
O       0.2155   0.6608   0.7226     O
H       0.2175   0.9694   0.1031     H
O       0.2195   0.7769   0.5245     O
W      0.22242  0.88837  0.87061     W
O       0.2235   0.8162   0.1593     O
W      0.23988  0.03736   0.6261     W
O       0.2515   0.5959    0.171     O
H       0.2589   0.1627   0.4499     H
P       0.2639   0.7151   0.7594     P
W      0.26904  0.87803  0.51775     W
H       0.2699   0.0594   0.3812     H
W      0.27998  0.55636  0.64248     W
W      0.28134  0.54933  0.89415     W
O       0.3025   0.9746   0.5532     O
H       0.3034   0.0119   0.2741     H
H       0.3108   0.9056    0.201     H
O       0.3124   0.9003   0.8089     O
C       0.3157   0.1292    0.438     C
O       0.3185   0.7777   0.9085     O
O       0.3204   0.4709   0.5912     O
O       0.3221   0.7618   0.7168     O
C       0.3229   0.0693    0.397     C
O       0.3313   0.6455    0.813     O
O       0.3391   0.9395   0.6815     O
C        0.353    0.961    0.276     C
Ce     0.35328  0.69119  0.13822    Ce
O        0.354   0.6108   0.9349     O
C        0.358    0.901    0.231     C
O        0.359   0.6314   0.6248     O
Ce     0.35975  0.36248  0.50151    Ce
O       0.3634   0.7969    0.585     O
O       0.3683   0.5057   0.7197     O
O       0.3807   0.4779   0.8437     O
O       0.3871   0.2021   0.5116     O
N       0.3929   0.1444   0.4647     N
W      0.40456  0.86368  0.74698     W
C       0.4062   0.0163   0.3738     C
C       0.4155   0.9497    0.326     C
W       0.4233   0.6877  0.89016     W
W       0.4324  0.70544  0.63921     W
N        0.434   0.8358   0.2291     N
O       0.4433   0.7808    0.184     O
O       0.4472   0.7599   0.8158     O
W      0.45044  0.52602  0.78023     W
O       0.4584   0.5668   0.2188     O
H       0.4586   0.2339   0.7222     H
H       0.4619   0.1358   0.6436     H
H        0.462   0.0036    0.608     H
H       0.4734   0.8944   0.5338     H
C       0.4747    0.096    0.448     C
O       0.4761   0.3334   0.4088     O
O       0.4768   0.6113   0.7164     O
O       0.4785   0.7839   0.6905     O
C       0.4811    0.031   0.4028     C
C       0.4914    0.875   0.3249     C
C        0.494    0.819   0.2769     C
O       0.4965   0.5907   0.8414     O
O       0.5035   0.4093   0.1586     O
C        0.506    0.181   0.7231     C
C       0.5086    0.125   0.6751     C
C       0.5189    0.969   0.5972     C
O       0.5215   0.2161   0.3095     O
O       0.5232   0.3887   0.2836     O
O       0.5239   0.6666   0.5912     O
C       0.5253    0.904    0.552     C
H       0.5266   0.1056   0.4662     H
H        0.538   0.9964    0.392     H
H       0.5381   0.8642   0.3564     H
H       0.5414   0.7661   0.2778     H
O       0.5416   0.4332   0.7812     O
W      0.54956  0.47398  0.21977     W
O       0.5528   0.2401   0.1842     O
O       0.5567   0.2192    0.816     O
N        0.566   0.1642   0.7709     N
W       0.5676  0.29456  0.36079     W
W       0.5767   0.3123  0.10984     W
C       0.5845   0.0503    0.674     C
C       0.5938   0.9837   0.6262     C
W      0.59544  0.13632  0.25302     W
N       0.6071   0.8556   0.5353     N
O       0.6129   0.7979   0.4884     O
O       0.6193   0.5221   0.1563     O
O       0.6317   0.4943   0.2803     O
O       0.6366   0.2031    0.415     O
Ce     0.64025  0.63752  0.49849    Ce
O        0.641   0.3686   0.3752     O
C        0.642    0.099    0.769     C
O        0.646   0.3892   0.0651     O
Ce     0.64672  0.30881  0.86178    Ce
C        0.647    0.039    0.724     C
O       0.6609   0.0605   0.3185     O
O       0.6687   0.3545    0.187     O
C       0.6771   0.9307    0.603     C
O       0.6779   0.2382   0.2832     O
O       0.6796   0.5291   0.4088     O
O       0.6815   0.2223   0.0915     O
C       0.6843   0.8708    0.562     C
O       0.6876   0.0997   0.1911     O
H       0.6892   0.0944    0.799     H
H       0.6966   0.9881   0.7259     H
O       0.6975   0.0254   0.4468     O
W      0.71866  0.45067  0.10585     W
W      0.72002  0.44364  0.35752     W
H       0.7301   0.9406   0.6188     H
W      0.73096  0.12197  0.48225     W
P       0.7361   0.2849   0.2406     P
H       0.7411   0.8373   0.5501     H
O       0.7485   0.4041    0.829     O
W      0.76012  0.96264   0.3739     W
O       0.7765   0.1838   0.8407     O
W      0.77758  0.11163  0.12939     W
O       0.7805   0.2231   0.4755     O
H       0.7825   0.0306   0.8969     H
O       0.7845   0.3392   0.2774     O
H       0.7847   0.5311    0.762     H
O       0.7881   0.4716   0.1747     O
O          0.8   0.2207    0.199     O
O        0.801   0.6093   0.5089     O
O        0.804   0.4894   0.3049     O
N       0.8041   0.4032   0.7751     N
O       0.8075   0.3687   0.4129     O
O       0.8096   0.3483   0.0903     O
C        0.818    0.476    0.748     C
O       0.8185    0.086    0.387     O
O       0.8243   0.9555   0.2953     O
O       0.8313   0.0517   0.5292     O
C        0.832   0.0503   0.9096     C
N       0.8394    0.132   0.8827     N
H       0.8416   0.2668   0.7707     H
H       0.8451   0.7398   0.4568     H
O       0.8507   0.9007   0.4285     O
C        0.853   0.3209   0.7541     C
O       0.8592   0.1709   0.0816     O
O       0.8636   0.0338    0.181     O
N        0.864   0.6078   0.4637     N
O       0.8697   0.9928   0.6778     O
C       0.8783   0.6852   0.4423     C
W      0.88075  0.26996  0.47985     W
C        0.882   0.4783    0.699     C
H        0.884   0.9425   0.9673     H
W      0.88562  0.42177  0.24583     W
H       0.8884   0.5337   0.6809     H
C       0.8904   0.9993   0.9522     C
O       0.8957   0.8458   0.5776     O
H       0.8988   0.4759   0.4631     H
Mn     0.90514  0.08616   0.6084    Mn
C        0.907    0.161   0.9004     C
C       0.9107   0.5291    0.445     C
H       0.9128   0.2158   0.8807     H
P       0.9144    0.096   0.3742     P
W      0.91534  0.24716  0.12614     W
C       0.9199    0.323   0.7065     C
W      0.92167  0.92275  0.74973     W
O       0.9232   0.1891   0.3848     O
O       0.9264   0.3335   0.1849     O
Mn     0.93069  0.93077  0.50095    Mn
C       0.9339   0.4003    0.677     C
O         0.94    0.811    0.709     O
W      0.94101  0.94043  0.25268     W
O       0.9427   0.0735   0.3027     O
O       0.9477   0.1668    0.527     O
C        0.949   0.6803   0.3949     C
W      0.95161  0.75113  0.63098     W
O       0.9554    0.353   0.3105     O
H       0.9564   0.2682   0.6947     H
C        0.961    0.026   0.9754     C
H       0.9626   0.7338   0.3796     H
O       0.9638   0.0162   0.7868     O
C        0.973    0.111   0.9482     C
C       0.9771   0.5261   0.3984     C
H       0.9789   0.8677   0.0387     H
O       0.9791   0.3069   0.4426     O
O       0.9818   0.0243   0.4269     O
O       0.9885   0.1572   0.1796     O
H       0.9907   0.5297   0.6148     H
O       0.9936   0.1161   0.6752     O
C        0.997   0.6029    0.371     C
