data_I
_chemical_name_common  '/home/zhangsd/repos/MofS-CGCNN/ML/data/TSD/clean_cifs/NIMPEG_clean'
_cell_length_a 14.60310
_cell_length_b 14.60310
_cell_length_c 18.80400
_cell_angle_alpha 90.66430
_cell_angle_beta  90.66430
_cell_angle_gamma 90.67420
_space_group_name_H-M_alt      'P 1'


loop_
_space_group_symop_operation_xyz
  'x, y, z' 

loop_
_atom_site_label
_atom_site_fract_x
_atom_site_fract_y
_atom_site_fract_z
_atom_site_type_symbol
H       0.0006   0.4166   0.3126     H
C       0.0059   0.1125   0.2387     C
C       0.0095   0.9905     0.75     C
C       0.0171   0.5583   0.7342     C
C       0.0176   0.3016   0.2208     C
H       0.0189   0.0331   0.8545     H
C       0.0197   0.5427   0.2583     C
O      0.02202  0.39326  0.21254     O
H       0.0225   0.8905   0.1966     H
C       0.0225   0.9561   0.1858     C
H        0.024   0.9154   0.3263     H
H       0.0279   0.4145   0.7269     H
H       0.0331   0.0189   0.3545     H
H       0.0355   0.5539   0.2087     H
C       0.0439   0.9775   0.3142     C
C       0.0498   0.7496    0.816     C
C       0.0523   0.8437   0.8083     C
H       0.0541   0.6351   0.9229     H
C       0.0705   0.1649   0.2749     C
H       0.0742   0.5516   0.2886     H
C       0.0784    0.259    0.267     C
H       0.0846   0.5606    0.739     H
H       0.0846    0.976   0.1737     H
H       0.0948    0.879   0.8359     H
H       0.1095   0.9775   0.3034     H
H       0.1114   0.1352   0.3066     H
C       0.1125   0.0059   0.7387     C
C       0.1145   0.6499   0.9083     C
H       0.1187   0.2513   0.4011     H
H        0.121   0.9052   0.6641     H
C       0.1271   0.7077   0.8551     C
H       0.1352   0.1114   0.8066     H
C      0.14867  0.30835   0.3085     C
C       0.1563   0.9477   0.6917     C
C      0.15908   0.2932   0.3787     C
C       0.1649   0.0705   0.7749     C
H       0.1792   0.5694   0.9815     H
C       0.1901   0.6099   0.9433     C
H       0.1989   0.3887   0.2293     H
C       0.2067   0.3737    0.278     C
C       0.2182   0.7328   0.8335     C
H        0.225   0.7716   0.7037     H
C      0.22778  0.33732     0.42     C
H       0.2284    0.775   0.7963     H
H       0.2338    0.325   0.4693     H
C       0.2504   0.9502    0.684     C
H       0.2513   0.1187   0.9011     H
C        0.259   0.0784    0.767     C
C       0.2672   0.7818   0.6665     C
C      0.27531  0.41651   0.3179     C
C      0.27935  0.62795   0.9238     C
C      0.28584  0.39814  0.38828     C
H       0.2902   0.6484   0.6431     H
C       0.2909   0.6927   0.8695     C
C       0.2923   0.8729   0.6449     C
C       0.2932  0.15908   0.8787     C
C       0.3016   0.0176   0.7208     C
C       0.3073   0.7091   0.6305     C
C      0.30835  0.14867   0.8085     C
H       0.3152   0.4592   0.2959     H
H        0.325   0.2338   0.9693     H
C      0.33732  0.22778     0.92     C
C       0.3501   0.8855   0.5917     C
O      0.35044  0.54424  0.01418     O
H       0.3516   0.7098   0.8569     H
C      0.36011  0.58119   0.9558     C
C      0.36249  0.44099  0.43188     C
H       0.3649   0.9459   0.5771     H
O      0.37172  0.41654  0.49407     O
C      0.37205  0.72065   0.5762     C
C       0.3737   0.2067    0.778     C
H       0.3887   0.1989   0.7293     H
C       0.3901   0.8099   0.5567     C
O      0.39326  0.02202  0.71254     O
C      0.39814  0.28584  0.88828     C
O      0.41272  0.49898  0.40115     O
H       0.4145   0.0279   0.2269     H
O      0.41519  0.56747  0.57936     O
C      0.41651  0.27531   0.8179     C
O      0.41654  0.37172  0.99407     O
H       0.4166   0.0006   0.8126     H
C      0.41881  0.63989   0.5442     C
H       0.4306   0.8208   0.5185     H
O      0.43253  0.58481  0.92064     O
H       0.4394   0.9154    0.761     H
C      0.44099  0.36249  0.93188     C
C       0.4417   0.9829   0.7658     C
H       0.4461   0.9645   0.2913     H
H       0.4484   0.9258   0.2114     H
Cu     0.45194  0.47492  0.05532    Cu
O      0.45576  0.64956  0.48582     O
C       0.4573   0.9803   0.2417     C
H       0.4592   0.3152   0.7959     H
Cu     0.47492  0.45194  0.55532    Cu
O      0.49898  0.41272  0.90115     O
O      0.50102  0.58728  0.09885     O
Cu     0.52508  0.54806  0.44468    Cu
H       0.5408   0.6848   0.2041     H
C       0.5427   0.0197   0.7583     C
O      0.54424  0.35044  0.51418     O
Cu     0.54806  0.52508  0.94468    Cu
H       0.5516   0.0742   0.7886     H
H       0.5539   0.0355   0.7087     H
C       0.5583   0.0171   0.2342     C
C      0.55901  0.63751  0.06812     C
H       0.5606   0.0846    0.239     H
O      0.56747  0.41519  0.07936     O
H       0.5694   0.1792   0.4815     H
C      0.58119  0.36011   0.4558     C
H       0.5834   0.9994   0.1874     H
O      0.58346  0.62828  0.00593     O
C      0.58349  0.72469   0.1821     C
O      0.58481  0.43253  0.42064     O
H       0.5855   0.9721   0.7731     H
O      0.58728  0.50102  0.59885     O
C      0.60186  0.71416  0.11172     C
O      0.60674  0.97798  0.28746     O
C       0.6099   0.1901   0.4433     C
H       0.6113   0.8011   0.2707     H
C       0.6263   0.7933    0.222     C
C      0.62795  0.27935   0.4238     C
O      0.62828  0.58346  0.50593     O
H       0.6351   0.0541   0.4229     H
C      0.63751  0.55901  0.56812     C
C      0.63989  0.41881   0.0442     C
H       0.6484   0.2902   0.1431     H
O      0.64956  0.45576  0.98582     O
C       0.6499   0.1145   0.4083     C
C      0.66268  0.77222     0.08     C
H        0.675   0.7662   0.0307     H
H       0.6848   0.5408   0.7041     H
C      0.69165  0.85133   0.1915     C
C       0.6927   0.2909   0.3695     C
C       0.6984   0.9824   0.2792     C
C       0.7068  0.84092   0.1213     C
C       0.7077   0.1271   0.3551     C
C       0.7091   0.3073   0.1305     C
H       0.7098   0.3516   0.3569     H
C      0.71416  0.60186  0.61172     C
C      0.72065  0.37205   0.0762     C
C      0.72469  0.58349   0.6821     C
C       0.7328   0.2182   0.3335     C
C        0.741   0.9216    0.233     C
H       0.7487   0.8813   0.0989     H
C       0.7496   0.0498    0.316     C
H       0.7662    0.675   0.5307     H
H       0.7716    0.225   0.2037     H
C      0.77222  0.66268     0.58     C
H        0.775   0.2284   0.2963     H
C       0.7818   0.2672   0.1665     C
C       0.7933   0.6263    0.722     C
H       0.8011   0.6113   0.7707     H
C       0.8099   0.3901   0.0567     C
H       0.8208   0.4306   0.0185     H
C       0.8351   0.9295   0.2251     C
C      0.84092   0.7068   0.6213     C
C       0.8437   0.0523   0.3083     C
C      0.85133  0.69165   0.6915     C
H       0.8648   0.8886   0.1934     H
C       0.8729   0.2923   0.1449     C
H        0.879   0.0948   0.3359     H
H       0.8813   0.7487   0.5989     H
C       0.8855   0.3501   0.0917     C
C       0.8875   0.9941   0.2613     C
H       0.8886   0.8648   0.6934     H
H       0.8905   0.0225   0.6966     H
H       0.9052    0.121   0.1641     H
H       0.9154    0.024   0.8263     H
H       0.9154   0.4394    0.261     H
C       0.9216    0.741    0.733     C
H       0.9258   0.4484   0.7114     H
C       0.9295   0.8351   0.7251     C
H       0.9459   0.3649   0.0771     H
C       0.9477   0.1563   0.1917     C
C       0.9502   0.2504    0.184     C
C       0.9561   0.0225   0.6858     C
H       0.9645   0.4461   0.7913     H
H       0.9669   0.9811   0.6455     H
H       0.9721   0.5855   0.2731     H
H        0.976   0.0846   0.6737     H
C       0.9775   0.0439   0.8142     C
H       0.9775   0.1095   0.8034     H
O      0.97798  0.60674  0.78746     O
C       0.9803   0.4573   0.7417     C
H       0.9811   0.9669   0.1455     H
C       0.9824   0.6984   0.7792     C
C       0.9829   0.4417   0.2658     C
C       0.9905   0.0095     0.25     C
C       0.9941   0.8875   0.7613     C
H       0.9994   0.5834   0.6874     H
