data_I
_chemical_name_common  '/home/zhangsd/repos/MofS-CGCNN/ML/data/TSD/clean_cifs/NIMPEG01_clean'
_cell_length_a 15.01000
_cell_length_b 16.62000
_cell_length_c 19.29000
_cell_angle_alpha 102.28800
_cell_angle_beta  91.78600
_cell_angle_gamma 93.30000
_space_group_name_H-M_alt      'P 1'


loop_
_space_group_symop_operation_xyz
  'x, y, z' 

loop_
_atom_site_label
_atom_site_fract_x
_atom_site_fract_y
_atom_site_fract_z
_atom_site_type_symbol
C       0.0017   0.3343   0.7013     C
O       0.0122   0.4235   0.7043     O
H       0.0157   0.4508   0.8114     H
C       0.0165   0.8366   0.3193     C
H       0.0198   0.9754   0.7115     H
C       0.0221   0.5416   0.2294     C
H       0.0286   0.0613   0.7682     H
C       0.0287   0.9661   0.4049     C
C       0.0329    0.035    0.718     C
H       0.0331   0.0438   0.5824     H
C       0.0385   0.9275   0.3294     C
H       0.0434   0.0256   0.4126     H
C       0.0527   0.2076   0.7248     C
C       0.0618    0.293   0.7351     C
C       0.0674   0.7099   0.3428     C
H       0.0691    0.942   0.4345     H
C       0.0765   0.7954   0.3531     C
H       0.0848    0.561   0.2249     H
H        0.092   0.6632   0.4709     H
H       0.0934   0.0458   0.7031     H
H       0.0937   0.1794   0.7478     H
H       0.1101   0.2757   0.8654     H
H       0.1238   0.8256   0.3832     H
C        0.134    0.949   0.3013     C
C       0.1381   0.3344   0.7852     C
C       0.1396   0.6647   0.3734     C
C       0.1412   0.6503   0.4417     C
H       0.1451   0.8366   0.2359     H
H       0.1496    0.067   0.3594     H
C       0.1506   0.3146   0.8511     C
C       0.1747   0.8895    0.253     C
C       0.1774   0.0264   0.3263     C
H       0.1888   0.4047   0.7193     H
C       0.1973   0.3912   0.7644     C
H       0.2105   0.6557    0.284     H
C       0.2117   0.6459   0.3307     C
C        0.215    0.617   0.4674     C
H       0.2161   0.6071   0.5142     H
C       0.2222   0.3517   0.8962     C
H       0.2307   0.3382   0.9413     H
C       0.2587   0.9075   0.2296     C
C       0.2614   0.0444    0.303     C
C        0.269   0.4283   0.8095     C
H       0.2712   0.7559   0.2523     H
H       0.2722    0.124   0.4344     H
C       0.2815   0.4085   0.8754     C
C       0.2854   0.6126   0.3564     C
C       0.2871   0.5981   0.4248     C
C       0.2999   0.7595   0.2098     C
C        0.302   0.9849   0.2546     C
C       0.3039   0.1557   0.4064     C
C       0.3044   0.8337   0.1872     C
C       0.3079   0.1261   0.3337     C
H       0.3095   0.4671   0.7952     H
H       0.3341   0.6402   0.1856     H
H       0.3347   0.5997   0.3273     H
C       0.3373   0.6909   0.1702     C
H       0.3435    0.252   0.4881     H
C       0.3462   0.2318   0.4383     C
C       0.3463   0.8391    0.125     C
H       0.3494   0.8897   0.1095     H
C       0.3542   0.1725   0.2928     C
O       0.3567   0.5426   0.5171     O
H        0.357   0.1523   0.2431     H
C       0.3597   0.4423   0.9277     C
C       0.3612   0.5651   0.4517     C
O       0.3695   0.4213   0.9829     O
C       0.3792   0.6963   0.1079     C
C       0.3837   0.7704   0.0853     C
O       0.3844   0.0001   0.2323     O
C       0.3925   0.2782   0.3975     C
C       0.3966   0.2486   0.3247     C
H       0.4124   0.7741   0.0428     H
O       0.4149   0.4974   0.8963     O
O       0.4175   0.3871   0.4956     O
O       0.4196   0.5579   0.0903     O
C       0.4205   0.6266   0.0686     C
H       0.4282   0.2803   0.2968     H
C        0.431   0.3623   0.4348     C
O       0.4358   0.5556   0.4165     O
H        0.446   0.0124   0.3304     H
C       0.4552   0.9854   0.2805     C
Cu     0.45642  0.49336  0.55771    Cu
O        0.462   0.6349   0.0091     O
H       0.4621   0.9257   0.2769     H
Cu     0.47274  0.45714  0.04716    Cu
O       0.4872   0.3988    0.396     O
O       0.5128   0.6012    0.604     O
Cu     0.52726  0.54286  0.95284    Cu
H       0.5379   0.0743   0.7231     H
O        0.538   0.3651   0.9909     O
Cu     0.54358  0.50664  0.44229    Cu
C       0.5448   0.0146   0.7195     C
H        0.554   0.9876   0.6696     H
O       0.5642   0.4444   0.5835     O
C        0.569   0.6377   0.5652     C
H       0.5718   0.7197   0.7032     H
C       0.5795   0.3734   0.9314     C
O       0.5804   0.4421   0.9097     O
O       0.5825   0.6129   0.5044     O
O       0.5851   0.5026   0.1037     O
H       0.5876   0.2259   0.9572     H
C       0.6034   0.7514   0.6753     C
C       0.6075   0.7218   0.6025     C
O       0.6156   0.9999   0.7677     O
C       0.6163   0.2296   0.9147     C
C       0.6208   0.3037   0.8921     C
O       0.6305   0.5787   0.0171     O
C       0.6388   0.4349   0.5483     C
C       0.6403   0.5577   0.0723     C
H        0.643   0.8477   0.7569     H
O       0.6433   0.4574   0.4829     O
C       0.6458   0.8275   0.7072     C
H       0.6506   0.1103   0.8905     H
C       0.6537   0.1609    0.875     C
C       0.6538   0.7682   0.5617     C
H       0.6565    0.748   0.5119     H
C       0.6627   0.3091   0.8298     C
H       0.6653   0.4003   0.6727     H
H       0.6659   0.3598   0.8144     H
H       0.6905   0.5329   0.2048     H
C       0.6921   0.8739   0.6663     C
C       0.6956   0.1663   0.8128     C
C       0.6961   0.8443   0.5936     C
C        0.698   0.0151   0.7454     C
C       0.7001   0.2405   0.7902     C
C       0.7129   0.4019   0.5752     C
C       0.7146   0.3874   0.6436     C
C       0.7185   0.5915   0.1246     C
H       0.7278    0.876   0.5656     H
H       0.7288   0.2441   0.7477     H
C        0.731   0.5717   0.1905     C
C       0.7386   0.9556    0.697     C
C       0.7413   0.0925   0.7704     C
H       0.7693   0.6618   0.0587     H
C       0.7778   0.6483   0.1038     C
H       0.7839   0.3929   0.4858     H
C        0.785    0.383   0.5326     C
C       0.7883   0.3541   0.6693     C
H       0.7895   0.3443    0.716     H
C       0.8027   0.6088   0.2356     C
H       0.8112   0.5953   0.2807     H
C       0.8226   0.9736   0.6737     C
C       0.8253   0.1105    0.747     C
C       0.8494   0.6854   0.1489     C
H       0.8504    0.933   0.6406     H
H       0.8549   0.1634   0.7641     H
C       0.8588   0.3497   0.5583     C
C       0.8604   0.3353   0.6266     C
C       0.8619   0.6656   0.2148     C
C        0.866    0.051   0.6987     C
H       0.8762   0.1744   0.6168     H
H       0.8899   0.7243   0.1346     H
H       0.9063   0.8206   0.2522     H
H       0.9066   0.9542   0.2969     H
H        0.908   0.3368   0.5291     H
H       0.9152    0.439   0.7751     H
C       0.9235   0.2046   0.6469     C
H       0.9309    0.058   0.5655     H
C       0.9326   0.2901   0.6572     C
C       0.9382    0.707   0.2649     C
C       0.9473   0.7924   0.2752     C
H       0.9566   0.9744   0.5874     H
C       0.9615   0.0725   0.6706     C
H       0.9669   0.9562   0.4176     H
C       0.9671    0.965    0.282     C
C       0.9713   0.0339   0.5951     C
H       0.9714   0.9387   0.2318     H
C       0.9779   0.4584   0.7706     C
H       0.9802   0.0246   0.2885     H
C       0.9835   0.1634   0.6807     C
H       0.9843   0.5492   0.1886     H
O       0.9878   0.5765   0.2957     O
C       0.9983   0.6657   0.2987     C
