data_I
_chemical_name_common  '/home/zhangsd/repos/MofS-CGCNN/ML/data/TSD/clean_cifs/NIMWUD_clean'
_cell_length_a 11.45450
_cell_length_b 11.45450
_cell_length_c 15.07770
_cell_angle_alpha 109.62100
_cell_angle_beta  109.62100
_cell_angle_gamma 96.58340
_space_group_name_H-M_alt      'P 1'


loop_
_space_group_symop_operation_xyz
  'x, y, z' 

loop_
_atom_site_label
_atom_site_fract_x
_atom_site_fract_y
_atom_site_fract_z
_atom_site_type_symbol
H       0.0022   0.9486   0.1931     H
Cd     0.00398  0.26684   0.7862    Cd
Cl     0.00415  0.73281  0.70284    Cl
H       0.0157   0.5125    0.304     H
C       0.0186   0.5396   0.7658     C
N        0.042   0.4852   0.8328     N
C       0.0438   0.6714   0.7964     C
O        0.051    0.949     0.25     O
H       0.0514   0.9978   0.3069     H
H       0.0684   0.1836   0.5906     H
O        0.089   0.1068   0.4294     O
C       0.0902   0.5612   0.9337     C
C       0.0961   0.7503    0.899     C
H       0.1051   0.5233   0.9809     H
O       0.1068    0.089   0.9294     O
O       0.1156   0.7744   0.3808     O
H       0.1162    0.839   0.9207     H
C       0.1184   0.6936   0.9697     C
O      0.13779  0.71181    0.134     O
O      0.14451  0.29469   0.9496     O
C       0.1479   0.2075   0.9823     C
C       0.1539   0.2139   0.6367     C
H        0.161   0.8838   0.5793     H
C       0.1648     0.77    0.084     C
N         0.18   0.2616   0.7366     N
H       0.1836   0.0684   0.0906     H
C       0.2069   0.2483   0.0976     C
C       0.2075   0.1479   0.4823     C
C       0.2139   0.1539   0.1367     C
O       0.2256   0.8844   0.1192     O
C         0.23   0.8352    0.416     C
H       0.2452   0.4416   0.1433     H
C       0.2483   0.2069   0.5976     C
C       0.2496   0.3756   0.1663     C
C       0.2497   0.9039    0.601     C
N       0.2616     0.18   0.2366     N
Cd     0.26684  0.00398   0.2862    Cd
Cl     0.26719  0.99585  0.79716    Cl
O      0.28819  0.86221    0.366     O
O      0.29469  0.14451   0.4496     O
C       0.2991   0.4013   0.2695     C
C       0.3027   0.3039   0.8028     C
C       0.3039   0.3027   0.3028     C
C       0.3064   0.8816   0.5303     C
H       0.3222   0.3372    0.873     H
C       0.3286   0.9562   0.7036     C
H       0.3372   0.3222    0.373     H
Cl     0.35298  0.55858   0.3602    Cl
C       0.3756   0.2496   0.6663     C
C       0.4013   0.2991   0.7695     C
C       0.4388   0.9098   0.5663     C
Cl     0.44142  0.64702   0.1398    Cl
H       0.4416   0.2452   0.6433     H
C       0.4604   0.9814   0.7342     C
H       0.4767   0.8949   0.5191     H
N       0.4852    0.042   0.3328     N
H       0.4875   0.9843    0.196     H
H       0.5125   0.0157    0.804     H
N       0.5148    0.958   0.6672     N
H       0.5233   0.1051   0.4809     H
C       0.5396   0.0186   0.2658     C
H       0.5584   0.7548   0.3567     H
Cl     0.55858  0.35298   0.8602    Cl
C       0.5612   0.0902   0.4337     C
C       0.5987   0.7009   0.2305     C
C       0.6244   0.7504   0.3337     C
Cl     0.64702  0.44142   0.6398    Cl
H       0.6628   0.6778    0.627     H
C       0.6714   0.0438   0.2964     C
H       0.6778   0.6628    0.127     H
C       0.6936   0.1184   0.4697     C
C       0.6961   0.6973   0.6972     C
C       0.6973   0.6961   0.1972     C
C       0.7009   0.5987   0.7305     C
O      0.70531  0.85549   0.5504     O
O      0.71181  0.13779    0.634     O
Cl     0.73281  0.00415  0.20284    Cl
Cd     0.73316  0.99602   0.7138    Cd
N       0.7384     0.82   0.7634     N
C       0.7503   0.0961    0.399     C
C       0.7504   0.6244   0.8337     C
C       0.7517   0.7931   0.4024     C
H       0.7548   0.5584   0.8567     H
C         0.77   0.1648    0.584     C
O       0.7744   0.1156   0.8808     O
C       0.7861   0.8461   0.8633     C
C       0.7925   0.8521   0.5177     C
C       0.7931   0.7517   0.9024     C
H       0.8164   0.9316   0.9094     H
N         0.82   0.7384   0.2634     N
C       0.8352     0.23    0.916     C
H        0.839   0.1162   0.4207     H
C       0.8461   0.7861   0.3633     C
C       0.8521   0.7925   0.0177     C
O      0.85549  0.70531   0.0504     O
O      0.86221  0.28819    0.866     O
C       0.8816   0.3064   0.0303     C
H       0.8838    0.161   0.0793     H
O       0.8844   0.2256   0.6192     O
O       0.8932    0.911   0.0706     O
H       0.8949   0.4767   0.0191     H
C       0.9039   0.2497    0.101     C
C       0.9098   0.4388   0.0663     C
O        0.911   0.8932   0.5706     O
H       0.9316   0.8164   0.4094     H
H       0.9486   0.0022   0.6931     H
O        0.949    0.051     0.75     O
C       0.9562   0.3286   0.2036     C
N        0.958   0.5148   0.1672     N
C       0.9814   0.4604   0.2342     C
H       0.9843   0.4875    0.696     H
Cl     0.99585  0.26719  0.29716    Cl
Cd     0.99602  0.73316   0.2138    Cd
H       0.9978   0.0514   0.8069     H
