data_I
_chemical_name_common  '/home/zhangsd/repos/MofS-CGCNN/ML/data/TSD/clean_cifs/NINVAI_clean'
_cell_length_a 18.83220
_cell_length_b 18.83220
_cell_length_c 18.83220
_cell_angle_alpha 60.00000
_cell_angle_beta  60.00000
_cell_angle_gamma 60.00000
_space_group_name_H-M_alt      'P 1'


loop_
_space_group_symop_operation_xyz
  'x, y, z' 

loop_
_atom_site_label
_atom_site_fract_x
_atom_site_fract_y
_atom_site_fract_z
_atom_site_type_symbol
Fe         0.0      0.0  0.42064    Fe
Fe         0.0      0.0  0.57936    Fe
Fe         0.0  0.42064      0.0    Fe
Fe         0.0  0.42064  0.57936    Fe
Fe         0.0  0.57936      0.0    Fe
Fe         0.0  0.57936  0.42064    Fe
O      0.02148  0.49542   0.6117     O
O      0.02148  0.49542   0.8714     O
O      0.02148   0.6117  0.49542     O
O      0.02148   0.6117   0.8714     O
O      0.02148   0.8714  0.49542     O
O      0.02148   0.8714   0.6117     O
C       0.0265   0.5693   0.5693     C
C       0.0265   0.5693   0.8349     C
C       0.0265   0.8349   0.5693     C
C      0.03102   0.6137   0.6137     C
C      0.03102   0.6137  0.74158     C
C      0.03102  0.74158   0.6137     C
C      0.03134  0.57126   0.6987     C
C      0.03134   0.6987  0.57126     C
C      0.03134   0.6987   0.6987     C
H         0.04    0.496    0.732     H
H         0.04    0.732    0.496     H
H         0.04    0.732    0.732     H
O       0.1286   0.3883  0.50458     O
O       0.1286   0.3883  0.97852     O
O       0.1286  0.50458   0.3883     O
O       0.1286  0.50458  0.97852     O
O       0.1286  0.97852   0.3883     O
O       0.1286  0.97852  0.50458     O
C       0.1651   0.4307   0.4307     C
C       0.1651   0.4307   0.9735     C
C       0.1651   0.9735   0.4307     C
C      0.25842   0.3863   0.3863     C
C      0.25842   0.3863  0.96898     C
C      0.25842  0.96898   0.3863     C
H        0.268    0.268    0.504     H
H        0.268    0.268     0.96     H
H        0.268    0.504    0.268     H
H        0.268    0.504     0.96     H
H        0.268     0.96    0.268     H
H        0.268     0.96    0.504     H
C       0.3013   0.3013  0.42874     C
C       0.3013   0.3013  0.96866     C
C       0.3013  0.42874   0.3013     C
C       0.3013  0.42874  0.96866     C
C       0.3013  0.96866   0.3013     C
C       0.3013  0.96866  0.42874     C
C       0.3863  0.25842   0.3863     C
C       0.3863  0.25842  0.96898     C
C       0.3863   0.3863  0.25842     C
C       0.3863   0.3863  0.96898     C
C       0.3863  0.96898  0.25842     C
C       0.3863  0.96898   0.3863     C
O       0.3883   0.1286  0.50458     O
O       0.3883   0.1286  0.97852     O
O       0.3883  0.50458   0.1286     O
O       0.3883  0.50458  0.97852     O
O       0.3883  0.97852   0.1286     O
O       0.3883  0.97852  0.50458     O
Fe     0.42064      0.0      0.0    Fe
Fe     0.42064      0.0  0.57936    Fe
Fe     0.42064  0.57936      0.0    Fe
C      0.42874   0.3013   0.3013     C
C      0.42874   0.3013  0.96866     C
C      0.42874  0.96866   0.3013     C
C       0.4307   0.1651   0.4307     C
C       0.4307   0.1651   0.9735     C
C       0.4307   0.4307   0.1651     C
C       0.4307   0.4307   0.9735     C
C       0.4307   0.9735   0.1651     C
C       0.4307   0.9735   0.4307     C
O      0.49542  0.02148   0.6117     O
O      0.49542  0.02148   0.8714     O
O      0.49542   0.6117  0.02148     O
O      0.49542   0.6117   0.8714     O
O      0.49542   0.8714  0.02148     O
O      0.49542   0.8714   0.6117     O
H        0.496     0.04    0.732     H
H        0.496    0.732     0.04     H
H        0.496    0.732    0.732     H
H        0.504    0.268    0.268     H
H        0.504    0.268     0.96     H
H        0.504     0.96    0.268     H
O      0.50458   0.1286   0.3883     O
O      0.50458   0.1286  0.97852     O
O      0.50458   0.3883   0.1286     O
O      0.50458   0.3883  0.97852     O
O      0.50458  0.97852   0.1286     O
O      0.50458  0.97852   0.3883     O
C       0.5693   0.0265   0.5693     C
C       0.5693   0.0265   0.8349     C
C       0.5693   0.5693   0.0265     C
C       0.5693   0.5693   0.8349     C
C       0.5693   0.8349   0.0265     C
C       0.5693   0.8349   0.5693     C
C      0.57126  0.03134   0.6987     C
C      0.57126   0.6987  0.03134     C
C      0.57126   0.6987   0.6987     C
Fe     0.57936      0.0      0.0    Fe
Fe     0.57936      0.0  0.42064    Fe
Fe     0.57936  0.42064      0.0    Fe
O       0.6117  0.02148  0.49542     O
O       0.6117  0.02148   0.8714     O
O       0.6117  0.49542  0.02148     O
O       0.6117  0.49542   0.8714     O
O       0.6117   0.8714  0.02148     O
O       0.6117   0.8714  0.49542     O
C       0.6137  0.03102   0.6137     C
C       0.6137  0.03102  0.74158     C
C       0.6137   0.6137  0.03102     C
C       0.6137   0.6137  0.74158     C
C       0.6137  0.74158  0.03102     C
C       0.6137  0.74158   0.6137     C
C       0.6987  0.03134  0.57126     C
C       0.6987  0.03134   0.6987     C
C       0.6987  0.57126  0.03134     C
C       0.6987  0.57126   0.6987     C
C       0.6987   0.6987  0.03134     C
C       0.6987   0.6987  0.57126     C
H        0.732     0.04    0.496     H
H        0.732     0.04    0.732     H
H        0.732    0.496     0.04     H
H        0.732    0.496    0.732     H
H        0.732    0.732     0.04     H
H        0.732    0.732    0.496     H
C      0.74158  0.03102   0.6137     C
C      0.74158   0.6137  0.03102     C
C      0.74158   0.6137   0.6137     C
C       0.8349   0.0265   0.5693     C
C       0.8349   0.5693   0.0265     C
C       0.8349   0.5693   0.5693     C
O       0.8714  0.02148  0.49542     O
O       0.8714  0.02148   0.6117     O
O       0.8714  0.49542  0.02148     O
O       0.8714  0.49542   0.6117     O
O       0.8714   0.6117  0.02148     O
O       0.8714   0.6117  0.49542     O
H         0.96    0.268    0.268     H
H         0.96    0.268    0.504     H
H         0.96    0.504    0.268     H
C      0.96866   0.3013   0.3013     C
C      0.96866   0.3013  0.42874     C
C      0.96866  0.42874   0.3013     C
C      0.96898  0.25842   0.3863     C
C      0.96898   0.3863  0.25842     C
C      0.96898   0.3863   0.3863     C
C       0.9735   0.1651   0.4307     C
C       0.9735   0.4307   0.1651     C
C       0.9735   0.4307   0.4307     C
O      0.97852   0.1286   0.3883     O
O      0.97852   0.1286  0.50458     O
O      0.97852   0.3883   0.1286     O
O      0.97852   0.3883  0.50458     O
O      0.97852  0.50458   0.1286     O
O      0.97852  0.50458   0.3883     O
