data_I
_chemical_name_common  '/home/zhangsd/repos/MofS-CGCNN/ML/data/TSD/clean_cifs/NIRDAT_clean'
_cell_length_a 10.04300
_cell_length_b 10.04300
_cell_length_c 13.82800
_cell_angle_alpha 90.00000
_cell_angle_beta  90.00000
_cell_angle_gamma 90.00000
_space_group_name_H-M_alt      'P 1'


loop_
_space_group_symop_operation_xyz
  'x, y, z' 

loop_
_atom_site_label
_atom_site_fract_x
_atom_site_fract_y
_atom_site_fract_z
_atom_site_type_symbol
Ga         0.0      0.0      0.0    Ga
Ga         0.0      0.5      0.5    Ga
O       0.0033   0.0033   0.2445     O
O       0.0033   0.4967   0.7445     O
O       0.0107   0.6636   0.4239     O
O       0.0107   0.8364   0.9239     O
O       0.0601   0.2366    0.757     O
O       0.0601   0.2634    0.257     O
P       0.0976   0.0976   0.7917     P
P       0.0976   0.4024   0.2917     P
O       0.0999   0.0999   0.9043     O
O       0.0999   0.4001   0.4043     O
Ga      0.1236   0.1236  0.17792    Ga
Ga      0.1236   0.3764  0.67792    Ga
O       0.1636   0.5107   0.5761     O
O       0.1636   0.9893   0.0761     O
O       0.2366   0.0601    0.757     O
O       0.2366   0.4399    0.257     O
F         0.25     0.25   0.1128     F
F         0.25     0.25   0.6128     F
O       0.2634   0.0601    0.257     O
O       0.2634   0.4399    0.757     O
O       0.3364   0.5107   0.0761     O
O       0.3364   0.9893   0.5761     O
Ga      0.3764   0.1236  0.67792    Ga
Ga      0.3764   0.3764  0.17792    Ga
O       0.4001   0.0999   0.4043     O
O       0.4001   0.4001   0.9043     O
P       0.4024   0.0976   0.2917     P
P       0.4024   0.4024   0.7917     P
O       0.4399   0.2366    0.257     O
O       0.4399   0.2634    0.757     O
O       0.4893   0.6636   0.9239     O
O       0.4893   0.8364   0.4239     O
O       0.4967   0.0033   0.7445     O
O       0.4967   0.4967   0.2445     O
Ga         0.5      0.0      0.5    Ga
Ga         0.5      0.5      0.0    Ga
O       0.5033   0.5033   0.7555     O
O       0.5033   0.9967   0.2555     O
O       0.5107   0.1636   0.5761     O
O       0.5107   0.3364   0.0761     O
O       0.5601   0.7366    0.243     O
O       0.5601   0.7634    0.743     O
P       0.5976   0.5976   0.2083     P
P       0.5976   0.9024   0.7083     P
O       0.5999   0.5999   0.0957     O
O       0.5999   0.9001   0.5957     O
Ga      0.6236   0.6236  0.82208    Ga
Ga      0.6236   0.8764  0.32208    Ga
O       0.6636   0.0107   0.4239     O
O       0.6636   0.4893   0.9239     O
O       0.7366   0.5601    0.243     O
O       0.7366   0.9399    0.743     O
F         0.75     0.75   0.3872     F
F         0.75     0.75   0.8872     F
O       0.7634   0.5601    0.743     O
O       0.7634   0.9399    0.243     O
O       0.8364   0.0107   0.9239     O
O       0.8364   0.4893   0.4239     O
Ga      0.8764   0.6236  0.32208    Ga
Ga      0.8764   0.8764  0.82208    Ga
O       0.9001   0.5999   0.5957     O
O       0.9001   0.9001   0.0957     O
P       0.9024   0.5976   0.7083     P
P       0.9024   0.9024   0.2083     P
O       0.9399   0.7366    0.743     O
O       0.9399   0.7634    0.243     O
O       0.9893   0.1636   0.0761     O
O       0.9893   0.3364   0.5761     O
O       0.9967   0.5033   0.2555     O
O       0.9967   0.9967   0.7555     O
