data_I
_chemical_name_common  '/home/zhangsd/repos/MofS-CGCNN/ML/data/TSD/clean_cifs/NIWZIE16_clean'
_cell_length_a  7.27740
_cell_length_b  7.27740
_cell_length_c  8.20940
_cell_angle_alpha 90.00000
_cell_angle_beta  90.00000
_cell_angle_gamma 120.00000
_space_group_name_H-M_alt      'P 1'


loop_
_space_group_symop_operation_xyz
  'x, y, z' 

loop_
_atom_site_label
_atom_site_fract_x
_atom_site_fract_y
_atom_site_fract_z
_atom_site_type_symbol
H          0.0   0.4327      0.5     H
C          0.0   0.4395      0.0     C
C          0.0   0.5605      0.5     C
H          0.0   0.5673      0.0     H
O      0.10934  0.41967  0.10587     O
O      0.10934  0.68967  0.39413     O
O      0.31033  0.41967  0.39413     O
O      0.31033  0.89066  0.10587     O
Mg     0.33333  0.66667     0.25    Mg
O      0.41967  0.10934  0.89413     O
O      0.41967  0.31033  0.60587     O
H       0.4327      0.0      0.5     H
H       0.4327   0.4327      0.0     H
C       0.4395      0.0      0.0     C
C       0.4395   0.4395      0.5     C
C       0.5605      0.0      0.5     C
C       0.5605   0.5605      0.0     C
H       0.5673      0.0      0.0     H
H       0.5673   0.5673      0.5     H
O      0.58033  0.68967  0.10587     O
O      0.58033  0.89066  0.39413     O
Mg     0.66667  0.33333     0.75    Mg
O      0.68967  0.10934  0.60587     O
O      0.68967  0.58033  0.89413     O
O      0.89066  0.31033  0.89413     O
O      0.89066  0.58033  0.60587     O
