data_I
_chemical_name_common  '/home/zhangsd/repos/MofS-CGCNN/ML/data/TSD/clean_cifs/NIWZIE17_clean'
_cell_length_a  7.28350
_cell_length_b  7.28350
_cell_length_c  8.21720
_cell_angle_alpha 90.00000
_cell_angle_beta  90.00000
_cell_angle_gamma 120.00000
_space_group_name_H-M_alt      'P 1'


loop_
_space_group_symop_operation_xyz
  'x, y, z' 

loop_
_atom_site_label
_atom_site_fract_x
_atom_site_fract_y
_atom_site_fract_z
_atom_site_type_symbol
H          0.0   0.4333      0.5     H
C          0.0    0.439      0.0     C
C          0.0    0.561      0.5     C
H          0.0   0.5667      0.0     H
O      0.10929  0.41977  0.10575     O
O      0.10929  0.68952  0.39425     O
O      0.31048  0.41977  0.39425     O
O      0.31048  0.89071  0.10575     O
Mg     0.33333  0.66667     0.25    Mg
O      0.41977  0.10929  0.89425     O
O      0.41977  0.31048  0.60575     O
H       0.4333      0.0      0.5     H
H       0.4333   0.4333      0.0     H
C        0.439      0.0      0.0     C
C        0.439    0.439      0.5     C
C        0.561      0.0      0.5     C
C        0.561    0.561      0.0     C
H       0.5667      0.0      0.0     H
H       0.5667   0.5667      0.5     H
O      0.58023  0.68952  0.10575     O
O      0.58023  0.89071  0.39425     O
Mg     0.66667  0.33333     0.75    Mg
O      0.68952  0.10929  0.60575     O
O      0.68952  0.58023  0.89425     O
O      0.89071  0.31048  0.89425     O
O      0.89071  0.58023  0.60575     O
