data_I
_chemical_name_common  '/home/zhangsd/repos/MofS-CGCNN/ML/data/TSD/clean_cifs/NIWZIE09_clean'
_cell_length_a 12.56930
_cell_length_b 12.56930
_cell_length_c  8.22160
_cell_angle_alpha 90.00000
_cell_angle_beta  90.00000
_cell_angle_gamma 120.00000
_space_group_name_H-M_alt      'P 1'


loop_
_space_group_symop_operation_xyz
  'x, y, z' 

loop_
_atom_site_label
_atom_site_fract_x
_atom_site_fract_y
_atom_site_fract_z
_atom_site_type_symbol
Mg     0.00201  0.33431  0.08747    Mg
C      0.03959  0.52355   0.3299     C
H       0.0463   0.5144   0.8215     H
O      0.06453  0.82394  0.44463     O
O      0.06923  0.24535  0.23241     O
O      0.08875  0.59972  0.44095     O
O      0.09201  0.49234  0.22888     O
H       0.1403   0.2868   0.8298     H
C      0.14338  0.29332   0.3466     C
H       0.1465   0.8597   0.8298     H
C      0.14994  0.85662   0.3466     C
O      0.15567  0.73147  0.72998     O
O      0.15879  0.42331  0.94207     O
O      0.17606  0.24059  0.44463     O
O      0.17612  0.93077  0.23241     O
H       0.1782   0.3786   0.3596     H
C      0.18642  0.37303   0.8339     C
C      0.18661  0.81358   0.8339     C
H       0.2004   0.8218   0.3596     H
O      0.24059  0.06453  0.94463     O
O      0.24535  0.17612  0.73241     O
O      0.26452  0.84121  0.94207     O
O      0.26853   0.4242  0.72998     O
H       0.2868   0.1465   0.3298     H
C      0.29332  0.14994   0.8466     C
Mg      0.3323  0.99799  0.08747    Mg
Mg     0.33431   0.3323  0.58747    Mg
C      0.37303  0.18661   0.3339     C
H       0.3786   0.2004   0.8596     H
O      0.40028  0.48903  0.44095     O
O      0.40033  0.90799  0.22888     O
O      0.42331  0.26452  0.44207     O
O       0.4242  0.15567  0.22998     O
H       0.4681   0.9537   0.8215     H
C      0.47645  0.51604   0.3299     C
C      0.48396  0.96041   0.3299     C
H       0.4856   0.5319   0.8215     H
O      0.48903  0.08875  0.94095     O
O      0.49234  0.40033  0.72888     O
O      0.50766  0.59967  0.22888     O
O      0.51097  0.91125  0.44095     O
H       0.5144   0.4681   0.3215     H
C      0.51604  0.03959   0.8299     C
C      0.52355  0.48396   0.8299     C
H       0.5319   0.0463   0.3215     H
O       0.5758  0.84433  0.72998     O
O      0.57669  0.73548  0.94207     O
O      0.59967  0.09201  0.72888     O
O      0.59972  0.51097  0.94095     O
H       0.6214   0.7996   0.3596     H
C      0.62697  0.81339   0.8339     C
Mg     0.66569   0.6677  0.08747    Mg
Mg      0.6677  0.00201  0.58747    Mg
C      0.70668  0.85006   0.3466     C
H       0.7132   0.8535   0.8298     H
O      0.73147   0.5758  0.22998     O
O      0.73548  0.15879  0.44207     O
O      0.75465  0.82388  0.23241     O
O      0.75941  0.93547  0.44463     O
H       0.7996   0.1782   0.8596     H
C      0.81339  0.18642   0.3339     C
C      0.81358  0.62697   0.3339     C
H       0.8218   0.6214   0.8596     H
O      0.82388  0.06923  0.73241     O
O      0.82394  0.75941  0.94463     O
O      0.84121  0.57669  0.44207     O
O      0.84433  0.26853  0.22998     O
C      0.85006  0.14338   0.8466     C
H       0.8535   0.1403   0.3298     H
C      0.85662  0.70668   0.8466     C
H       0.8597   0.7132   0.3298     H
O      0.90799  0.50766  0.72888     O
O      0.91125  0.40028  0.94095     O
O      0.93077  0.75465  0.73241     O
O      0.93547  0.17606  0.94463     O
H       0.9537   0.4856   0.3215     H
C      0.96041  0.47645   0.8299     C
Mg     0.99799  0.66569  0.58747    Mg
