data_I
_chemical_name_common  '/home/zhangsd/repos/MofS-CGCNN/ML/data/TSD/clean_cifs/NIYZIG_clean'
_cell_length_a 13.71000
_cell_length_b 14.75300
_cell_length_c 20.02700
_cell_angle_alpha 90.00000
_cell_angle_beta  107.96900
_cell_angle_gamma 90.00000
_space_group_name_H-M_alt      'P 1'


loop_
_space_group_symop_operation_xyz
  'x, y, z' 

loop_
_atom_site_label
_atom_site_fract_x
_atom_site_fract_y
_atom_site_fract_z
_atom_site_type_symbol
C       0.0019    0.056  0.42765     C
C       0.0019    0.444  0.92765     C
H       0.0259   0.1003   0.4618     H
H       0.0259   0.3997   0.9618     H
C       0.0341    0.566   0.8606     C
C       0.0341    0.934   0.3606     C
C       0.0702    0.074   0.6742     C
C       0.0702    0.426   0.1742     C
C        0.071   0.5015  0.91064     C
C        0.071   0.9985  0.41064     C
H       0.0796   0.6055   0.8494     H
H       0.0796   0.8945   0.3494     H
H       0.0937   0.1179   0.7087     H
H       0.0937   0.3821   0.2087     H
C       0.1014   0.5478   0.1055     C
C       0.1014   0.9522   0.6055     C
C       0.1396  0.01653  0.65746     C
C       0.1396  0.48347  0.15746     C
H       0.1467   0.5862    0.093     H
H       0.1467   0.9138    0.593     H
C       0.1854   0.0076  0.44694     C
C       0.1854   0.4924  0.94694     C
H       0.1908   0.6208   0.2594     H
H       0.1908   0.8792   0.7594     H
O      0.21072  0.06765   0.4937     O
O      0.21072  0.43235   0.9937     O
O      0.24359  0.54418  0.92823     O
O      0.24359  0.95582  0.42823     O
H       0.2602   0.7448   0.3268     H
H       0.2602   0.7552   0.8268     H
C       0.2607   0.6322   0.2706     C
C       0.2607   0.8678   0.7706     C
H       0.2667   0.0534   0.8372     H
H       0.2667   0.4466   0.3372     H
P      0.27574  0.02659    0.696     P
P      0.27574  0.47341    0.196     P
C       0.2874   0.1087  0.82388     C
C       0.2874   0.3913  0.32388     C
C      0.29884  0.11841  0.75843     C
C      0.29884  0.38159  0.25843     C
H       0.2994   0.1746   0.9145     H
H       0.2994   0.3254   0.4145     H
C       0.3025   0.7065   0.3112     C
C       0.3025   0.7935   0.8112     C
C       0.3069   0.1816  0.87016     C
C       0.3069   0.3184  0.37016     C
C       0.3216  0.57458  0.24637     C
C       0.3216  0.92542  0.74637     C
C       0.3278      0.2  0.73901     C
C       0.3278      0.3  0.23901     C
O      0.32999  0.04079   0.6429     O
O      0.32999  0.45921   0.1429     O
H       0.3348   0.2073   0.6946     H
H       0.3348   0.2927   0.1946     H
C       0.3371   0.2367   0.3512     C
C       0.3371   0.2633   0.8512     C
C       0.3469   0.2274  0.28563     C
C       0.3469   0.2726  0.78563     C
Zn     0.35162  0.09889  0.55285    Zn
Zn     0.35162  0.40111  0.05285    Zn
C       0.3595   0.1573  0.40105     C
C       0.3595   0.3427  0.90105     C
O      0.36358  0.08086  0.37464     O
O      0.36358  0.41914  0.87464     O
H       0.3667   0.1719    0.272     H
H       0.3667   0.3281    0.772     H
O       0.3716  0.17218  0.46403     O
O       0.3716  0.32782  0.96403     O
O      0.39282  0.64328  0.89126     O
O      0.39282  0.85672  0.39126     O
Zn     0.40155   0.5252  0.93787    Zn
Zn     0.40155   0.9748  0.43787    Zn
C       0.4061  0.72473  0.32903     C
C       0.4061  0.77527  0.82903     C
C       0.4256   0.5911   0.2655     C
C       0.4256   0.9089   0.7655     C
H        0.433   0.5513    0.065     H
H        0.433   0.9487    0.565     H
O      0.43996  0.50525  0.04142     O
O      0.43996  0.99475  0.54142     O
O      0.45182  0.18585  0.61301     O
O      0.45182  0.31415  0.11301     O
C       0.4531   0.6949  0.87291     C
C       0.4531   0.8051  0.37291     C
H       0.4617   0.1755   0.1819     H
H       0.4617   0.3245   0.6819     H
H       0.4678   0.5517   0.2507     H
H       0.4678   0.9483   0.7507     H
C       0.4681   0.6652    0.306     C
C       0.4681   0.8348    0.806     C
C       0.5319   0.1652    0.194     C
C       0.5319   0.3348    0.694     C
H       0.5322   0.0517   0.2493     H
H       0.5322   0.4483   0.7493     H
H       0.5383   0.6755   0.3181     H
H       0.5383   0.8245   0.8181     H
C       0.5469   0.1949  0.62709     C
C       0.5469   0.3051  0.12709     C
O      0.54818  0.68585  0.88699     O
O      0.54818  0.81415  0.38699     O
O      0.56004  0.00525  0.45858     O
O      0.56004  0.49475  0.95858     O
H        0.567   0.0513    0.435     H
H        0.567   0.4487    0.935     H
C       0.5744   0.0911   0.2345     C
C       0.5744   0.4089   0.7345     C
C       0.5939  0.22473  0.17097     C
C       0.5939  0.27527  0.67097     C
Zn     0.59845   0.0252  0.56213    Zn
Zn     0.59845   0.4748  0.06213    Zn
O      0.60718  0.14328  0.60874     O
O      0.60718  0.35672  0.10874     O
O       0.6284  0.67218  0.03597     O
O       0.6284  0.82782  0.53597     O
H       0.6333   0.6719    0.228     H
H       0.6333   0.8281    0.728     H
O      0.63642  0.58086  0.12536     O
O      0.63642  0.91914  0.62536     O
C       0.6405   0.6573  0.09895     C
C       0.6405   0.8427  0.59895     C
Zn     0.64838  0.59889  0.94715    Zn
Zn     0.64838  0.90111  0.44715    Zn
C       0.6531   0.7274  0.21437     C
C       0.6531   0.7726  0.71437     C
C       0.6629   0.7367   0.1488     C
C       0.6629   0.7633   0.6488     C
H       0.6652   0.7073   0.8054     H
H       0.6652   0.7927   0.3054     H
O      0.67001  0.54079   0.8571     O
O      0.67001  0.95921   0.3571     O
C       0.6722      0.7  0.76099     C
C       0.6722      0.8  0.26099     C
C       0.6784  0.07458  0.25363     C
C       0.6784  0.42542  0.75363     C
C       0.6931   0.6816  0.62984     C
C       0.6931   0.8184  0.12984     C
C       0.6975   0.2065   0.1888     C
C       0.6975   0.2935   0.6888     C
H       0.7006   0.6746   0.5855     H
H       0.7006   0.8254   0.0855     H
C      0.70116  0.61841  0.74157     C
C      0.70116  0.88159  0.24157     C
C       0.7126   0.6087  0.67612     C
C       0.7126   0.8913  0.17612     C
P      0.72426  0.52659    0.804     P
P      0.72426  0.97341    0.304     P
H       0.7333   0.5534   0.6628     H
H       0.7333   0.9466   0.1628     H
C       0.7393   0.1322   0.2294     C
C       0.7393   0.3678   0.7294     C
H       0.7398   0.2448   0.1732     H
H       0.7398   0.2552   0.6732     H
O      0.75641  0.04418  0.57177     O
O      0.75641  0.45582  0.07177     O
O      0.78928  0.56765   0.0063     O
O      0.78928  0.93235   0.5063     O
H       0.8092   0.1208   0.2406     H
H       0.8092   0.3792   0.7406     H
C       0.8146   0.5076  0.05306     C
C       0.8146   0.9924  0.55306     C
H       0.8533   0.0862    0.407     H
H       0.8533   0.4138    0.907     H
C       0.8604  0.51653  0.84254     C
C       0.8604  0.98347  0.34254     C
C       0.8986   0.0478   0.3945     C
C       0.8986   0.4522   0.8945     C
H       0.9063   0.6179   0.7913     H
H       0.9063   0.8821   0.2913     H
H       0.9204   0.1055   0.6506     H
H       0.9204   0.3945   0.1506     H
C        0.929   0.0015  0.58936     C
C        0.929   0.4985  0.08936     C
C       0.9298    0.574   0.8258     C
C       0.9298    0.926   0.3258     C
C       0.9659    0.066   0.6394     C
C       0.9659    0.434   0.1394     C
H       0.9741   0.6003   0.0382     H
H       0.9741   0.8997   0.5382     H
C       0.9981    0.556  0.07235     C
C       0.9981    0.944  0.57235     C
