data_I
_chemical_name_common  '/home/zhangsd/repos/MofS-CGCNN/ML/data/TSD/clean_cifs/NOBVOR_clean'
_cell_length_a 11.45270
_cell_length_b 11.62390
_cell_length_c 11.77540
_cell_angle_alpha 64.82500
_cell_angle_beta  81.40600
_cell_angle_gamma 72.31600
_space_group_name_H-M_alt      'P 1'


loop_
_space_group_symop_operation_xyz
  'x, y, z' 

loop_
_atom_site_label
_atom_site_fract_x
_atom_site_fract_y
_atom_site_fract_z
_atom_site_type_symbol
Co         0.0      0.0      0.0    Co
Co         0.0      0.0      0.5    Co
Co         0.0      0.5      0.5    Co
N       0.0044   0.6751   0.3477     N
N         0.01   0.8461   0.1756     N
C       0.0192   0.1107   0.7302     C
C       0.0209   0.2202   0.6203     C
N       0.0241   0.7158   0.2251     N
C       0.0386   0.9674   0.7677     C
O       0.0446   0.3656    0.414     O
O       0.0462   0.9221   0.6871     O
C       0.0489   0.2479   0.4858     C
O        0.049   0.8961   0.8834     O
O       0.0794   0.1549   0.4491     O
H       0.1589   0.1806   0.9867     H
H       0.1684   0.7247    0.629     H
N       0.1733   0.8765   0.4718     N
N       0.1891   0.9971   0.0095     N
N       0.1965   0.4553   0.5212     N
H       0.2042   0.3734   0.7047     H
C       0.2197   0.7577   0.5613     C
H       0.2212   0.0008   0.3088     H
C       0.2212   0.1046    0.995     C
H       0.2331   0.5271   0.3402     H
C       0.2499   0.9192   0.3742     C
C       0.2516   0.3845   0.6313     C
H       0.2626   0.8126   0.0388     H
C       0.2691   0.4741   0.4179     C
C       0.2815   0.8901   0.0246     C
C        0.336   0.1093   0.9917     C
C       0.3361   0.6812    0.561     C
H       0.3509   0.1873    0.982     H
H       0.3616   0.5981   0.6255     H
C        0.369   0.8472   0.3671     C
C       0.3751   0.3275   0.6403     C
C        0.393   0.4197   0.4208     C
C       0.4014   0.8866   0.0207     C
H       0.4094   0.2777   0.7192     H
C       0.4163   0.7287   0.4631     C
H       0.4176   0.8794   0.2965     H
C       0.4358   0.9989   0.0024     C
H       0.4384   0.4351   0.3459     H
C       0.4511   0.3429   0.5324     C
H       0.4614   0.8086   0.0302     H
H       0.5386   0.1914   0.9698     H
C       0.5489   0.6571   0.4676     C
H       0.5616   0.5649   0.6541     H
C       0.5642   0.0011   0.9976     C
H       0.5824   0.1206   0.7035     H
C       0.5837   0.2713   0.5369     C
H       0.5906   0.7223   0.2808     H
C       0.5986   0.1134   0.9793     C
C        0.607   0.5803   0.5792     C
C       0.6249   0.6725   0.3597     C
C        0.631   0.1528   0.6329     C
H       0.6384   0.4019   0.3745     H
H       0.6491   0.8127    0.018     H
C       0.6639   0.3188    0.439     C
C        0.664   0.8907   0.0083     C
C       0.7185   0.1099   0.9754     C
C       0.7309   0.5259   0.5821     C
H       0.7374   0.1874   0.9612     H
C       0.7484   0.6155   0.3687     C
C       0.7501   0.0808   0.6258     C
H       0.7669   0.4729   0.6598     H
C       0.7788   0.8954    0.005     C
H       0.7788   0.9992   0.6912     H
C       0.7803   0.2423   0.4387     C
H       0.7958   0.6266   0.2953     H
N       0.8035   0.5447   0.4788     N
N       0.8109   0.0029   0.9905     N
N       0.8267   0.1235   0.5282     N
H       0.8316   0.2753    0.371     H
H       0.8411   0.8194   0.0133     H
O       0.9206   0.8451   0.5509     O
O        0.951   0.1039   0.1166     O
C       0.9511   0.7521   0.5142     C
O       0.9538   0.0779   0.3129     O
O       0.9554   0.6344    0.586     O
C       0.9614   0.0326   0.2323     C
N       0.9759   0.2842   0.7749     N
C       0.9791   0.7798   0.3797     C
C       0.9808   0.8893   0.2698     C
N         0.99   0.1539   0.8244     N
N       0.9956   0.3249   0.6523     N
