data_I
_chemical_name_common  '/home/zhangsd/repos/MofS-CGCNN/ML/data/TSD/clean_cifs/NOFQIK_clean'
_cell_length_a 17.04050
_cell_length_b 13.62950
_cell_length_c  7.46170
_cell_angle_alpha 90.00000
_cell_angle_beta  90.00000
_cell_angle_gamma 90.00000
_space_group_name_H-M_alt      'P 1'


loop_
_space_group_symop_operation_xyz
  'x, y, z' 

loop_
_atom_site_label
_atom_site_fract_x
_atom_site_fract_y
_atom_site_fract_z
_atom_site_type_symbol
C       0.0001   0.6497    0.244     C
C       0.0001   0.8503    0.744     C
H       0.0059    0.105   0.6452     H
H       0.0059    0.395   0.1452     H
H       0.0197    0.213   0.7102     H
H       0.0197    0.287   0.2102     H
C       0.0332   0.0359    0.014     C
C       0.0332   0.4641    0.514     C
C       0.0441   0.1126    0.901     C
C       0.0441   0.3874    0.401     C
H       0.0547    0.655    0.274     H
H       0.0547    0.845    0.774     H
H       0.0626   0.5513   0.8367     H
H       0.0626   0.9487   0.3367     H
C       0.0965   0.0368     0.14     C
C       0.0965   0.4632     0.64     C
N       0.1114   0.1561    0.953     N
N       0.1114   0.3439    0.453     N
C       0.1115    0.531    0.784     C
C       0.1115    0.969    0.284     C
H       0.1316   0.2058   0.8993     H
H       0.1316   0.2942   0.3993     H
H       0.1388   0.5874   0.7389     H
H       0.1388   0.9126   0.2389     H
H       0.1431   0.0005    0.374     H
H       0.1431   0.4995    0.874     H
N       0.1437   0.1137   0.0987     N
N       0.1437   0.3863   0.5987     N
Cu        0.25   0.1483   0.1853    Cu
I         0.25  0.15656   0.5465     I
I         0.25  0.34344   0.0465     I
Cu        0.25   0.3517   0.6853    Cu
N       0.3563   0.1137   0.0987     N
N       0.3563   0.3863   0.5987     N
H       0.3569   0.0005    0.374     H
H       0.3569   0.4995    0.874     H
H       0.3612   0.5874   0.7389     H
H       0.3612   0.9126   0.2389     H
H       0.3684   0.2058   0.8993     H
H       0.3684   0.2942   0.3993     H
C       0.3885    0.531    0.784     C
C       0.3885    0.969    0.284     C
N       0.3886   0.1561    0.953     N
N       0.3886   0.3439    0.453     N
C       0.4035   0.0368     0.14     C
C       0.4035   0.4632     0.64     C
H       0.4374   0.5513   0.8367     H
H       0.4374   0.9487   0.3367     H
H       0.4453    0.655    0.274     H
H       0.4453    0.845    0.774     H
C       0.4559   0.1126    0.901     C
C       0.4559   0.3874    0.401     C
C       0.4668   0.0359    0.014     C
C       0.4668   0.4641    0.514     C
H       0.4803    0.213   0.7102     H
H       0.4803    0.287   0.2102     H
H       0.4941    0.105   0.6452     H
H       0.4941    0.395   0.1452     H
C       0.4999   0.6497    0.244     C
C       0.4999   0.8503    0.744     C
C       0.5001   0.1497    0.744     C
C       0.5001   0.3503    0.244     C
H       0.5059    0.605   0.1452     H
H       0.5059    0.895   0.6452     H
H       0.5197    0.713   0.2102     H
H       0.5197    0.787   0.7102     H
C       0.5332   0.5359    0.514     C
C       0.5332   0.9641    0.014     C
C       0.5441   0.6126    0.401     C
C       0.5441   0.8874    0.901     C
H       0.5547    0.155    0.774     H
H       0.5547    0.345    0.274     H
H       0.5626   0.0513   0.3367     H
H       0.5626   0.4487   0.8367     H
C       0.5965   0.5368     0.64     C
C       0.5965   0.9632     0.14     C
N       0.6114   0.6561    0.453     N
N       0.6114   0.8439    0.953     N
C       0.6115    0.031    0.284     C
C       0.6115    0.469    0.784     C
H       0.6316   0.7058   0.3993     H
H       0.6316   0.7942   0.8993     H
H       0.6388   0.0874   0.2389     H
H       0.6388   0.4126   0.7389     H
H       0.6431   0.5005    0.874     H
H       0.6431   0.9995    0.374     H
N       0.6437   0.6137   0.5987     N
N       0.6437   0.8863   0.0987     N
Cu        0.75   0.6483   0.6853    Cu
I         0.75  0.65656   0.0465     I
I         0.75  0.84344   0.5465     I
Cu        0.75   0.8517   0.1853    Cu
N       0.8563   0.6137   0.5987     N
N       0.8563   0.8863   0.0987     N
H       0.8569   0.5005    0.874     H
H       0.8569   0.9995    0.374     H
H       0.8612   0.0874   0.2389     H
H       0.8612   0.4126   0.7389     H
H       0.8684   0.7058   0.3993     H
H       0.8684   0.7942   0.8993     H
C       0.8885    0.031    0.284     C
C       0.8885    0.469    0.784     C
N       0.8886   0.6561    0.453     N
N       0.8886   0.8439    0.953     N
C       0.9035   0.5368     0.64     C
C       0.9035   0.9632     0.14     C
H       0.9374   0.0513   0.3367     H
H       0.9374   0.4487   0.8367     H
H       0.9453    0.155    0.774     H
H       0.9453    0.345    0.274     H
C       0.9559   0.6126    0.401     C
C       0.9559   0.8874    0.901     C
C       0.9668   0.5359    0.514     C
C       0.9668   0.9641    0.014     C
H       0.9803    0.713   0.2102     H
H       0.9803    0.787   0.7102     H
H       0.9941    0.605   0.1452     H
H       0.9941    0.895   0.6452     H
C       0.9999   0.1497    0.744     C
C       0.9999   0.3503    0.244     C
