data_I
_chemical_name_common  '/home/zhangsd/repos/MofS-CGCNN/ML/data/TSD/clean_cifs/NOHKOM_clean'
_cell_length_a 15.25100
_cell_length_b  6.69900
_cell_length_c 14.38200
_cell_angle_alpha 90.00000
_cell_angle_beta  90.00000
_cell_angle_gamma 90.00000
_space_group_name_H-M_alt      'P 1'


loop_
_space_group_symop_operation_xyz
  'x, y, z' 

loop_
_atom_site_label
_atom_site_fract_x
_atom_site_fract_y
_atom_site_fract_z
_atom_site_type_symbol
C       0.0036     0.25   0.4927     C
O       0.0194     0.75   0.8299     O
C       0.0197     0.75   0.6679     C
C       0.0297     0.25   0.2391     C
N       0.0345     0.25   0.4046     N
O        0.051     0.25   0.6484     O
C       0.0715     0.25    0.566     C
C       0.0872     0.75   0.4948     C
C       0.1065     0.75   0.6526     C
O       0.1092     0.25   0.2429     O
C       0.1285     0.75   0.3994     C
N       0.1423     0.75   0.5659     N
O       0.1467   0.5853   0.3625     O
O       0.1467   0.9147   0.3625     O
O       0.1506     0.25    0.537     O
C        0.173     0.75     0.73     C
Gd     0.19891     0.25  0.37927    Gd
O       0.2043    0.583   0.7566     O
O       0.2043    0.917   0.7566     O
Na      0.2357     0.75   0.1894    Na
Na      0.2643     0.25   0.6894    Na
O       0.2957    0.083   0.2566     O
O       0.2957    0.417   0.2566     O
Gd     0.30109     0.75  0.87927    Gd
C        0.327     0.25     0.23     C
O       0.3494     0.75    0.037     O
O       0.3533   0.0853   0.8625     O
O       0.3533   0.4147   0.8625     O
N       0.3577     0.25   0.0659     N
C       0.3715     0.25   0.8994     C
O       0.3908     0.75   0.7429     O
C       0.3935     0.25   0.1526     C
C       0.4128     0.25   0.9948     C
C       0.4285     0.75    0.066     C
O        0.449     0.75   0.1484     O
N       0.4655     0.75   0.9046     N
C       0.4703     0.75   0.7391     C
C       0.4803     0.25   0.1679     C
O       0.4806     0.25   0.3299     O
C       0.4964     0.75   0.9927     C
C       0.5036     0.25   0.0073     C
O       0.5194     0.75   0.6701     O
C       0.5197     0.75   0.8321     C
C       0.5297     0.25   0.2609     C
N       0.5345     0.25   0.0954     N
O        0.551     0.25   0.8516     O
C       0.5715     0.25    0.934     C
C       0.5872     0.75   0.0052     C
C       0.6065     0.75   0.8474     C
O       0.6092     0.25   0.2571     O
C       0.6285     0.75   0.1006     C
N       0.6423     0.75   0.9341     N
O       0.6467   0.5853   0.1375     O
O       0.6467   0.9147   0.1375     O
O       0.6506     0.25    0.963     O
C        0.673     0.75     0.77     C
Gd     0.69891     0.25  0.12073    Gd
O       0.7043    0.583   0.7434     O
O       0.7043    0.917   0.7434     O
Na      0.7357     0.75   0.3106    Na
Na      0.7643     0.25   0.8106    Na
O       0.7957    0.083   0.2434     O
O       0.7957    0.417   0.2434     O
Gd     0.80109     0.75  0.62073    Gd
C        0.827     0.25     0.27     C
O       0.8494     0.75    0.463     O
O       0.8533   0.0853   0.6375     O
O       0.8533   0.4147   0.6375     O
N       0.8577     0.25   0.4341     N
C       0.8715     0.25   0.6006     C
O       0.8908     0.75   0.7571     O
C       0.8935     0.25   0.3474     C
C       0.9128     0.25   0.5052     C
C       0.9285     0.75    0.434     C
O        0.949     0.75   0.3516     O
N       0.9655     0.75   0.5954     N
C       0.9703     0.75   0.7609     C
C       0.9803     0.25   0.3321     C
O       0.9806     0.25   0.1701     O
C       0.9964     0.75   0.5073     C
