data_I
_chemical_name_common  '/home/zhangsd/repos/MofS-CGCNN/ML/data/TSD/clean_cifs/NOHKIG_clean'
_cell_length_a 15.14700
_cell_length_b  6.67630
_cell_length_c 14.37500
_cell_angle_alpha 90.00000
_cell_angle_beta  90.00000
_cell_angle_gamma 90.00000
_space_group_name_H-M_alt      'P 1'


loop_
_space_group_symop_operation_xyz
  'x, y, z' 

loop_
_atom_site_label
_atom_site_fract_x
_atom_site_fract_y
_atom_site_fract_z
_atom_site_type_symbol
C       0.0036     0.25   0.4918     C
C       0.0179     0.75    0.667     C
O       0.0185     0.75     0.83     O
C       0.0309     0.25   0.2413     C
N       0.0353     0.25   0.4052     N
O       0.0517     0.25   0.6475     O
C       0.0725     0.25   0.5662     C
C       0.0872     0.75    0.494     C
C       0.1066     0.75   0.6527     C
O       0.1106     0.25   0.2428     O
C       0.1296     0.75   0.3994     C
N       0.1427     0.75    0.566     N
O       0.1481   0.5844    0.363     O
O       0.1481   0.9156    0.363     O
O       0.1527     0.25   0.5367     O
C       0.1767     0.75   0.7298     C
Tb     0.19969     0.25  0.37977    Tb
O       0.2033    0.584   0.7582     O
O       0.2033    0.916   0.7582     O
Na      0.2346     0.75     0.19    Na
Na      0.2654     0.25     0.69    Na
O       0.2967    0.084   0.2582     O
O       0.2967    0.416   0.2582     O
Tb     0.30031     0.75  0.87977    Tb
C       0.3233     0.25   0.2298     C
O       0.3473     0.75   0.0367     O
O       0.3519   0.0844    0.863     O
O       0.3519   0.4156    0.863     O
N       0.3573     0.25    0.066     N
C       0.3704     0.25   0.8994     C
O       0.3894     0.75   0.7428     O
C       0.3934     0.25   0.1527     C
C       0.4128     0.25    0.994     C
C       0.4275     0.75   0.0662     C
O       0.4483     0.75   0.1475     O
N       0.4647     0.75   0.9052     N
C       0.4691     0.75   0.7413     C
O       0.4815     0.25     0.33     O
C       0.4821     0.25    0.167     C
C       0.4964     0.75   0.9918     C
C       0.5036     0.25   0.0082     C
C       0.5179     0.75    0.833     C
O       0.5185     0.75     0.67     O
C       0.5309     0.25   0.2587     C
N       0.5353     0.25   0.0948     N
O       0.5517     0.25   0.8525     O
C       0.5725     0.25   0.9338     C
C       0.5872     0.75    0.006     C
C       0.6066     0.75   0.8473     C
O       0.6106     0.25   0.2572     O
C       0.6296     0.75   0.1006     C
N       0.6427     0.75    0.934     N
O       0.6481   0.5844    0.137     O
O       0.6481   0.9156    0.137     O
O       0.6527     0.25   0.9633     O
C       0.6767     0.75   0.7702     C
Tb     0.69969     0.25  0.12023    Tb
O       0.7033    0.584   0.7418     O
O       0.7033    0.916   0.7418     O
Na      0.7346     0.75     0.31    Na
Na      0.7654     0.25     0.81    Na
O       0.7967    0.084   0.2418     O
O       0.7967    0.416   0.2418     O
Tb     0.80031     0.75  0.62023    Tb
C       0.8233     0.25   0.2702     C
O       0.8473     0.75   0.4633     O
O       0.8519   0.0844    0.637     O
O       0.8519   0.4156    0.637     O
N       0.8573     0.25    0.434     N
C       0.8704     0.25   0.6006     C
O       0.8894     0.75   0.7572     O
C       0.8934     0.25   0.3473     C
C       0.9128     0.25    0.506     C
C       0.9275     0.75   0.4338     C
O       0.9483     0.75   0.3525     O
N       0.9647     0.75   0.5948     N
C       0.9691     0.75   0.7587     C
O       0.9815     0.25     0.17     O
C       0.9821     0.25    0.333     C
C       0.9964     0.75   0.5082     C
