data_I
_chemical_name_common  '/home/zhangsd/repos/MofS-CGCNN/ML/data/TSD/clean_cifs/NOMQAJ01_clean'
_cell_length_a 15.36450
_cell_length_b 15.12750
_cell_length_c  8.31100
_cell_angle_alpha 90.00000
_cell_angle_beta  91.85000
_cell_angle_gamma 90.00000
_space_group_name_H-M_alt      'P 1'


loop_
_space_group_symop_operation_xyz
  'x, y, z' 

loop_
_atom_site_label
_atom_site_fract_x
_atom_site_fract_y
_atom_site_fract_z
_atom_site_type_symbol
C        2e-05  0.17451   0.9055     C
C        2e-05  0.32549   0.4055     C
H       0.0169   0.2272    0.955     H
H       0.0169   0.2728    0.455     H
C      0.02231  0.06181   0.7081     C
C      0.02231  0.43819   0.2081     C
C      0.04834  0.14079   0.7809     C
C      0.04834  0.35921   0.2809     C
C      0.05087  0.51695   0.7423     C
C      0.05087  0.98305   0.2423     C
H       0.0545   0.0388    0.625     H
H       0.0545   0.4612    0.125     H
H       0.0674   0.0358    0.292     H
H       0.0674   0.4642    0.792     H
C      0.07309  0.63027   0.5434     C
C      0.07309  0.86973   0.0434     C
C      0.09982  0.55109   0.6173     C
C      0.09982  0.94891   0.1173     C
H       0.1046   0.6533   0.4595     H
H       0.1046   0.8467   0.9595     H
C      0.12871  0.18898   0.7296     C
C      0.12871  0.31102   0.2296     C
H       0.1412    0.118   0.1165     H
H       0.1412    0.382   0.6165     H
O      0.15221  0.24259   0.3051     O
O      0.15221  0.25741   0.8051     O
O      0.16773  0.15769   0.6111     O
O      0.16773  0.34231   0.1111     O
C       0.1792  0.50534   0.5624     C
C       0.1792  0.99466   0.0624     C
C      0.18564  0.08643   0.0696     C
C      0.18564  0.41357   0.5696     C
H       0.2469   0.6131   0.4939     H
H       0.2469   0.8869   0.9939     H
C      0.24856  0.55173   0.4986     C
C      0.24856  0.94827   0.9986     C
N      0.25331  0.13139  0.01161     N
N      0.25331  0.36861  0.51161     N
Zn      0.2541  0.23272  0.51296    Zn
Zn      0.2541  0.26728  0.01296    Zn
C      0.31891  0.08566   0.9485     C
C      0.31891  0.41434   0.4485     C
C      0.32046  0.50631   0.4418     C
C      0.32046  0.99369   0.9418     C
O      0.34006  0.15854   0.4103     O
O      0.34006  0.34146   0.9103     O
O       0.3535  0.24045   0.7178     O
O       0.3535  0.25955   0.2178     O
H       0.3654   0.1168   0.9075     H
H       0.3654   0.3832   0.4075     H
C       0.3778  0.19068   0.2909     C
C       0.3778  0.30932   0.7909     C
H       0.3878    0.662   0.5193     H
H       0.3878    0.838   0.0193     H
C      0.39708  0.55331   0.3789     C
C      0.39708  0.94669   0.8789     C
C      0.42089  0.63609   0.4402     C
C      0.42089  0.86391   0.9402     C
H       0.4317   0.0389   0.7149     H
H       0.4317   0.4611   0.2149     H
C      0.44677  0.51598   0.2578     C
C      0.44677  0.98402   0.7578     C
H        0.449   0.0359   0.3786     H
H        0.449   0.4641   0.8786     H
C      0.45738  0.14289   0.2355     C
C      0.45738  0.35711   0.7355     C
C       0.4815  0.06099   0.2979     C
C       0.4815  0.43901   0.7979     C
H       0.4912   0.2349   0.0718     H
H       0.4912   0.2651   0.5718     H
C      0.49321   0.6802   0.3849     C
C      0.49321   0.8198   0.8849     C
C      0.50679   0.1802   0.1151     C
C      0.50679   0.3198   0.6151     C
H       0.5088   0.7349   0.4282     H
H       0.5088   0.7651   0.9282     H
C       0.5185  0.56099   0.2021     C
C       0.5185  0.93901   0.7021     C
C      0.54262  0.64289   0.2645     C
C      0.54262  0.85711   0.7645     C
H        0.551   0.5359   0.1214     H
H        0.551   0.9641   0.6214     H
C      0.55323  0.01598   0.2422     C
C      0.55323  0.48402   0.7422     C
H       0.5683   0.5389   0.7851     H
H       0.5683   0.9611   0.2851     H
C      0.57911  0.13609   0.0598     C
C      0.57911  0.36391   0.5598     C
C      0.60292  0.05331   0.1211     C
C      0.60292  0.44669   0.6211     C
H       0.6122    0.162   0.9807     H
H       0.6122    0.338   0.4807     H
C       0.6222  0.69068   0.2091     C
C       0.6222  0.80932   0.7091     C
H       0.6346   0.6168   0.5925     H
H       0.6346   0.8832   0.0925     H
O       0.6465  0.74045   0.7822     O
O       0.6465  0.75955   0.2822     O
O      0.65994  0.65854   0.0897     O
O      0.65994  0.84146   0.5897     O
C      0.67954  0.00631   0.0582     C
C      0.67954  0.49369   0.5582     C
C      0.68109  0.58566   0.5515     C
C      0.68109  0.91434   0.0515     C
Zn      0.7459  0.73272  0.98704    Zn
Zn      0.7459  0.76728  0.48704    Zn
N      0.74669  0.63139  0.48839     N
N      0.74669  0.86861  0.98839     N
C      0.75144  0.05173   0.0014     C
C      0.75144  0.44827   0.5014     C
H       0.7531   0.1131   0.0061     H
H       0.7531   0.3869   0.5061     H
C      0.81436  0.58643   0.4304     C
C      0.81436  0.91357   0.9304     C
C       0.8208  0.00534   0.9376     C
C       0.8208  0.49466   0.4376     C
O      0.83227  0.65769   0.8889     O
O      0.83227  0.84231   0.3889     O
O      0.84779  0.74259   0.1949     O
O      0.84779  0.75741   0.6949     O
H       0.8588    0.618   0.3835     H
H       0.8588    0.882   0.8835     H
C      0.87129  0.68898   0.7704     C
C      0.87129  0.81102   0.2704     C
H       0.8954   0.1533   0.0405     H
H       0.8954   0.3467   0.5405     H
C      0.90018  0.05109   0.8827     C
C      0.90018  0.44891   0.3827     C
C      0.92691  0.13027   0.9566     C
C      0.92691  0.36973   0.4566     C
H       0.9326   0.5358    0.208     H
H       0.9326   0.9642    0.708     H
H       0.9455   0.5388    0.875     H
H       0.9455   0.9612    0.375     H
C      0.94913  0.01695   0.7577     C
C      0.94913  0.48305   0.2577     C
C      0.95166  0.64079   0.7191     C
C      0.95166  0.85921   0.2191     C
C      0.97769  0.56181   0.7919     C
C      0.97769  0.93819   0.2919     C
H       0.9831   0.7272    0.545     H
H       0.9831   0.7728    0.045     H
C      0.99998  0.67451   0.5945     C
C      0.99998  0.82549   0.0945     C
