data_I
_chemical_name_common  '/home/zhangsd/repos/MofS-CGCNN/ML/data/TSD/clean_cifs/NUCYIV_clean'
_cell_length_a 27.95100
_cell_length_b  9.61240
_cell_length_c  8.19370
_cell_angle_alpha 90.00000
_cell_angle_beta  90.00000
_cell_angle_gamma 90.00000
_space_group_name_H-M_alt      'P 1'


loop_
_space_group_symop_operation_xyz
  'x, y, z' 

loop_
_atom_site_label
_atom_site_fract_x
_atom_site_fract_y
_atom_site_fract_z
_atom_site_type_symbol
Dy     0.00377   0.5848  0.09288    Dy
O      0.02158   0.5878   0.7879     O
O      0.04097   0.2986   0.7855     O
O      0.04863   0.3896   0.0351     O
C       0.0593   0.6558   0.8134     C
O      0.06236   0.6128   0.2829     O
C      0.06468   0.3277   0.9125     C
O      0.07072    0.477   0.4994     O
O      0.07243   0.6945    0.948     O
H       0.0783   0.6781   0.7241     H
C      0.08683    0.559    0.392     C
H       0.1125   0.1595    0.715     H
C      0.11657   0.2834   0.9132     C
C      0.13333   0.1938   0.7937     C
H       0.1363   0.3897   0.1137     H
C      0.13896   0.5949   0.3962     C
H       0.1397   0.6897   0.1791     H
H       0.1437   0.9746   0.5874     H
C      0.14743    0.332   0.0308     C
H       0.1544   0.5023   0.6152     H
C      0.15867   0.6663   0.2683     C
H       0.1647   0.0973   0.4837     H
C      0.16718   0.5543   0.5299     C
C       0.1726   0.0183     0.55     C
H       0.1747   0.8232   0.0034     H
C       0.1807   0.1557   0.7916     C
H       0.1909   0.9531   0.4868     H
C      0.19562   0.2939   0.0243     C
O      0.19966   0.0618   0.6846     O
H       0.2038   0.6915   0.9497     H
C       0.2062    0.784   0.9933     C
C       0.2065   0.7042   0.2699     C
C      0.21251   0.2062    0.908     C
C      0.21544   0.5956   0.5297     C
H       0.2167   0.3295   0.1017     H
H        0.225   0.8406   0.9214     H
O      0.22814    0.779   0.1489     O
H       0.2344   0.5733   0.6192     H
C      0.23572    0.668   0.4017     C
C      0.26428    0.168   0.9017     C
H       0.2656   0.0733   0.1192     H
O      0.27186    0.279   0.6489     O
H        0.275   0.3406   0.4214     H
H       0.2833   0.8295   0.6017     H
C      0.28456   0.0956   0.0297     C
C      0.28749   0.7062    0.408     C
C       0.2935   0.2042   0.7699     C
C       0.2938    0.284   0.4933     C
H       0.2962   0.1915   0.4497     H
O      0.30034   0.5618   0.1846     O
C      0.30438   0.7939   0.5243     C
H       0.3091   0.4531   0.9868     H
C       0.3193   0.6557   0.2916     C
H       0.3253   0.3232   0.5034     H
C       0.3274   0.5183     0.05     C
C      0.33282   0.0543   0.0299     C
H       0.3353   0.5973   0.9837     H
C      0.34133   0.1663   0.7683     C
H       0.3456   0.0023   0.1152     H
C      0.35257    0.832   0.5308     C
H       0.3563   0.4746   0.0874     H
H       0.3603   0.1897   0.6791     H
C      0.36104   0.0949   0.8962     C
H       0.3637   0.8897   0.6137     H
C      0.36667   0.6938   0.2937     C
C      0.38343   0.7834   0.4132     C
H       0.3875   0.6595    0.215     H
C      0.41317    0.059    0.892     C
H       0.4217   0.1781   0.2241     H
O      0.42757   0.1945    0.448     O
O      0.42928    0.977   0.9994     O
C      0.43532   0.8277   0.4125     C
O      0.43764   0.1128   0.7829     O
C       0.4407   0.1558   0.3134     C
O      0.45137   0.8896   0.5351     O
O      0.45903   0.7986   0.2855     O
O      0.47842   0.0878   0.2879     O
Dy     0.49623   0.0848  0.59288    Dy
Dy     0.50377   0.9152  0.09288    Dy
O      0.52158   0.9122   0.7879     O
O      0.54097   0.2014   0.7855     O
O      0.54863   0.1104   0.0351     O
C       0.5593   0.8442   0.8134     C
O      0.56236   0.8872   0.2829     O
C      0.56468   0.1723   0.9125     C
O      0.57072    0.023   0.4994     O
O      0.57243   0.8055    0.948     O
H       0.5783   0.8219   0.7241     H
C      0.58683    0.941    0.392     C
H       0.6125   0.3405    0.715     H
C      0.61657   0.2166   0.9132     C
C      0.63333   0.3062   0.7937     C
H       0.6363   0.1103   0.1137     H
C      0.63896   0.9051   0.3962     C
H       0.6397   0.8103   0.1791     H
H       0.6437   0.5254   0.5874     H
C      0.64743    0.168   0.0308     C
H       0.6544   0.9977   0.6152     H
C      0.65867   0.8337   0.2683     C
H       0.6647   0.4027   0.4837     H
C      0.66718   0.9457   0.5299     C
C       0.6726   0.4817     0.55     C
H       0.6747   0.6768   0.0034     H
C       0.6807   0.3443   0.7916     C
H       0.6909   0.5469   0.4868     H
C      0.69562   0.2061   0.0243     C
O      0.69966   0.4382   0.6846     O
H       0.7038   0.8085   0.9497     H
C       0.7062    0.716   0.9933     C
C       0.7065   0.7958   0.2699     C
C      0.71251   0.2938    0.908     C
C      0.71544   0.9044   0.5297     C
H       0.7167   0.1705   0.1017     H
H        0.725   0.6594   0.9214     H
O      0.72814    0.721   0.1489     O
H       0.7344   0.9267   0.6192     H
C      0.73572    0.832   0.4017     C
C      0.76428    0.332   0.9017     C
H       0.7656   0.4267   0.1192     H
O      0.77186    0.221   0.6489     O
H        0.775   0.1594   0.4214     H
H       0.7833   0.6705   0.6017     H
C      0.78456   0.4044   0.0297     C
C      0.78749   0.7938    0.408     C
C       0.7935   0.2958   0.7699     C
C       0.7938    0.216   0.4933     C
H       0.7962   0.3085   0.4497     H
O      0.80034   0.9382   0.1846     O
C      0.80438   0.7061   0.5243     C
H       0.8091   0.0469   0.9868     H
C       0.8193   0.8443   0.2916     C
H       0.8253   0.1768   0.5034     H
C       0.8274   0.9817     0.05     C
C      0.83282   0.4457   0.0299     C
H       0.8353   0.9027   0.9837     H
C      0.84133   0.3337   0.7683     C
H       0.8456   0.4977   0.1152     H
C      0.85257    0.668   0.5308     C
H       0.8563   0.0254   0.0874     H
H       0.8603   0.3103   0.6791     H
C      0.86104   0.4051   0.8962     C
H       0.8637   0.6103   0.6137     H
C      0.86667   0.8062   0.2937     C
C      0.88343   0.7166   0.4132     C
H       0.8875   0.8405    0.215     H
C      0.91317    0.441    0.892     C
H       0.9217   0.3219   0.2241     H
O      0.92757   0.3055    0.448     O
O      0.92928    0.523   0.9994     O
C      0.93532   0.6723   0.4125     C
O      0.93764   0.3872   0.7829     O
C       0.9407   0.3442   0.3134     C
O      0.95137   0.6104   0.5351     O
O      0.95903   0.7014   0.2855     O
O      0.97842   0.4122   0.2879     O
Dy     0.99623   0.4152  0.59288    Dy
