data_I
_chemical_name_common  '/home/zhangsd/repos/MofS-CGCNN/ML/data/TSD/clean_cifs/NUCYAN_clean'
_cell_length_a 28.04400
_cell_length_b  9.62620
_cell_length_c  8.25460
_cell_angle_alpha 90.00000
_cell_angle_beta  90.00000
_cell_angle_gamma 90.00000
_space_group_name_H-M_alt      'P 1'


loop_
_space_group_symop_operation_xyz
  'x, y, z' 

loop_
_atom_site_label
_atom_site_fract_x
_atom_site_fract_y
_atom_site_fract_z
_atom_site_type_symbol
Eu     0.00377  0.58544  0.40702    Eu
O      0.02294   0.5879   0.7126     O
O      0.04069   0.2958   0.7111     O
O      0.04912   0.3858   0.4656     O
C       0.0603   0.6581   0.6874     C
O      0.06308   0.6105   0.2143     O
C       0.0652   0.3247   0.5879     C
O      0.07212   0.4752   0.0005     O
O      0.07362   0.6952   0.5523     O
H       0.0789   0.6831   0.7762     H
C      0.08804   0.5559    0.106     C
H       0.1124   0.1586   0.7848     H
C      0.11671   0.2825   0.5883     C
C      0.13324    0.193   0.7069     C
H       0.1366   0.3894   0.3894     H
H       0.1397   0.6909   0.3206     H
C      0.13999   0.5917   0.1033     C
H       0.1448   0.9694   0.9043     H
C      0.14758   0.3316   0.4716     C
H       0.1558   0.5045   0.8865     H
C      0.15893   0.6659   0.2336     C
H       0.1631   0.0939   0.0096     H
C      0.16841   0.5548   0.9725     C
C       0.1726   0.0161   0.9444     C
H       0.1748   0.8231   0.4928     H
C      0.18089   0.1547   0.7095     C
H       0.1911   0.9529   0.0087     H
C       0.1954   0.2935   0.4784     C
O      0.19958   0.0622   0.8161     O
H       0.2033   0.6911   0.5475     H
C        0.206   0.7832   0.5038     C
C      0.20689   0.7021   0.2317     C
C      0.21265    0.208   0.5967     C
C      0.21595   0.5943   0.9724     C
H       0.2162   0.3273      0.4     H
H       0.2248   0.8396   0.5753     H
O      0.22818    0.777   0.3501     O
H       0.2349   0.5704   0.8843     H
C      0.23611   0.6677   0.0986     C
C      0.26389   0.1677   0.5986     C
H       0.2651   0.0704   0.3843     H
O      0.27182    0.277   0.8501     O
H       0.2752   0.3396   0.0753     H
H       0.2838   0.8273      0.9     H
C      0.28405   0.0943   0.4724     C
C      0.28735    0.708   0.0967     C
C      0.29311   0.2021   0.7317     C
C        0.294   0.2832   0.0038     C
H       0.2967   0.1911   0.0475     H
O      0.30042   0.5622   0.3161     O
C       0.3046   0.7935   0.9784     C
H       0.3089   0.4529   0.5087     H
C      0.31911   0.6547   0.2095     C
H       0.3252   0.3231   0.9928     H
C       0.3274   0.5161   0.4444     C
C      0.33159   0.0548   0.4725     C
H       0.3369   0.5939   0.5096     H
C      0.34107   0.1659   0.7336     C
H       0.3442   0.0045   0.3865     H
C      0.35242   0.8316   0.9716     C
H       0.3552   0.4694   0.4043     H
C      0.36001   0.0917   0.6033     C
H       0.3603   0.1909   0.8206     H
H       0.3634   0.8894   0.8894     H
C      0.36676    0.693   0.2069     C
C      0.38329   0.7825   0.0883     C
H       0.3876   0.6586   0.2848     H
C      0.41196   0.0559    0.606     C
H       0.4211   0.1831   0.2762     H
O      0.42638   0.1952   0.0523     O
O      0.42788   0.9752   0.5005     O
C       0.4348   0.8247   0.0879     C
O      0.43692   0.1105   0.7143     O
C       0.4397   0.1581   0.1874     C
O      0.45088   0.8858   0.9656     O
O      0.45931   0.7958   0.2111     O
O      0.47706   0.0879   0.2126     O
Eu     0.49623  0.08544  0.90702    Eu
Eu     0.50377  0.91456  0.40702    Eu
O      0.52294   0.9121   0.7126     O
O      0.54069   0.2042   0.7111     O
O      0.54912   0.1142   0.4656     O
C       0.5603   0.8419   0.6874     C
O      0.56308   0.8895   0.2143     O
C       0.5652   0.1753   0.5879     C
O      0.57212   0.0248   0.0005     O
O      0.57362   0.8048   0.5523     O
H       0.5789   0.8169   0.7762     H
C      0.58804   0.9441    0.106     C
H       0.6124   0.3414   0.7848     H
C      0.61671   0.2175   0.5883     C
C      0.63324    0.307   0.7069     C
H       0.6366   0.1106   0.3894     H
H       0.6397   0.8091   0.3206     H
C      0.63999   0.9083   0.1033     C
H       0.6448   0.5306   0.9043     H
C      0.64758   0.1684   0.4716     C
H       0.6558   0.9955   0.8865     H
C      0.65893   0.8341   0.2336     C
H       0.6631   0.4061   0.0096     H
C      0.66841   0.9452   0.9725     C
C       0.6726   0.4839   0.9444     C
H       0.6748   0.6769   0.4928     H
C      0.68089   0.3453   0.7095     C
H       0.6911   0.5471   0.0087     H
C       0.6954   0.2065   0.4784     C
O      0.69958   0.4378   0.8161     O
H       0.7033   0.8089   0.5475     H
C        0.706   0.7168   0.5038     C
C      0.70689   0.7979   0.2317     C
C      0.71265    0.292   0.5967     C
C      0.71595   0.9057   0.9724     C
H       0.7162   0.1727      0.4     H
H       0.7248   0.6604   0.5753     H
O      0.72818    0.723   0.3501     O
H       0.7349   0.9296   0.8843     H
C      0.73611   0.8323   0.0986     C
C      0.76389   0.3323   0.5986     C
H       0.7651   0.4296   0.3843     H
O      0.77182    0.223   0.8501     O
H       0.7752   0.1604   0.0753     H
H       0.7838   0.6727      0.9     H
C      0.78405   0.4057   0.4724     C
C      0.78735    0.792   0.0967     C
C      0.79311   0.2979   0.7317     C
C        0.794   0.2168   0.0038     C
H       0.7967   0.3089   0.0475     H
O      0.80042   0.9378   0.3161     O
C       0.8046   0.7065   0.9784     C
H       0.8089   0.0471   0.5087     H
C      0.81911   0.8453   0.2095     C
H       0.8252   0.1769   0.9928     H
C       0.8274   0.9839   0.4444     C
C      0.83159   0.4452   0.4725     C
H       0.8369   0.9061   0.5096     H
C      0.84107   0.3341   0.7336     C
H       0.8442   0.4955   0.3865     H
C      0.85242   0.6684   0.9716     C
H       0.8552   0.0306   0.4043     H
C      0.86001   0.4083   0.6033     C
H       0.8603   0.3091   0.8206     H
H       0.8634   0.6106   0.8894     H
C      0.86676    0.807   0.2069     C
C      0.88329   0.7175   0.0883     C
H       0.8876   0.8414   0.2848     H
C      0.91196   0.4441    0.606     C
H       0.9211   0.3169   0.2762     H
O      0.92638   0.3048   0.0523     O
O      0.92788   0.5248   0.5005     O
C       0.9348   0.6753   0.0879     C
O      0.93692   0.3895   0.7143     O
C       0.9397   0.3419   0.1874     C
O      0.95088   0.6142   0.9656     O
O      0.95931   0.7042   0.2111     O
O      0.97706   0.4121   0.2126     O
Eu     0.99623  0.41456  0.90702    Eu
