data_I
_chemical_name_common  '/home/zhangsd/repos/MofS-CGCNN/ML/data/TSD/clean_cifs/NUDLIJ_clean'
_cell_length_a 10.86090
_cell_length_b 14.30880
_cell_length_c 17.01980
_cell_angle_alpha 90.00000
_cell_angle_beta  105.94000
_cell_angle_gamma 90.00000
_space_group_name_H-M_alt      'P 1'


loop_
_space_group_symop_operation_xyz
  'x, y, z' 

loop_
_atom_site_label
_atom_site_fract_x
_atom_site_fract_y
_atom_site_fract_z
_atom_site_type_symbol
H        0.009   0.5671   0.7494     H
H        0.021   0.6278   0.9637     H
H        0.024   0.1258   0.4649     H
H        0.025   0.0801   0.2631     H
Mg     0.04805  0.03112   0.5901    Mg
O      0.04918  0.58022  0.97864     O
Mg     0.05038  0.52921  0.09147    Mg
O       0.0531  0.07922  0.47825     O
C      0.05593  0.89267  0.74177     C
H        0.058   0.7967   0.8294     H
C      0.06674  0.40206   0.2511     C
H        0.072   0.3118   0.3427     H
O      0.08323  0.42057  0.85434     O
O      0.08787   0.9138  0.36065     O
C       0.1028  0.81907  0.79494     C
C      0.11467  0.32962  0.30519     C
N      0.12008  0.92958  0.69272     N
N      0.12482  0.43259  0.19594     N
H        0.125    0.298   0.7516     H
H        0.131   0.7909   0.2586     H
O       0.1456  0.64832   0.1616     O
O      0.14802  0.14553  0.66369     O
C      0.19817  0.43822  0.86162     C
C       0.2005  0.93439  0.36556     C
C      0.20849   0.3206  0.75178     C
C      0.20972  0.81799  0.25439     C
C        0.222  0.78161  0.79733     C
C      0.22346  0.70374  0.14297     C
O      0.22423  0.69111  0.91253     O
C      0.22722  0.28559  0.30126     C
C       0.2285  0.19895  0.64671     C
O      0.23063  0.49048  0.08347     O
O      0.23236  0.99036  0.58473     O
O      0.23486   0.1971  0.41869     O
C      0.23634  0.39199  0.19505     C
C      0.23676  0.89413  0.69703     C
Mg     0.24975  0.59083  0.99951    Mg
Mg     0.25025  0.09083  0.50049    Mg
C      0.26324  0.39413  0.80297     C
C      0.26366  0.89199  0.30495     C
O      0.26514   0.6971  0.08131     O
O      0.26764  0.49036  0.91527     O
O      0.26937  0.99048  0.41653     O
C       0.2715  0.69895  0.85329     C
C      0.27278  0.78559  0.19874     C
O      0.27577  0.19111  0.58747     O
C      0.27654  0.20374  0.35703     C
C        0.278  0.28161  0.70267     C
C      0.29028  0.31799  0.24561     C
C      0.29151   0.8206  0.74822     C
C       0.2995  0.43439  0.13444     C
C      0.30183  0.93822  0.63838     C
O      0.35198  0.64553  0.83631     O
O       0.3544  0.14832   0.3384     O
H        0.369   0.2909   0.2414     H
H        0.375    0.798   0.7484     H
N      0.37518  0.93259  0.30406     N
N      0.37992  0.42958  0.80728     N
C      0.38533  0.82962  0.19481     C
C       0.3972  0.31907  0.70506     C
O      0.41213   0.4138  0.13935     O
O      0.41677  0.92057  0.64566     O
H        0.428   0.8118   0.1573     H
C      0.43326  0.90206   0.2489     C
H        0.442   0.2967   0.6706     H
C      0.44407  0.39267  0.75823     C
O       0.4469  0.57922  0.02175     O
Mg     0.44962  0.02921  0.40853    Mg
O      0.45082  0.08022  0.52136     O
Mg     0.45195  0.53112   0.9099    Mg
H        0.475   0.5801   0.2369     H
H        0.476   0.6258   0.0351     H
H        0.479   0.1278   0.5363     H
H        0.491   0.0671   0.7506     H
H        0.509   0.9329   0.2494     H
H        0.521   0.8722   0.4637     H
H        0.524   0.3742   0.9649     H
H        0.525   0.4199   0.7631     H
Mg     0.54805  0.46888   0.0901    Mg
O      0.54918  0.91978  0.47864     O
Mg     0.55038  0.97079  0.59147    Mg
O       0.5531  0.42078  0.97825     O
C      0.55593  0.60733  0.24177     C
H        0.558   0.7033   0.3294     H
C      0.56674  0.09794   0.7511     C
H        0.572   0.1882   0.8427     H
O      0.58323  0.07943  0.35434     O
O      0.58787   0.5862  0.86065     O
C       0.6028  0.68093  0.29494     C
C      0.61467  0.17038  0.80519     C
N      0.62008  0.57042  0.19272     N
N      0.62482  0.06741  0.69594     N
H        0.625    0.202   0.2516     H
H        0.631   0.7091   0.7586     H
O       0.6456  0.85168   0.6616     O
O      0.64802  0.35447  0.16369     O
C      0.69817  0.06178  0.36162     C
C       0.7005  0.56561  0.86556     C
C      0.70849   0.1794  0.25178     C
C      0.70972  0.68201  0.75439     C
C        0.722  0.71839  0.29733     C
C      0.72346  0.79626  0.64297     C
O      0.72423  0.80889  0.41253     O
C      0.72722  0.21441  0.80126     C
C       0.7285  0.30105  0.14671     C
O      0.73063  0.00952  0.58347     O
O      0.73236  0.50964  0.08473     O
O      0.73486   0.3029  0.91869     O
C      0.73634  0.10801  0.69505     C
C      0.73676  0.60587  0.19703     C
Mg     0.74975  0.90917  0.49951    Mg
Mg     0.75025  0.40917  0.00049    Mg
C      0.76324  0.10587  0.30297     C
C      0.76366  0.60801  0.80495     C
O      0.76514   0.8029  0.58131     O
O      0.76764  0.00964  0.41527     O
O      0.76937  0.50952  0.91653     O
C       0.7715  0.80105  0.35329     C
C      0.77278  0.71441  0.69874     C
O      0.77577  0.30889  0.08747     O
C      0.77654  0.29626  0.85703     C
C        0.778  0.21839  0.20267     C
C      0.79028  0.18201  0.74561     C
C      0.79151   0.6794  0.24822     C
C       0.7995  0.06561  0.63444     C
C      0.80183  0.56178  0.13838     C
O      0.85198  0.85447  0.33631     O
O       0.8544  0.35168   0.8384     O
H        0.869   0.2091   0.7414     H
H        0.875    0.702   0.2484     H
N      0.87518  0.56741  0.80406     N
N      0.87992  0.07042  0.30728     N
C      0.88533  0.67038  0.69481     C
C       0.8972  0.18093  0.20506     C
O      0.91213   0.0862  0.63935     O
O      0.91677  0.57943  0.14566     O
H        0.928   0.6882   0.6573     H
C      0.93326  0.59794   0.7489     C
H        0.942   0.2033   0.1706     H
C      0.94407  0.10733  0.25823     C
O       0.9469  0.92078  0.52175     O
Mg     0.94962  0.47079  0.90853    Mg
O      0.95082  0.41978  0.02136     O
Mg     0.95195  0.96888   0.4099    Mg
H        0.975   0.9199   0.7369     H
H        0.976   0.8742   0.5351     H
H        0.979   0.3722   0.0363     H
H        0.991   0.4329   0.2506     H
