data_I
_chemical_name_common  '/home/zhangsd/repos/MofS-CGCNN/ML/data/TSD/clean_cifs/NUDMUW_clean'
_cell_length_a 18.16670
_cell_length_b 12.51750
_cell_length_c 11.02100
_cell_angle_alpha 90.00000
_cell_angle_beta  102.67200
_cell_angle_gamma 90.00000
_space_group_name_H-M_alt      'P 1'


loop_
_space_group_symop_operation_xyz
  'x, y, z' 

loop_
_atom_site_label
_atom_site_fract_x
_atom_site_fract_y
_atom_site_fract_z
_atom_site_type_symbol
Mg         0.0  0.09915     0.25    Mg
Mg         0.0  0.90085     0.75    Mg
O      0.02081   0.0884  0.44579     O
O      0.02081   0.9116  0.94579     O
H       0.0379    0.149    0.472     H
H       0.0379    0.851    0.972     H
O      0.07527  0.01632  0.71889     O
O      0.07527  0.98368  0.21889     O
O      0.08308  0.21139  0.27596     O
O      0.08308  0.78861  0.77596     O
Mg     0.08427  0.03632  0.04019    Mg
Mg     0.08427  0.96368  0.54019    Mg
C      0.12693  0.06951   0.7876     C
C      0.12693  0.93049   0.2876     C
O       0.1321  0.09005  0.89936     O
O       0.1321  0.90995  0.39936     O
C      0.13669  0.21765   0.2225     C
C      0.13669  0.78235   0.7225     C
O      0.14518  0.16603  0.12982     O
O      0.14518  0.83397  0.62982     O
H       0.1665    0.321    0.439     H
H       0.1665    0.679    0.939     H
N      0.18411  0.06813  0.61037     N
N      0.18411  0.93187  0.11037     N
C      0.18875  0.10799   0.7261     C
C      0.18875  0.89201   0.2261     C
C      0.19927  0.29547   0.2782     C
C      0.19927  0.70453   0.7782     C
C      0.20239   0.3382   0.3954     C
C      0.20239   0.6618   0.8954     C
H       0.2322    0.068    0.471     H
H       0.2322    0.932    0.971     H
C      0.23857   0.0952   0.5524     C
C      0.23857   0.9048   0.0524     C
C      0.24513   0.1755   0.7838     C
C      0.24513   0.8245   0.2838     C
H       0.2461    0.198    0.855     H
H       0.2461    0.802    0.355     H
H       0.2539    0.302    0.145     H
H       0.2539    0.698    0.645     H
C      0.25487   0.3245   0.2162     C
C      0.25487   0.6755   0.7162     C
C      0.26143   0.4048   0.4476     C
C      0.26143   0.5952   0.9476     C
H       0.2678    0.432    0.529     H
H       0.2678    0.568    0.029     H
C      0.29761   0.1618   0.6046     C
C      0.29761   0.8382   0.1046     C
C      0.30073  0.20453   0.7218     C
C      0.30073  0.79547   0.2218     C
C      0.31125  0.39201   0.2739     C
C      0.31125  0.60799   0.7739     C
N      0.31589  0.43187  0.38963     N
N      0.31589  0.56813  0.88963     N
H       0.3335    0.179    0.561     H
H       0.3335    0.821    0.061     H
O      0.35482  0.33397  0.87018     O
O      0.35482  0.66603  0.37018     O
C      0.36331  0.28235   0.7775     C
C      0.36331  0.71765   0.2775     C
O       0.3679  0.40995  0.10064     O
O       0.3679  0.59005  0.60064     O
C      0.37307  0.43049   0.2124     C
C      0.37307  0.56951   0.7124     C
Mg     0.41573  0.46368  0.95981    Mg
Mg     0.41573  0.53632  0.45981    Mg
O      0.41692  0.28861  0.72404     O
O      0.41692  0.71139  0.22404     O
O      0.42473  0.48368  0.28111     O
O      0.42473  0.51632  0.78111     O
H       0.4621    0.351    0.528     H
H       0.4621    0.649    0.028     H
O      0.47919   0.4116  0.55421     O
O      0.47919   0.5884  0.05421     O
Mg         0.5  0.40085     0.75    Mg
Mg         0.5  0.59915     0.25    Mg
O      0.52081   0.4116  0.94579     O
O      0.52081   0.5884  0.44579     O
H       0.5379    0.351    0.972     H
H       0.5379    0.649    0.472     H
O      0.57527  0.48368  0.21889     O
O      0.57527  0.51632  0.71889     O
O      0.58308  0.28861  0.77596     O
O      0.58308  0.71139  0.27596     O
Mg     0.58427  0.46368  0.54019    Mg
Mg     0.58427  0.53632  0.04019    Mg
C      0.62693  0.43049   0.2876     C
C      0.62693  0.56951   0.7876     C
O       0.6321  0.40995  0.39936     O
O       0.6321  0.59005  0.89936     O
C      0.63669  0.28235   0.7225     C
C      0.63669  0.71765   0.2225     C
O      0.64518  0.33397  0.62982     O
O      0.64518  0.66603  0.12982     O
H       0.6665    0.179    0.939     H
H       0.6665    0.821    0.439     H
N      0.68411  0.43187  0.11037     N
N      0.68411  0.56813  0.61037     N
C      0.68875  0.39201   0.2261     C
C      0.68875  0.60799   0.7261     C
C      0.69927  0.20453   0.7782     C
C      0.69927  0.79547   0.2782     C
C      0.70239   0.1618   0.8954     C
C      0.70239   0.8382   0.3954     C
H       0.7322    0.432    0.971     H
H       0.7322    0.568    0.471     H
C      0.73857   0.4048   0.0524     C
C      0.73857   0.5952   0.5524     C
C      0.74513   0.3245   0.2838     C
C      0.74513   0.6755   0.7838     C
H       0.7461    0.302    0.355     H
H       0.7461    0.698    0.855     H
H       0.7539    0.198    0.645     H
H       0.7539    0.802    0.145     H
C      0.75487   0.1755   0.7162     C
C      0.75487   0.8245   0.2162     C
C      0.76143   0.0952   0.9476     C
C      0.76143   0.9048   0.4476     C
H       0.7678    0.068    0.029     H
H       0.7678    0.932    0.529     H
C      0.79761   0.3382   0.1046     C
C      0.79761   0.6618   0.6046     C
C      0.80073  0.29547   0.2218     C
C      0.80073  0.70453   0.7218     C
C      0.81125  0.10799   0.7739     C
C      0.81125  0.89201   0.2739     C
N      0.81589  0.06813  0.88963     N
N      0.81589  0.93187  0.38963     N
H       0.8335    0.321    0.061     H
H       0.8335    0.679    0.561     H
O      0.85482  0.16603  0.37018     O
O      0.85482  0.83397  0.87018     O
C      0.86331  0.21765   0.2775     C
C      0.86331  0.78235   0.7775     C
O       0.8679  0.09005  0.60064     O
O       0.8679  0.90995  0.10064     O
C      0.87307  0.06951   0.7124     C
C      0.87307  0.93049   0.2124     C
Mg     0.91573  0.03632  0.45981    Mg
Mg     0.91573  0.96368  0.95981    Mg
O      0.91692  0.21139  0.22404     O
O      0.91692  0.78861  0.72404     O
O      0.92473  0.01632  0.78111     O
O      0.92473  0.98368  0.28111     O
H       0.9621    0.149    0.028     H
H       0.9621    0.851    0.528     H
O      0.97919   0.0884  0.05421     O
O      0.97919   0.9116  0.55421     O
