data_I
_chemical_name_common  '/home/zhangsd/repos/MofS-CGCNN/ML/data/TSD/clean_cifs/NUDMEG_clean'
_cell_length_a 18.20400
_cell_length_b 12.38840
_cell_length_c 11.00140
_cell_angle_alpha 90.00000
_cell_angle_beta  102.36600
_cell_angle_gamma 90.00000
_space_group_name_H-M_alt      'P 1'


loop_
_space_group_symop_operation_xyz
  'x, y, z' 

loop_
_atom_site_label
_atom_site_fract_x
_atom_site_fract_y
_atom_site_fract_z
_atom_site_type_symbol
Mg         0.0  0.39659     0.25    Mg
Mg         0.0  0.60341     0.75    Mg
O        0.021   0.4103   0.4454     O
O        0.021   0.5897   0.9454     O
H        0.035    0.366     0.48     H
H        0.035    0.634     0.98     H
O       0.0753   0.4856   0.7195     O
O       0.0753   0.5144   0.2195     O
O      0.08117   0.2821   0.2712     O
O      0.08117   0.7179   0.7712     O
Mg     0.08297  0.46405  0.03959    Mg
Mg     0.08297  0.53595  0.53959    Mg
C       0.1258   0.4318   0.7876     C
C       0.1258   0.5682   0.2876     C
O      0.13051   0.4088   0.8982     O
O      0.13051   0.5912   0.3982     O
C       0.1363   0.2781   0.2194     C
C       0.1363   0.7219   0.7194     C
O      0.14534   0.3328   0.1283     O
O      0.14534   0.6672   0.6283     O
H        0.161    0.171     0.44     H
H        0.161    0.829     0.94     H
N       0.1836   0.4322   0.6101     N
N       0.1836   0.5678   0.1101     N
C       0.1881    0.393   0.7257     C
C       0.1881    0.607   0.2257     C
C       0.1996   0.2012   0.2777     C
C       0.1996   0.7988   0.7777     C
C       0.2024     0.16   0.3937     C
C       0.2024     0.84   0.8937     C
H        0.235    0.429    0.477     H
H        0.235    0.571    0.977     H
C        0.238   0.4048   0.5526     C
C        0.238   0.5952   0.0526     C
H        0.242    0.298    0.857     H
H        0.242    0.702    0.357     H
C       0.2451   0.3255   0.7843     C
C       0.2451   0.6745   0.2843     C
C       0.2549   0.1745   0.2157     C
C       0.2549   0.8255   0.7157     C
H        0.258    0.202    0.143     H
H        0.258    0.798    0.643     H
C        0.262   0.0952   0.4474     C
C        0.262   0.9048   0.9474     C
H        0.265    0.071    0.523     H
H        0.265    0.929    0.023     H
C       0.2976     0.34   0.6063     C
C       0.2976     0.66   0.1063     C
C       0.3004   0.2988   0.7223     C
C       0.3004   0.7012   0.2223     C
C       0.3119    0.107   0.2743     C
C       0.3119    0.893   0.7743     C
N       0.3164   0.0678   0.3899     N
N       0.3164   0.9322   0.8899     N
H        0.339    0.329     0.56     H
H        0.339    0.671     0.06     H
O      0.35466   0.1672   0.8717     O
O      0.35466   0.8328   0.3717     O
C       0.3637   0.2219   0.7806     C
C       0.3637   0.7781   0.2806     C
O      0.36949   0.0912   0.1018     O
O      0.36949   0.9088   0.6018     O
C       0.3742   0.0682   0.2124     C
C       0.3742   0.9318   0.7124     C
Mg     0.41703  0.03595  0.96041    Mg
Mg     0.41703  0.96405  0.46041    Mg
O      0.41883   0.2179   0.7288     O
O      0.41883   0.7821   0.2288     O
O       0.4247   0.0144   0.2805     O
O       0.4247   0.9856   0.7805     O
H        0.465    0.134     0.52     H
H        0.465    0.866     0.02     H
O        0.479   0.0897   0.5546     O
O        0.479   0.9103   0.0546     O
Mg         0.5  0.10341     0.75    Mg
Mg         0.5  0.89659     0.25    Mg
O        0.521   0.0897   0.9454     O
O        0.521   0.9103   0.4454     O
H        0.535    0.134     0.98     H
H        0.535    0.866     0.48     H
O       0.5753   0.0144   0.2195     O
O       0.5753   0.9856   0.7195     O
O      0.58117   0.2179   0.7712     O
O      0.58117   0.7821   0.2712     O
Mg     0.58297  0.03595  0.53959    Mg
Mg     0.58297  0.96405  0.03959    Mg
C       0.6258   0.0682   0.2876     C
C       0.6258   0.9318   0.7876     C
O      0.63051   0.0912   0.3982     O
O      0.63051   0.9088   0.8982     O
C       0.6363   0.2219   0.7194     C
C       0.6363   0.7781   0.2194     C
O      0.64534   0.1672   0.6283     O
O      0.64534   0.8328   0.1283     O
H        0.661    0.329     0.94     H
H        0.661    0.671     0.44     H
N       0.6836   0.0678   0.1101     N
N       0.6836   0.9322   0.6101     N
C       0.6881    0.107   0.2257     C
C       0.6881    0.893   0.7257     C
C       0.6996   0.2988   0.7777     C
C       0.6996   0.7012   0.2777     C
C       0.7024     0.34   0.8937     C
C       0.7024     0.66   0.3937     C
H        0.735    0.071    0.977     H
H        0.735    0.929    0.477     H
C        0.738   0.0952   0.0526     C
C        0.738   0.9048   0.5526     C
H        0.742    0.202    0.357     H
H        0.742    0.798    0.857     H
C       0.7451   0.1745   0.2843     C
C       0.7451   0.8255   0.7843     C
C       0.7549   0.3255   0.7157     C
C       0.7549   0.6745   0.2157     C
H        0.758    0.298    0.643     H
H        0.758    0.702    0.143     H
C        0.762   0.4048   0.9474     C
C        0.762   0.5952   0.4474     C
H        0.765    0.429    0.023     H
H        0.765    0.571    0.523     H
C       0.7976     0.16   0.1063     C
C       0.7976     0.84   0.6063     C
C       0.8004   0.2012   0.2223     C
C       0.8004   0.7988   0.7223     C
C       0.8119    0.393   0.7743     C
C       0.8119    0.607   0.2743     C
N       0.8164   0.4322   0.8899     N
N       0.8164   0.5678   0.3899     N
H        0.839    0.171     0.06     H
H        0.839    0.829     0.56     H
O      0.85466   0.3328   0.3717     O
O      0.85466   0.6672   0.8717     O
C       0.8637   0.2781   0.2806     C
C       0.8637   0.7219   0.7806     C
O      0.86949   0.4088   0.6018     O
O      0.86949   0.5912   0.1018     O
C       0.8742   0.4318   0.7124     C
C       0.8742   0.5682   0.2124     C
Mg     0.91703  0.46405  0.46041    Mg
Mg     0.91703  0.53595  0.96041    Mg
O      0.91883   0.2821   0.2288     O
O      0.91883   0.7179   0.7288     O
O       0.9247   0.4856   0.7805     O
O       0.9247   0.5144   0.2805     O
H        0.965    0.366     0.02     H
H        0.965    0.634     0.52     H
O        0.979   0.4103   0.0546     O
O        0.979   0.5897   0.5546     O
