data_I
_chemical_name_common  '/home/zhangsd/repos/MofS-CGCNN/ML/data/TSD/clean_cifs/NUDMAC_clean'
_cell_length_a 17.99580
_cell_length_b 12.85310
_cell_length_c 11.03940
_cell_angle_alpha 90.00000
_cell_angle_beta  103.58800
_cell_angle_gamma 90.00000
_space_group_name_H-M_alt      'P 1'


loop_
_space_group_symop_operation_xyz
  'x, y, z' 

loop_
_atom_site_label
_atom_site_fract_x
_atom_site_fract_y
_atom_site_fract_z
_atom_site_type_symbol
Mg         0.0  0.09773     0.25    Mg
Mg         0.0  0.90227     0.75    Mg
O      0.02131  0.08608  0.44628     O
O      0.02131  0.91392  0.94628     O
H       0.0372   0.1362    0.474     H
H       0.0372   0.8638    0.974     H
O       0.0767  0.01424  0.72109     O
O       0.0767  0.98576  0.22109     O
O      0.08303  0.20798  0.27519     O
O      0.08303  0.79202  0.77519     O
Mg     0.08536  0.03577  0.04191    Mg
Mg     0.08536  0.96423  0.54191    Mg
C      0.12943  0.06626  0.79095     C
C      0.12943  0.93374  0.29095     C
O      0.13494  0.08616  0.90271     O
O      0.13494  0.91384  0.40271     O
C      0.13655  0.21628  0.22092     C
C      0.13655  0.78372  0.72092     C
O      0.14517   0.1652  0.12839     O
O      0.14517   0.8348  0.62839     O
H       0.1646   0.3194    0.436     H
H       0.1646   0.6806    0.936     H
N      0.18614  0.06698  0.61422     N
N      0.18614  0.93302  0.11422     N
C      0.19074  0.10551  0.72954     C
C      0.19074  0.89449  0.22954     C
C      0.19803  0.29536  0.27529     C
C      0.19803  0.70464  0.77529     C
C      0.20159  0.33673  0.39237     C
C      0.20159  0.66327  0.89237     C
H       0.2359   0.0659    0.474     H
H       0.2359   0.9341    0.974     H
C      0.23999  0.09558  0.55585     C
C      0.23999  0.90442  0.05585     C
H       0.2461   0.2006    0.868     H
H       0.2461   0.7994    0.368     H
C      0.24715  0.17441  0.78757     C
C      0.24715  0.82559  0.28757     C
C      0.25285  0.32559  0.21243     C
C      0.25285  0.67441  0.71243     C
H       0.2539   0.2994    0.132     H
H       0.2539   0.7006    0.632     H
C      0.26001  0.40442  0.44415     C
C      0.26001  0.59558  0.94415     C
H       0.2641   0.4341    0.526     H
H       0.2641   0.5659    0.026     H
C      0.29841  0.16327  0.60763     C
C      0.29841  0.83673  0.10763     C
C      0.30197  0.20464  0.72471     C
C      0.30197  0.79536  0.22471     C
C      0.30926  0.39449  0.27046     C
C      0.30926  0.60551  0.77046     C
N      0.31386  0.43302  0.38578     N
N      0.31386  0.56698  0.88578     N
H       0.3354   0.1806    0.564     H
H       0.3354   0.8194    0.064     H
O      0.35483   0.3348  0.87161     O
O      0.35483   0.6652  0.37161     O
C      0.36345  0.28372  0.77908     C
C      0.36345  0.71628  0.27908     C
O      0.36506  0.41384  0.09729     O
O      0.36506  0.58616  0.59729     O
C      0.37057  0.43374  0.20905     C
C      0.37057  0.56626  0.70905     C
Mg     0.41464  0.46423  0.95809    Mg
Mg     0.41464  0.53577  0.45809    Mg
O      0.41697  0.29202  0.72481     O
O      0.41697  0.70798  0.22481     O
O       0.4233  0.48576  0.27891     O
O       0.4233  0.51424  0.77891     O
H       0.4628   0.3638    0.526     H
H       0.4628   0.6362    0.026     H
O      0.47869  0.41392  0.55372     O
O      0.47869  0.58608  0.05372     O
Mg         0.5  0.40227     0.75    Mg
Mg         0.5  0.59773     0.25    Mg
O      0.52131  0.41392  0.94628     O
O      0.52131  0.58608  0.44628     O
H       0.5372   0.3638    0.974     H
H       0.5372   0.6362    0.474     H
O       0.5767  0.48576  0.22109     O
O       0.5767  0.51424  0.72109     O
O      0.58303  0.29202  0.77519     O
O      0.58303  0.70798  0.27519     O
Mg     0.58536  0.46423  0.54191    Mg
Mg     0.58536  0.53577  0.04191    Mg
C      0.62943  0.43374  0.29095     C
C      0.62943  0.56626  0.79095     C
O      0.63494  0.41384  0.40271     O
O      0.63494  0.58616  0.90271     O
C      0.63655  0.28372  0.72092     C
C      0.63655  0.71628  0.22092     C
O      0.64517   0.3348  0.62839     O
O      0.64517   0.6652  0.12839     O
H       0.6646   0.1806    0.936     H
H       0.6646   0.8194    0.436     H
N      0.68614  0.43302  0.11422     N
N      0.68614  0.56698  0.61422     N
C      0.69074  0.39449  0.22954     C
C      0.69074  0.60551  0.72954     C
C      0.69803  0.20464  0.77529     C
C      0.69803  0.79536  0.27529     C
C      0.70159  0.16327  0.89237     C
C      0.70159  0.83673  0.39237     C
H       0.7359   0.4341    0.974     H
H       0.7359   0.5659    0.474     H
C      0.73999  0.40442  0.05585     C
C      0.73999  0.59558  0.55585     C
H       0.7461   0.2994    0.368     H
H       0.7461   0.7006    0.868     H
C      0.74715  0.32559  0.28757     C
C      0.74715  0.67441  0.78757     C
C      0.75285  0.17441  0.71243     C
C      0.75285  0.82559  0.21243     C
H       0.7539   0.2006    0.632     H
H       0.7539   0.7994    0.132     H
C      0.76001  0.09558  0.94415     C
C      0.76001  0.90442  0.44415     C
H       0.7641   0.0659    0.026     H
H       0.7641   0.9341    0.526     H
C      0.79841  0.33673  0.10763     C
C      0.79841  0.66327  0.60763     C
C      0.80197  0.29536  0.22471     C
C      0.80197  0.70464  0.72471     C
C      0.80926  0.10551  0.77046     C
C      0.80926  0.89449  0.27046     C
N      0.81386  0.06698  0.88578     N
N      0.81386  0.93302  0.38578     N
H       0.8354   0.3194    0.064     H
H       0.8354   0.6806    0.564     H
O      0.85483   0.1652  0.37161     O
O      0.85483   0.8348  0.87161     O
C      0.86345  0.21628  0.27908     C
C      0.86345  0.78372  0.77908     C
O      0.86506  0.08616  0.59729     O
O      0.86506  0.91384  0.09729     O
C      0.87057  0.06626  0.70905     C
C      0.87057  0.93374  0.20905     C
Mg     0.91464  0.03577  0.45809    Mg
Mg     0.91464  0.96423  0.95809    Mg
O      0.91697  0.20798  0.22481     O
O      0.91697  0.79202  0.72481     O
O       0.9233  0.01424  0.77891     O
O       0.9233  0.98576  0.27891     O
H       0.9628   0.1362    0.026     H
H       0.9628   0.8638    0.526     H
O      0.97869  0.08608  0.05372     O
O      0.97869  0.91392  0.55372     O
