data_I
_chemical_name_common  '/home/zhangsd/repos/MofS-CGCNN/ML/data/TSD/clean_cifs/NUFBEX_clean'
_cell_length_a  9.37890
_cell_length_b 10.92470
_cell_length_c 18.89930
_cell_angle_alpha 104.85800
_cell_angle_beta  94.31400
_cell_angle_gamma 107.71400
_space_group_name_H-M_alt      'P 1'


loop_
_space_group_symop_operation_xyz
  'x, y, z' 

loop_
_atom_site_label
_atom_site_fract_x
_atom_site_fract_y
_atom_site_fract_z
_atom_site_type_symbol
Zn         0.0      0.0      0.0    Zn
C       0.0185   0.9845  0.69875     C
C       0.0252   0.9108   0.4384     C
O       0.0273   0.0031  0.89148     O
C        0.031   0.0328  0.17492     C
Zn     0.04421  0.36595  0.76793    Zn
C       0.0454   0.8065   0.3752     C
C       0.0595   0.0053  0.57199     C
C       0.0695   0.6353  0.00736     C
C       0.0724   0.9817  0.76873     C
O       0.0735   0.2668  0.67197     O
C       0.0835   0.9198   0.5103     C
H       0.0854   0.0264   0.3141     H
C       0.0876   0.4256  0.01514     C
O       0.0893  0.84168   0.9819     O
C       0.1164   0.0033  0.64731     C
C       0.1288   0.7858  0.02589     C
H       0.1418   0.8649   0.5169     H
H       0.1463   0.3735    0.026     H
C       0.1597   0.5606   0.0219     C
O       0.1726   0.7957  0.37184     O
O       0.1737   0.0806  0.20025     O
O       0.1974   0.3703  0.84208     O
O         0.21   0.1528  0.03254     O
O       0.2106  0.84414  0.08923     O
C       0.2226   0.9919  0.78682     C
H       0.2459   0.2532   0.9268     H
H       0.2586   0.9875   0.8341     H
C       0.2674   0.0148  0.66586     C
Zn     0.31589  0.03581  0.13786    Zn
C         0.32   0.0085  0.73584     C
C       0.3288   0.6165  0.03877     C
H       0.3348   0.0269   0.6312     H
C       0.3405   0.4104  0.84322     C
C       0.3498   0.1744  0.03552     C
C       0.3537   0.2875  0.93605     C
H       0.3539   0.7215   0.9625     H
H       0.3587   0.5273   0.1187     H
O       0.4051   0.4772   0.8047     O
C       0.4082   0.6982  0.99853     C
C       0.4111   0.5829  0.09106     C
O       0.4174   0.9156    0.272     O
O       0.4269    0.138  0.07846     O
C       0.4309   0.3699  0.89683     C
C        0.434   0.2546  0.98923     C
C       0.4818   0.0184  0.75532     C
O       0.4975   0.0447  0.19886     O
O       0.5025   0.9553  0.80114     O
C       0.5182   0.9816  0.24468     C
C        0.566   0.7454  0.01077     C
C       0.5691   0.6301  0.10317     C
O       0.5731    0.862  0.92154     O
O       0.5826   0.0844    0.728     O
C       0.5889   0.4171  0.90894     C
C       0.5918   0.3018  0.00147     C
O       0.5949   0.5228   0.1953     O
H       0.6413   0.4727   0.8813     H
H       0.6461   0.2785   0.0375     H
C       0.6463   0.7125  0.06395     C
C       0.6502   0.8256  0.96448     C
C       0.6595   0.5896  0.15678     C
H       0.6652   0.9731   0.3688     H
C       0.6712   0.3835  0.96123     C
C         0.68   0.9915  0.26416     C
Zn     0.68411  0.96419  0.86214    Zn
C       0.7326   0.9852  0.33414     C
H       0.7414   0.0125   0.1659     H
H       0.7541   0.7468   0.0732     H
C       0.7774   0.0081  0.21318     C
O       0.7894  0.15586  0.91077     O
O         0.79   0.8472  0.96746     O
O       0.8026   0.6297  0.15792     O
O       0.8263   0.9194  0.79975     O
O       0.8274   0.2043  0.62816     O
C       0.8403   0.4394   0.9781     C
H       0.8537   0.6265    0.974     H
H       0.8582   0.1351   0.4831     H
C       0.8712   0.2142  0.97411     C
C       0.8836   0.9967  0.35269     C
O       0.9107  0.15832   0.0181     O
C       0.9124   0.5744  0.98486     C
H       0.9146   0.9736   0.6859     H
C       0.9165   0.0802   0.4897     C
O       0.9265   0.7332  0.32803     O
C       0.9276   0.0183  0.23127     C
C       0.9305   0.3647  0.99264     C
C       0.9405   0.9947  0.42801     C
C       0.9546   0.1935   0.6248     C
Zn     0.95579  0.63405  0.23207    Zn
C        0.969   0.9672  0.82508     C
O       0.9727   0.9969  0.10852     O
C       0.9748   0.0892   0.5616     C
C       0.9815   0.0155  0.30125     C
