data_I
_chemical_name_common  '/home/zhangsd/repos/MofS-CGCNN/ML/data/TSD/clean_cifs/NUHQIS_clean'
_cell_length_a 13.01300
_cell_length_b 13.84600
_cell_length_c 28.02900
_cell_angle_alpha 75.71000
_cell_angle_beta  79.28000
_cell_angle_gamma 85.59000
_space_group_name_H-M_alt      'P 1'


loop_
_space_group_symop_operation_xyz
  'x, y, z' 

loop_
_atom_site_label
_atom_site_fract_x
_atom_site_fract_y
_atom_site_fract_z
_atom_site_type_symbol
H       0.0031   0.8534   0.3207     H
C       0.0047    0.156   0.7494     C
C       0.0103   0.4274   0.2759     C
C       0.0168   0.5297     0.26     C
O       0.0188   0.1269  0.42219     O
H       0.0257   0.2624   0.3465     H
C       0.0268   0.1691   0.8344     C
Eu     0.03064  0.87534   0.0606    Eu
H       0.0321   0.4305   0.7242     H
H       0.0365   0.0421   0.2759     H
C        0.038   0.1679   0.6983     C
C       0.0391   0.7062   0.6464     C
O       0.0447   0.8889  0.14483     O
O       0.0553   0.0679   0.5276     O
H       0.0592   0.8729   0.2359     H
H       0.0615   0.0956     0.19     H
C       0.0633   0.1855   0.7787     C
C       0.0659   0.6205   0.6801     C
O       0.0695   0.2141  0.85899     O
C       0.0705   0.8356   0.5646     C
H        0.078   0.3016   0.2586     H
C       0.0818   0.3707     0.25     C
H       0.0833   0.1207   0.6085     H
O       0.0871   0.9821  0.36136     O
C       0.0936   0.5755   0.2215     C
H       0.0963   0.6447    0.212     H
O       0.0984   0.0324  0.03301     O
C          0.1    0.069   0.2586     C
C       0.1061   0.7463   0.6026     C
O       0.1074   0.1731  0.97435     O
O       0.1108   0.0158  0.92247     O
C       0.1152   0.1012   0.2068     C
Tb     0.11955  0.97887  0.44587    Tb
O       0.1236   0.8725  0.97834     O
C       0.1269     0.12   0.0149     C
O       0.1312   0.8647  0.52387     O
C       0.1328   0.2116   0.6756     C
C       0.1349   0.1666   0.5931     C
H       0.1371   0.0749   0.1118     H
C       0.1408   0.1117   0.5133     C
C       0.1518   0.9317   0.9364     C
C       0.1529    0.236   0.7555     C
C       0.1594    0.416   0.2112     C
C       0.1608   0.0386   0.3404     C
C       0.1641   0.5767   0.6687     C
C       0.1665   0.5168   0.1972     C
C       0.1706   0.2236   0.6207     C
C       0.1755   0.1772   0.5424     C
C       0.1764   0.1308   0.0959     C
C       0.1779   0.0765   0.2844     C
H       0.1839   0.5193   0.6907     H
C       0.1853   0.1656   0.0449     C
C        0.186   0.2488   0.7046     C
H       0.1913   0.2617   0.7742     H
O       0.2011   0.1011  0.47385     O
C       0.2044   0.7001   0.5918     C
H       0.2071   0.3766   0.1946     H
C        0.209   0.1417   0.1796     C
O       0.2204   0.0645  0.36426     O
C       0.2246   0.1771   0.1242     C
C       0.2338   0.6162   0.6252     C
C        0.239    0.897   0.8998     C
H       0.2409   0.0244   0.8459     H
H       0.2464   0.2837   0.6895     H
C        0.247   0.2948   0.5954     C
C       0.2471   0.2471   0.0207     C
C       0.2492   0.2478   0.5183     C
H       0.2496    0.726   0.5622     H
H       0.2528   0.2717   0.9863     H
C       0.2557   0.5656   0.1588     C
O       0.2594   0.6596   0.1472     O
H       0.2618   0.7594   0.9427     H
C        0.271   0.1177   0.2581     C
H       0.2721   0.3339   0.6131     H
C       0.2734   0.9618   0.8543     C
H       0.2748   0.2557   0.4843     H
C       0.2852   0.3069   0.5447     C
C       0.2855   0.8028   0.9122     C
C       0.2862   0.1492   0.2065     C
C       0.2869    0.258   0.1001     C
C       0.3005   0.2918   0.0478     C
H       0.3197   0.2897   0.1185     H
H       0.3239   0.1243   0.2752     H
O       0.3246   0.5082  0.14131     O
C       0.3391   0.5672   0.6142     C
H       0.3498   0.1762   0.1895     H
C       0.3573    0.933   0.8206     C
O       0.3602    0.483   0.6419     O
C       0.3605   0.3882   0.5177     C
C       0.3675   0.7735   0.8789     C
C       0.3692   0.3761   0.0208     C
O       0.3754   0.4094  0.47102     O
H        0.376   0.1274   0.7989     H
O       0.3871   0.6133  0.93314     O
O       0.3887   0.3929   0.9743     O
C       0.3991   0.0045   0.7725     C
O          0.4   0.4329  0.54318     O
C       0.4014   0.1043   0.7704     C
O       0.4018    0.428  0.04495     O
C       0.4026   0.8386    0.834     C
O       0.4043   0.6081  0.57651     O
C       0.4203   0.6721    0.892     C
H       0.4373   0.9058   0.7296     H
C       0.4385   0.9731   0.7291     C
C       0.4411   0.1716   0.7261     C
H       0.4412   0.2391   0.7255     H
O       0.4433    0.815   0.4031     O
H       0.4583   0.8187   0.8121     H
Eu     0.47158  0.53808  0.41513    Eu
C         0.48   0.0401   0.6847     C
C         0.48   0.1402   0.6834     C
C       0.4804   0.7848   0.3649     C
Eu     0.48279  0.51908   0.0859    Eu
O       0.4908   0.6945  0.36314     O
H       0.4927   0.9829   0.3438     H
O        0.496   0.6492  0.86176     O
O        0.504   0.3508  0.13824     O
H       0.5073   0.0171   0.6562     H
O       0.5092   0.3055  0.63686     O
Eu     0.51721  0.48092   0.9141    Eu
C       0.5196   0.2152   0.6351     C
C         0.52   0.8598   0.3166     C
C         0.52   0.9599   0.3153     C
Eu     0.52842  0.46192  0.58487    Eu
H       0.5417   0.1813   0.1879     H
O       0.5567    0.185   0.5969     O
H       0.5588   0.7609   0.2745     H
C       0.5589   0.8284   0.2739     C
C       0.5615   0.0269   0.2709     C
H       0.5627   0.0942   0.2704     H
C       0.5797   0.3279    0.108     C
O       0.5957   0.3919  0.42349     O
C       0.5974   0.1614    0.166     C
O       0.5982    0.572  0.95505     O
C       0.5986   0.8957   0.2296     C
O          0.6   0.5671  0.45682     O
C       0.6009   0.9955   0.2275     C
O       0.6113   0.6071   0.0257     O
O       0.6129   0.3867  0.06686     O
H        0.624   0.8726   0.2011     H
O       0.6246   0.5906  0.52898     O
C       0.6308   0.6239   0.9792     C
C       0.6325   0.2265   0.1211     C
C       0.6395   0.6118   0.4823     C
O       0.6398    0.517   0.3581     O
C       0.6427    0.067   0.1794     C
H       0.6502   0.8238   0.8105     H
C       0.6609   0.4328   0.3858     C
O       0.6754   0.4918  0.85869     O
H       0.6761   0.8757   0.7248     H
H       0.6803   0.7103   0.8815     H
C       0.6995   0.7082   0.9522     C
C       0.7131    0.742   0.8999     C
C       0.7138   0.8508   0.7935     C
C       0.7145   0.1972   0.0878     C
C       0.7148   0.6931   0.4553     C
H       0.7252   0.7443   0.5157     H
C       0.7266   0.0382   0.1457     C
H       0.7279   0.6661   0.3869     H
C        0.729   0.8823   0.7419     C
H       0.7382   0.2406   0.0573     H
O       0.7406   0.3404   0.8528     O
C       0.7443   0.4344   0.8412     C
H       0.7472   0.7283   0.0137     H
H       0.7504    0.274   0.4378     H
C       0.7508   0.7522   0.4817     C
C       0.7529   0.7529   0.9793     C
C        0.753   0.7052   0.4046     C
H       0.7536   0.7163   0.3105     H
H       0.7591   0.9756   0.1541     H
C        0.761    0.103   0.1002     C
C       0.7662   0.3838   0.3748     C
C       0.7754   0.8229   0.8758     C
O       0.7796   0.9355  0.63574     O
C        0.791   0.8583   0.8204     C
H       0.7929   0.6234   0.8054     H
C       0.7956   0.2999   0.4082     C
O       0.7989   0.8989  0.52615     O
H       0.8087   0.7383   0.2258     H
C        0.814   0.7512   0.2954     C
C       0.8147   0.8344   0.9551     C
H       0.8161   0.4807   0.3093     H
C       0.8221   0.9235   0.7156     C
C       0.8236   0.8692   0.9041     C
C       0.8245   0.8228   0.4576     C
C       0.8294   0.7764   0.3793     C
C       0.8335   0.4832   0.8028     C
C       0.8359   0.4233   0.3313     C
C       0.8392   0.9614   0.6596     C
C       0.8406    0.584   0.7888     C
C       0.8471    0.764   0.2445     C
C       0.8482   0.0683   0.0636     C
C       0.8592   0.8883   0.4867     C
H       0.8629   0.9251   0.8882     H
C       0.8651   0.8334   0.4069     C
C       0.8672   0.7884   0.3244     C
O       0.8688   0.1353  0.47613     O
C       0.8731     0.88   0.9851     C
O       0.8764   0.1275  0.02166     O
Eu     0.88045  0.02113  0.55413    Eu
C       0.8848   0.8988   0.7932     C
O       0.8892   0.9842  0.07753     O
O       0.8926   0.8269  0.02565     O
C       0.8939   0.2537   0.3974     C
C          0.9    0.931   0.7414     C
O       0.9016   0.9676  0.96699     O
H       0.9037   0.3553    0.788     H
C       0.9064   0.4245   0.7785     C
O       0.9129   0.0179  0.63864     O
H       0.9167   0.8793   0.3915     H
C       0.9182   0.6293     0.75     C
H        0.922   0.6984   0.7414     H
C       0.9295   0.1644   0.4354     C
O       0.9305   0.7859  0.14101     O
C       0.9341   0.3795   0.3199     C
C       0.9367   0.8145   0.2213     C
H       0.9385   0.9044     0.81     H
H       0.9408   0.1271   0.7641     H
O       0.9447   0.9321   0.4724     O
O       0.9553   0.1111  0.85517     O
C       0.9609   0.2938   0.3536     C
C        0.962   0.8321   0.3017     C
H       0.9635   0.9579   0.7241     H
H       0.9679   0.5695   0.2758     H
Eu     0.96936  0.12466   0.9394    Eu
C       0.9732   0.8309   0.1656     C
H       0.9743   0.7376   0.6535     H
O       0.9812   0.8731  0.57781     O
C       0.9832   0.4703     0.74     C
C       0.9897   0.5726   0.7241     C
C       0.9953    0.844   0.2506     C
H       0.9969   0.1466   0.6793     H
