data_I
_chemical_name_common  '/home/zhangsd/repos/MofS-CGCNN/ML/data/TSD/clean_cifs/NUHQUE_clean'
_cell_length_a 13.02900
_cell_length_b 13.82800
_cell_length_c 28.02100
_cell_angle_alpha 75.72000
_cell_angle_beta  79.23000
_cell_angle_gamma 85.59000
_space_group_name_H-M_alt      'P 1'


loop_
_space_group_symop_operation_xyz
  'x, y, z' 

loop_
_atom_site_label
_atom_site_fract_x
_atom_site_fract_y
_atom_site_fract_z
_atom_site_type_symbol
H       0.0027   0.8525    0.321     H
C       0.0051   0.1552   0.7498     C
C       0.0109   0.4262   0.2752     C
C        0.017   0.5288   0.2599     C
O       0.0189   0.1266  0.42223     O
H       0.0262   0.2614   0.3461     H
C       0.0272   0.1696   0.8347     C
Eu     0.03079  0.87523  0.06044    Eu
H        0.032   0.4318   0.7241     H
H       0.0368   0.0435   0.2762     H
C       0.0384   0.1681   0.6982     C
C       0.0387   0.7073   0.6466     C
O       0.0455   0.8893  0.14445     O
O       0.0542   0.0681  0.52797     O
H       0.0583   0.8748   0.2353     H
H       0.0634   0.0921   0.1897     H
C       0.0637   0.1857   0.7788     C
C       0.0666    0.621   0.6804     C
O       0.0684    0.214  0.85937     O
C       0.0702   0.8363   0.5652     C
H       0.0786   0.3001    0.259     H
C        0.082   0.3694     0.25     C
H       0.0821   0.1214   0.6091     H
O       0.0865   0.9821  0.36204     O
C       0.0934   0.5751   0.2215     C
H       0.0953   0.6444   0.2123     H
O       0.0988   0.0316  0.03307     O
C       0.1007   0.0692   0.2588     C
C       0.1056   0.7474   0.6025     C
O       0.1064   0.1729  0.97467     O
O       0.1107   0.0167  0.92225     O
C       0.1161   0.0996   0.2067     C
Tb     0.11987  0.97871  0.44597    Tb
O       0.1239   0.8723  0.97839     O
C       0.1273   0.1197   0.0151     C
O        0.131   0.8655  0.52396     O
C       0.1329   0.2118    0.676     C
C       0.1343   0.1667   0.5934     C
H       0.1366    0.075   0.1121     H
C       0.1407   0.1113   0.5133     C
C       0.1508   0.9316   0.9363     C
C       0.1532   0.2359    0.756     C
C       0.1597   0.4152   0.2108     C
C       0.1606   0.0384   0.3409     C
C       0.1647   0.5772   0.6686     C
C       0.1677   0.5177   0.1966     C
C       0.1711   0.2238   0.6207     C
C       0.1748   0.1765   0.5427     C
C       0.1763   0.1307   0.0961     C
C       0.1779   0.0766   0.2847     C
H       0.1847   0.5195   0.6903     H
C       0.1856   0.1651   0.0452     C
C       0.1869   0.2486   0.7048     C
H       0.1914   0.2614   0.7748     H
O        0.201   0.1004  0.47394     O
C       0.2046   0.7019    0.592     C
H       0.2068   0.3756   0.1941     H
C       0.2097    0.141   0.1801     C
O       0.2216   0.0638  0.36464     O
C       0.2244   0.1765   0.1245     C
C       0.2338   0.6173   0.6251     C
C       0.2375   0.8974   0.8999     C
H       0.2419   0.0248   0.8458     H
H       0.2477   0.2829   0.6898     H
C        0.248   0.2947   0.5957     C
C       0.2482   0.2465   0.0208     C
C       0.2495   0.2476   0.5189     C
H       0.2503   0.7287   0.5628     H
H       0.2544   0.2704   0.9863     H
C       0.2564   0.5647   0.1586     C
O       0.2609   0.6587  0.14699     O
H       0.2613   0.7604   0.9425     H
C       0.2722   0.1164   0.2585     C
C       0.2734   0.9617   0.8541     C
H       0.2741    0.333   0.6135     H
H       0.2761    0.255    0.485     H
C       0.2843   0.3071    0.545     C
C       0.2848   0.8037   0.9119     C
C       0.2865    0.149   0.2069     C
C        0.288   0.2581   0.1001     C
C       0.3015   0.2921   0.0477     C
H       0.3212   0.2895   0.1185     H
O       0.3253    0.508  0.14124     O
H       0.3257   0.1212   0.2755     H
C       0.3393   0.5675   0.6141     C
H       0.3495    0.177   0.1898     H
C       0.3564   0.9331   0.8204     C
C       0.3601   0.3879   0.5183     C
O       0.3607   0.4837  0.64209     O
C       0.3669   0.7731   0.8789     C
C       0.3696   0.3767    0.021     C
H       0.3757   0.1277    0.799     H
O       0.3763   0.4093  0.47126     O
O       0.3875   0.6132  0.93298     O
O        0.389   0.3932  0.97449     O
C       0.3983   0.0045   0.7723     C
O       0.3996    0.432  0.54371     O
C       0.4008   0.1046   0.7703     C
C       0.4009   0.8378   0.8333     C
O        0.403   0.4275  0.04546     O
O       0.4046   0.6079  0.57681     O
C       0.4192   0.6724   0.8923     C
C        0.439   0.9721   0.7286     C
H       0.4396   0.9045   0.7292     H
C       0.4408   0.1722   0.7258     C
H       0.4411   0.2398   0.7251     H
O        0.444   0.8145   0.4033     O
H       0.4548   0.8171   0.8108     H
Eu     0.47153   0.5376  0.41498    Eu
C       0.4785   0.0398   0.6844     C
C       0.4797   0.1396   0.6829     C
C       0.4811   0.7843    0.365     C
Eu     0.48313  0.51919  0.08585    Eu
O       0.4904   0.6942  0.36318     O
H       0.4957   0.9829   0.3443     H
O       0.4959   0.6485  0.86133     O
O       0.5041   0.3515  0.13867     O
H       0.5043   0.0171   0.6557     H
O       0.5096   0.3058  0.63682     O
Eu     0.51687  0.48081  0.91415    Eu
C       0.5189   0.2157    0.635     C
C       0.5203   0.8604   0.3171     C
C       0.5215   0.9602   0.3156     C
Tb     0.52847   0.4624  0.58502    Tb
H       0.5452   0.1829   0.1892     H
O        0.556   0.1855   0.5967     O
H       0.5589   0.7602   0.2749     H
C       0.5592   0.8278   0.2742     C
H       0.5604   0.0955   0.2708     H
C        0.561   0.0279   0.2714     C
C       0.5808   0.3276   0.1077     C
O       0.5954   0.3921  0.42319     O
O        0.597   0.5725  0.95454     O
C       0.5991   0.1622   0.1667     C
C       0.5992   0.8954   0.2297     C
O       0.6004    0.568  0.45629     O
C       0.6017   0.9955   0.2277     C
O        0.611   0.6068  0.02551     O
O       0.6125   0.3868  0.06702     O
O       0.6237   0.5907  0.52874     O
H       0.6243   0.8723    0.201     H
C       0.6304   0.6233    0.979     C
C       0.6331   0.2269   0.1211     C
O       0.6393   0.5163  0.35791     O
C       0.6399   0.6121   0.4817     C
C       0.6436   0.0669   0.1796     C
H       0.6505    0.823   0.8102     H
C       0.6607   0.4325   0.3859     C
H       0.6743   0.8788   0.7245     H
O       0.6747    0.492  0.85876     O
H       0.6788   0.7105   0.8815     H
C       0.6985   0.7079   0.9523     C
C        0.712   0.7419   0.8999     C
C       0.7135    0.851   0.7931     C
C       0.7152   0.1963   0.0881     C
C       0.7157   0.6929    0.455     C
H       0.7239    0.745    0.515     H
H       0.7259    0.667   0.3865     H
C       0.7266   0.0383   0.1459     C
C       0.7278   0.8836   0.7415     C
H       0.7387   0.2396   0.0575     H
O       0.7391   0.3413  0.85301     O
C       0.7436   0.4353   0.8414     C
H       0.7456   0.7296   0.0137     H
H       0.7497   0.2713   0.4372     H
C       0.7505   0.7524   0.4811     C
C       0.7518   0.7535   0.9792     C
C        0.752   0.7053   0.4043     C
H       0.7523   0.7171   0.3102     H
H       0.7581   0.9752   0.1542     H
C       0.7625   0.1026   0.1001     C
C       0.7662   0.3827   0.3749     C
C       0.7756   0.8235   0.8755     C
O       0.7784   0.9362  0.63536     O
C       0.7903    0.859   0.8199     C
H       0.7932   0.6244   0.8059     H
C       0.7954   0.2981    0.408     C
O        0.799   0.8996  0.52606     O
H       0.8086   0.7386   0.2252     H
C       0.8131   0.7514   0.2952     C
C       0.8144   0.8349   0.9548     C
H       0.8153   0.4805   0.3097     H
C       0.8221   0.9234   0.7153     C
C       0.8237   0.8693   0.9039     C
C       0.8252   0.8235   0.4573     C
C       0.8289   0.7762   0.3793     C
C       0.8323   0.4823   0.8034     C
C       0.8353   0.4228   0.3314     C
C       0.8394   0.9616   0.6591     C
C       0.8403   0.5848   0.7892     C
C       0.8468   0.7641    0.244     C
C       0.8492   0.0684   0.0637     C
C       0.8593   0.8887   0.4867     C
H       0.8634    0.925   0.8879     H
C       0.8657   0.8333   0.4066     C
C       0.8671   0.7882    0.324     C
O        0.869   0.1345  0.47604     O
C       0.8727   0.8803   0.9849     C
O       0.8761   0.1277  0.02161     O
Eu     0.88013  0.02129  0.55403    Eu
C       0.8839   0.9004   0.7933     C
O       0.8893   0.9833  0.07775     O
O       0.8936   0.8271  0.02533     O
C       0.8944   0.2526   0.3975     C
C       0.8993   0.9308   0.7412     C
O       0.9012   0.9684  0.96693     O
H       0.9047   0.3556   0.7877     H
C       0.9066   0.4249   0.7785     C
O       0.9135   0.0179  0.63796     O
H       0.9179   0.8786   0.3909     H
C        0.918   0.6306     0.75     C
H       0.9214   0.6999    0.741     H
C       0.9298   0.1637   0.4348     C
O       0.9316    0.786  0.14063     O
C       0.9334    0.379   0.3196     C
C       0.9363   0.8143   0.2212     C
H       0.9366   0.9079   0.8103     H
H       0.9417   0.1252   0.7647     H
O       0.9458   0.9319  0.47203     O
O       0.9545   0.1107  0.85555     O
C       0.9613   0.2927   0.3534     C
C       0.9616   0.8319   0.3018     C
H       0.9632   0.9565   0.7238     H
H        0.968   0.5682   0.2759     H
Tb     0.96921  0.12477  0.93955    Tb
C       0.9728   0.8304   0.1653     C
H       0.9738   0.7386   0.6539     H
O       0.9811   0.8734  0.57777     O
C        0.983   0.4712   0.7401     C
C       0.9891   0.5738   0.7248     C
C       0.9949   0.8448   0.2502     C
H       0.9973   0.1475    0.679     H
