data_I
_chemical_name_common  '/home/zhangsd/repos/MofS-CGCNN/ML/data/TSD/clean_cifs/NUVWEH_clean'
_cell_length_a 13.44180
_cell_length_b 13.44180
_cell_length_c 13.44180
_cell_angle_alpha 94.77470
_cell_angle_beta  117.28300
_cell_angle_gamma 117.28300
_space_group_name_H-M_alt      'P 1'


loop_
_space_group_symop_operation_xyz
  'x, y, z' 

loop_
_atom_site_label
_atom_site_fract_x
_atom_site_fract_y
_atom_site_fract_z
_atom_site_type_symbol
O       0.0126   0.2155   0.0425     O
O       0.0189    0.838   0.0787     O
H       0.0241   0.1058   0.5189     H
O       0.0402   0.6652    0.125     O
H       0.0477   0.5625   0.2196     H
C       0.0511   0.5698   0.1499     C
H       0.0523   0.4041   0.8002     H
C       0.0669   0.9666   0.3653     C
O       0.0721    0.375   0.9471     O
H       0.0737   0.5058   0.8909     H
C       0.0801   0.1802   0.7313     C
C       0.0819   0.1574   0.8407     C
C       0.0831   0.0618   0.3097     C
H       0.0869   0.2552   0.7311     H
C       0.1013   0.4516   0.8847     C
H       0.1039   0.0021   0.4498     H
H       0.1149   0.9328   0.3591     H
H       0.1571   0.1875   0.7352     H
O        0.173   0.9575   0.9701     O
O       0.1803   0.2357   0.9396     O
C       0.1833   0.5926   0.1745     C
O       0.1907   0.1611    0.372     O
O       0.2039   0.5143   0.1946     O
O       0.2109   0.0296   0.8389     O
La       0.236    0.861    0.125    La
O       0.2407   0.1809    0.162     O
C       0.2479   0.0213   0.9382     C
C       0.2521   0.5234   0.9403     C
O       0.2593   0.6902   0.1713     O
La       0.264    0.375    0.139    La
O       0.2891   0.5687    0.878     O
O       0.2961   0.0604   0.2407     O
O       0.3093   0.7204   0.4313     O
C       0.3167   0.1593   0.2412     C
O       0.3197   0.8054   0.0093     O
O        0.327   0.5345   0.0471     O
H       0.3429   0.7804   0.8281     H
H       0.3851   0.5679   0.4942     H
H       0.3961   0.6482   0.5959     H
C       0.3987   0.1003   0.0334     C
H       0.4131   0.9183   0.8942     H
C       0.4169   0.7287   0.4766     C
C       0.4181   0.8255   0.0088     C
C       0.4199   0.8501   0.9012     C
H       0.4263   0.1821   0.0672     H
O       0.4279   0.0529    0.125     O
C       0.4331   0.6497   0.5484     C
H       0.4477   0.1018   0.9979     H
C       0.4489   0.2687   0.3488     C
H       0.4523   0.2648   0.4219     H
O       0.4598    0.375   0.3348     O
H       0.4759   0.8317   0.7448     H
O       0.4811   0.5691   0.3098     O
O       0.4874   0.9529   0.2799     O
O       0.5126   0.7925   0.4655     O
O       0.5189   0.8287    0.088     O
H       0.5241   0.2689   0.3558     H
O       0.5402    0.875   0.9152     O
H       0.5477   0.9696   0.8125     H
C       0.5511   0.8999   0.8198     C
H       0.5523   0.5502   0.6541     H
C       0.5669   0.1153   0.2166     C
O       0.5721   0.6971    0.625     O
H       0.5737   0.6409   0.7558     H
C       0.5801   0.4813   0.4302     C
C       0.5819   0.5907   0.4074     C
C       0.5831   0.0597   0.3118     C
H       0.5869   0.4811   0.5052     H
C       0.6013   0.6347   0.7016     C
H       0.6039   0.1998   0.2521     H
H       0.6149   0.1091   0.1828     H
H       0.6571   0.4852   0.4375     H
O        0.673   0.7201   0.2075     O
O       0.6803   0.6896   0.4857     O
C       0.6833   0.9245   0.8426     C
O       0.6907    0.122   0.4111     O
O       0.7039   0.9446   0.7643     O
O       0.7109   0.5889   0.2796     O
La       0.736    0.875    0.111    La
O       0.7407    0.912   0.4309     O
C       0.7479   0.6882   0.2713     C
C       0.7521   0.6903   0.7734     C
O       0.7593   0.9213   0.9402     O
La       0.764    0.889    0.625    La
O       0.7891    0.628   0.8187     O
O       0.7961   0.9907   0.3104     O
O       0.8093   0.1813   0.9704     O
C       0.8167   0.9912   0.4093     C
O       0.8197   0.7593   0.0554     O
O        0.827   0.7971   0.7845     O
H       0.8429   0.5781   0.0304     H
H       0.8851   0.2442   0.8179     H
H       0.8961   0.3459   0.8982     H
C       0.8987   0.7834   0.3503     C
H       0.9131   0.6442   0.1683     H
C       0.9169   0.2266   0.9787     C
C       0.9181   0.7588   0.0755     C
C       0.9199   0.6512   0.1001     C
H       0.9263   0.8172   0.4321     H
O       0.9279    0.875   0.3029     O
C       0.9331   0.2984   0.8997     C
H       0.9477   0.7479   0.3518     H
C       0.9489   0.0988   0.5187     C
H       0.9523   0.1719   0.5148     H
O       0.9598   0.0848    0.625     O
H       0.9759   0.4948   0.0817     H
O       0.9811   0.0598   0.8191     O
O       0.9874   0.0299   0.2029     O
