data_I
_chemical_name_common  '/home/zhangsd/repos/MofS-CGCNN/ML/data/TSD/clean_cifs/OBIBEJ_clean'
_cell_length_a 15.54700
_cell_length_b 20.20300
_cell_length_c 20.45100
_cell_angle_alpha 118.19000
_cell_angle_beta  95.92000
_cell_angle_gamma 103.52000
_space_group_name_H-M_alt      'P 1'


loop_
_space_group_symop_operation_xyz
  'x, y, z' 

loop_
_atom_site_label
_atom_site_fract_x
_atom_site_fract_y
_atom_site_fract_z
_atom_site_type_symbol
C        0.006   0.3373   0.5917     C
C       0.0062   0.6979   0.3631     C
H       0.0085   0.2877   0.3368     H
H       0.0105   0.3626   0.1107     H
H       0.0145   0.6184   0.7639     H
C       0.0181   0.6764   0.6711     C
O       0.0191   0.0104   0.7146     O
H       0.0216   0.2999    0.981     H
H       0.0273    0.633   0.5316     H
H       0.0283   0.4456   0.5492     H
H       0.0289   0.6922   0.7253     H
O       0.0323   0.7731    0.276     O
H       0.0325   0.1397   0.3458     H
C       0.0335    0.221   0.6935     C
H        0.034   0.6357   0.4141     H
C       0.0341   0.4056   0.4992     C
C        0.047   0.2599   0.6445     C
C       0.0487   0.3303   0.0951     C
C       0.0488   0.4098   0.3786     C
C       0.0519   0.4109   0.2549     C
H       0.0533   0.6919   0.3368     H
C       0.0543    0.291   0.0164     C
O       0.0601   0.2019   0.8611     O
C        0.065   0.9988    0.284     C
H       0.0655     0.45    0.238     H
C        0.076   0.4455   0.4574     C
C       0.0762   0.3319   0.5565     C
H       0.0762   0.6792   0.6562     H
C       0.0811    0.452    0.341     C
O       0.0896   0.1875   0.7017     O
Ca     0.09012  0.81751  0.19907    Ca
C       0.0922   0.1465   0.3377     C
O       0.0963   0.3648   0.5104     O
C          0.1   0.3203   0.1481     C
O       0.1015   0.9466   0.2728     O
H       0.1024   0.7973   0.5669     H
O       0.1035   0.3567   0.2261     O
C       0.1058   0.2411   0.9913     C
C       0.1119   0.2012   0.9101     C
C       0.1188   0.2531   0.6056     C
C       0.1222   0.0805   0.3066     C
H       0.1224   0.5798    0.319     H
H       0.1234   0.2653   0.3768     H
H       0.1248   0.5681   0.6119     H
C       0.1337   0.2885   0.5614     C
H         0.14   0.9262   0.6707     H
C       0.1422   0.5223   0.5016     C
Ca     0.14348   0.1229  0.75551    Ca
C       0.1462   0.5305   0.3859     C
C       0.1469   0.2222   0.3576     C
H       0.1481   0.8153   0.1165     H
O       0.1523   0.8589   0.1142     O
C       0.1541   0.2699   0.1238     C
H       0.1569   0.2241     0.61     H
C       0.1587   0.2314   0.0491     C
C       0.1604    0.821   0.6023     C
O        0.172   0.1642   0.8942     O
C        0.176   0.5743   0.3432     C
C       0.1762   0.5617   0.5882     C
C       0.1766   0.5645   0.4648     C
H       0.1811   0.2835   0.5354     H
C       0.1828   0.8982   0.6625     C
O       0.1863   0.6996   0.5306     O
H       0.1877   0.2626   0.1599     H
H        0.196   0.1983    0.034     H
H        0.196   0.8627   0.0927     H
H        0.204   0.5284   0.5998     H
H       0.2047    0.544   0.3038     H
C       0.2142   0.0937   0.2971     C
H       0.2164   0.3648   0.3476     H
H       0.2198   0.6271   0.3797     H
C       0.2199   0.7768   0.5917     C
H       0.2218   0.6138   0.6086     H
H       0.2235   0.3713   0.4293     H
C       0.2369    0.234   0.3488     C
H       0.2387   0.0511   0.2783     H
O        0.243   0.0572   0.7844     O
C       0.2433   0.6475   0.5106     C
C       0.2587   0.3717   0.3917     C
C       0.2677   0.1699   0.3157     C
C       0.2722    0.934   0.7116     C
H         0.28   0.2902   0.7359     H
H       0.2808   0.4386   0.5482     H
H       0.2815   0.6558   0.5574     H
H       0.2837   0.6578   0.4798     H
O       0.2887   0.2244   0.8154     O
H       0.2954   0.3795   0.2794     H
H       0.2959   0.4563   0.2744     H
O       0.2967   0.3053   0.3654     O
C       0.2992   0.0199   0.7766     C
C       0.3095   0.8132   0.6391     C
H       0.3152   0.6955   0.1001     H
H       0.3262   0.1771   0.3051     H
H       0.3273   0.7441   0.7503     H
H       0.3282   0.3437   0.6606     H
Ca     0.32898  0.17463   0.9104    Ca
C        0.332   0.4336   0.2952     C
C       0.3346   0.4506   0.4285     C
H       0.3352   0.7949   0.8782     H
C       0.3354   0.8935   0.6998     C
C       0.3406   0.2976   0.7297     C
C       0.3471   0.4541   0.5544     C
O       0.3473   0.7474   0.1251     O
H       0.3518   0.7847   0.6306     H
C       0.3601    0.485   0.3835     C
H       0.3665    0.407   0.5361     H
C       0.3706   0.3315   0.6865     C
C       0.3713   0.2354   0.8098     C
C       0.3721   0.4937   0.5078     C
C       0.3732   0.7391   0.7805     C
H        0.378   0.4915   0.6086     H
O       0.3782   0.0511   0.8228     O
C       0.3784   0.7702   0.8568     C
H       0.3803   0.5696   0.3192     H
H       0.3869   0.4323   0.2756     H
O       0.3951   0.8296   0.0164     O
H       0.3956   0.9193   0.7322     H
C       0.4009   0.2754   0.7626     C
C       0.4117   0.5647   0.4183     C
H       0.4148   0.6556   0.3956     H
O       0.4157   0.6648   0.6663     O
H       0.4218   0.6754   0.2994     H
C        0.425   0.6036   0.3697     C
O       0.4297   0.2177   0.8427     O
C       0.4313   0.5731    0.542     C
C       0.4335      0.7   0.7451     C
H       0.4344   0.2917   0.4318     H
H       0.4418    0.273   0.1018     H
C       0.4456   0.7663    0.904     C
C       0.4498   0.6091   0.4993     C
H        0.454   0.3257   0.2334     H
C        0.458   0.8017   0.9881     C
C       0.4597   0.3475   0.6808     C
H       0.4646   0.3444   0.3597     H
H       0.4693   0.7282   0.2216     H
Ca     0.47156   0.8565  0.15114    Ca
H        0.473     0.73   0.5729     H
C       0.4731   0.6195   0.6283     C
H       0.4776   0.5824   0.6462     H
O       0.4796    0.203   0.9723     O
C       0.4809   0.6795     0.29     C
O       0.4815   0.3856   0.6406     O
H       0.4869   0.2875   0.5005     H
C       0.4896   0.2866   0.7545     C
C       0.4901   0.2704   0.1319     C
C       0.4945   0.3019   0.4614     C
C       0.4976   0.3024   0.2109     C
C       0.5024   0.6976   0.7891     C
C       0.5055   0.6981   0.5386     C
C       0.5099   0.7296   0.8681     C
C       0.5104   0.7134   0.2455     C
H       0.5131   0.7125   0.4995     H
O       0.5185   0.6144   0.3594     O
C       0.5191   0.3205     0.71     C
O       0.5204    0.797   0.0277     O
H       0.5224   0.4176   0.3538     H
C       0.5269   0.3805   0.3717     C
H        0.527     0.27   0.4271     H
Ca     0.52844   0.1435  0.84886    Ca
H       0.5307   0.2718   0.7784     H
H       0.5354   0.6556   0.6403     H
C       0.5403   0.6525   0.3192     C
C        0.542   0.1983   0.0119     C
H        0.546   0.6743   0.7666     H
C       0.5502   0.3909   0.5007     C
C       0.5544   0.2337    0.096     C
H       0.5582    0.727   0.8982     H
H       0.5656   0.7083   0.5682     H
C       0.5665      0.3   0.2549     C
C       0.5687   0.4269    0.458     C
O       0.5703   0.7823   0.1573     O
C        0.575   0.3964   0.6303     C
H       0.5782   0.3246   0.7006     H
O       0.5843   0.3352   0.3337     O
H       0.5852   0.3444   0.6044     H
C       0.5883   0.4353   0.5817     C
C       0.5991   0.7246   0.2374     C
H       0.6044   0.0807   0.2678     H
O       0.6049   0.1704   0.9836     O
H       0.6131   0.5677   0.7244     H
H       0.6197   0.4304   0.6808     H
C       0.6216   0.2298   0.1432     C
O       0.6218   0.9489   0.1772     O
H        0.622   0.5085   0.3914     H
C       0.6268   0.2609   0.2195     C
C       0.6279   0.5063   0.4922     C
C       0.6287   0.7646   0.1902     C
C       0.6294   0.6685   0.3135     C
H       0.6335    0.593   0.4639     H
C       0.6399    0.515   0.6165     C
H       0.6482   0.2153   0.3694     H
O       0.6527   0.2526   0.8749     O
C       0.6529   0.5459   0.4456     C
C       0.6594   0.7024   0.2703     C
C       0.6646   0.1065   0.3002     C
H       0.6648   0.2051   0.1218     H
C       0.6654   0.5494   0.5715     C
C        0.668   0.5664   0.7048     C
Ca     0.67102  0.82537   0.0896    Ca
H       0.6718   0.6563   0.3394     H
H       0.6727   0.2559   0.2497     H
H       0.6738   0.8229   0.6949     H
H       0.6848   0.3045   0.8999     H
C       0.6905   0.1868   0.3609     C
C       0.7008   0.9801   0.2234     C
O       0.7033   0.6947   0.6346     O
H       0.7041   0.5437   0.7256     H
H       0.7046   0.6205   0.7206     H
O       0.7113   0.7756   0.1846     O
H       0.7163   0.3422   0.5202     H
H       0.7185   0.3442   0.4426     H
H       0.7192   0.5614   0.4518     H
H         0.72   0.7098   0.2641     H
C       0.7278    0.066   0.2884     C
C       0.7323   0.8301   0.6843     C
C       0.7413   0.6283   0.6083     C
C       0.7567   0.3525   0.4894     C
O        0.757   0.9428   0.2156     O
H       0.7613   0.9489   0.7217     H
C       0.7631    0.766   0.6512     C
H       0.7765   0.6287   0.5707     H
H       0.7782   0.3862   0.3914     H
C       0.7801   0.2232   0.4083     C
H       0.7802   0.3729   0.6203     H
H       0.7836   0.6352   0.6524     H
C       0.7858   0.9063   0.7029     C
H       0.7953    0.456   0.6962     H
H        0.796   0.4716   0.4002     H
H        0.804   0.1373   0.9073     H
H        0.804   0.8017    0.966     H
H       0.8123   0.7374   0.8401     H
O       0.8137   0.3004   0.4694     O
C       0.8172   0.1018   0.3375     C
H       0.8189   0.7165   0.4646     H
C       0.8234   0.4355   0.5352     C
C       0.8238   0.4383   0.4118     C
C        0.824   0.4257   0.6568     C
O        0.828   0.8358   0.1058     O
C       0.8396    0.179   0.3977     C
C       0.8413   0.7686   0.9509     C
H       0.8431   0.7759     0.39     H
C       0.8459   0.7301   0.8762     C
O       0.8477   0.1411   0.8858     O
H       0.8519   0.1847   0.8835     H
C       0.8531   0.7778   0.6424     C
C       0.8538   0.4695   0.6141     C
Ca     0.85652   0.8771  0.24449    Ca
C       0.8578   0.4777   0.4984     C
H         0.86   0.0738   0.3293     H
C       0.8663   0.7115   0.4386     C
H       0.8752   0.4319   0.3881     H
H       0.8766   0.7347   0.6232     H
H       0.8776   0.4202    0.681     H
C       0.8778   0.9195   0.6934     C
C       0.8812   0.7469   0.3944     C
C       0.8881   0.7988   0.0899     C
C       0.8942   0.7589   0.0087     C
O       0.8965   0.6433   0.7739     O
H       0.8976   0.2027   0.4331     H
O       0.8985   0.0534   0.7272     O
C          0.9   0.6797   0.8519     C
O       0.9037   0.6352   0.4896     O
C       0.9078   0.8535   0.6623     C
Ca     0.90988  0.18249  0.80093    Ca
O       0.9104   0.8125   0.2983     O
C       0.9189    0.548    0.659     C
H       0.9238   0.3208   0.3438     H
C       0.9238   0.6681   0.4435     C
C        0.924   0.5545   0.5426     C
H       0.9345     0.55    0.762     H
C        0.935   0.0012    0.716     C
O       0.9399   0.7981   0.1389     O
C       0.9457    0.709   0.9836     C
H       0.9467   0.3081   0.6632     H
C       0.9481   0.5891   0.7451     C
C       0.9512   0.5902   0.6214     C
C       0.9513   0.6697   0.9049     C
C        0.953   0.7401   0.3555     C
C       0.9659   0.5944   0.5008     C
H        0.966   0.3643   0.5859     H
C       0.9665    0.779   0.3065     C
H       0.9675   0.8603   0.6542     H
O       0.9677   0.2269    0.724     O
H       0.9711   0.3078   0.2747     H
H       0.9717   0.5544   0.4508     H
H       0.9727    0.367   0.4684     H
H       0.9784   0.7001    0.019     H
O       0.9809   0.9896   0.2854     O
C       0.9819   0.3236   0.3289     C
H       0.9855   0.3816   0.2361     H
H       0.9895   0.6374   0.8893     H
H       0.9915   0.7123   0.6632     H
C       0.9938   0.3021   0.6369     C
C        0.994   0.6627   0.4083     C
