data_I
_chemical_name_common  '/home/zhangsd/repos/MofS-CGCNN/ML/data/TSD/clean_cifs/OCUMIL_clean'
_cell_length_a 25.56000
_cell_length_b 17.28000
_cell_length_c 13.18700
_cell_angle_alpha 90.00000
_cell_angle_beta  107.19800
_cell_angle_gamma 90.00000
_space_group_name_H-M_alt      'P 1'


loop_
_space_group_symop_operation_xyz
  'x, y, z' 

loop_
_atom_site_label
_atom_site_fract_x
_atom_site_fract_y
_atom_site_fract_z
_atom_site_type_symbol
N      0.00793   0.2033   0.0221     N
N      0.00793   0.7967   0.5221     N
C      0.01674    0.281   0.0669     C
C      0.01674    0.719   0.5669     C
C      0.02141    0.405   0.4225     C
C      0.02141    0.595   0.9225     C
O      0.02471   0.1955   0.5649     O
O      0.02471   0.8045   0.0649     O
C      0.02662   0.3315    0.465     C
C      0.02662   0.6685    0.965     C
C       0.0274   0.4262   0.1516     C
C       0.0274   0.5738   0.6516     C
H        0.031   0.4756   0.1809     H
H        0.031   0.5244   0.6809     H
O      0.03279   0.1502   0.0733     O
O      0.03279   0.8498   0.5733     O
O      0.05809   0.2185   0.3055     O
O      0.05809   0.7815   0.8055     O
H       0.0591   0.3162   0.5147     H
H       0.0591   0.6838   0.0147     H
C      0.06617   0.3006    0.141     C
C      0.06617   0.6994    0.641     C
C      0.06891   0.4596   0.4514     C
C      0.06891   0.5404   0.9514     C
C      0.07088   0.3748   0.1826     C
C      0.07088   0.6252   0.6826     C
O      0.07192  0.49245   0.8837     O
O      0.07192  0.50755   0.3837     O
N      0.09877   0.1855    0.315     N
N      0.09877   0.8145    0.815     N
O      0.10293  0.45159   0.5421     O
O      0.10293  0.54841   0.0421     O
O      0.10521   0.2895   0.9198     O
O      0.10521   0.7105   0.4198     O
O       0.1154   0.1424   0.3878     O
O       0.1154   0.8576   0.8878     O
C      0.11611   0.2505   0.1637     C
C      0.11611   0.7495   0.6637     C
C       0.1226   0.4008   0.2656     C
C       0.1226   0.5992   0.7656     C
C      0.13265   0.1983   0.2465     C
C      0.13265   0.8017   0.7465     C
C      0.13342   0.3142   0.0055     C
C      0.13342   0.6858   0.5055     C
Mn     0.13941   0.4315  0.85919    Mn
Mn     0.13941   0.5685  0.35919    Mn
O      0.14124  0.36244   0.3451     O
O      0.14124  0.63756   0.8451     O
O      0.14243  0.46594   0.2474     O
O      0.14243  0.53406   0.7474     O
C      0.14919   0.2594   0.0982     C
C      0.14919   0.7406   0.5982     C
O      0.15087  0.38232   0.0194     O
O      0.15087  0.61768   0.5194     O
Mn      0.1781  0.48536  0.12072    Mn
Mn      0.1781  0.51464  0.62072    Mn
C      0.18051   0.1565   0.2643     C
C      0.18051   0.8435   0.7643     C
H       0.1911   0.1226   0.3214     H
H       0.1911   0.8774   0.8214     H
C      0.19664   0.2161   0.1149     C
C      0.19664   0.7839   0.6149     C
O      0.21127  0.37703   0.8515     O
O      0.21127  0.62297   0.3515     O
C      0.21248   0.1649   0.1981     C
C      0.21248   0.8351   0.6981     C
H        0.218   0.2218   0.0693     H
H        0.218   0.7782   0.5693     H
O      0.21967   0.4168   0.6974     O
O      0.21967   0.5832   0.1974     O
C      0.23498   0.3806   0.7821     C
C      0.23498   0.6194   0.2821     C
C      0.26502   0.1194   0.2179     C
C      0.26502   0.8806   0.7179     C
O      0.28033   0.0832   0.3026     O
O      0.28033   0.9168   0.8026     O
H        0.282   0.2782   0.9307     H
H        0.282   0.7218   0.4307     H
C      0.28752   0.3351   0.8019     C
C      0.28752   0.6649   0.3019     C
O      0.28873  0.12297   0.1485     O
O      0.28873  0.87703   0.6485     O
C      0.30336   0.2839   0.8851     C
C      0.30336   0.7161   0.3851     C
H       0.3089   0.3774   0.6786     H
H       0.3089   0.6226   0.1786     H
C      0.31949   0.3435   0.7357     C
C      0.31949   0.6565   0.2357     C
Mn      0.3219  0.01464  0.87928    Mn
Mn      0.3219  0.98536  0.37928    Mn
O      0.34913  0.11768   0.9806     O
O      0.34913  0.88232   0.4806     O
C      0.35081   0.2406   0.9018     C
C      0.35081   0.7594   0.4018     C
O      0.35757  0.03406   0.7526     O
O      0.35757  0.96594   0.2526     O
O      0.35876  0.13756   0.6549     O
O      0.35876  0.86244   0.1549     O
Mn     0.36059   0.0685  0.14081    Mn
Mn     0.36059   0.9315  0.64081    Mn
C      0.36658   0.1858   0.9945     C
C      0.36658   0.8142   0.4945     C
C      0.36735   0.3017   0.7535     C
C      0.36735   0.6983   0.2535     C
C       0.3774   0.0992   0.7344     C
C       0.3774   0.9008   0.2344     C
C      0.38389   0.2495   0.8363     C
C      0.38389   0.7505   0.3363     C
O       0.3846   0.3576   0.6122     O
O       0.3846   0.6424   0.1122     O
O      0.39479   0.2105   0.0802     O
O      0.39479   0.7895   0.5802     O
O      0.39707  0.04841   0.4579     O
O      0.39707  0.95159   0.9579     O
N      0.40123   0.3145    0.685     N
N      0.40123   0.6855    0.185     N
O      0.42808  0.00755   0.1163     O
O      0.42808  0.99245   0.6163     O
C      0.42912   0.1252   0.8174     C
C      0.42912   0.8748   0.3174     C
C      0.43109   0.0404   0.5486     C
C      0.43109   0.9596   0.0486     C
C      0.43383   0.1994    0.859     C
C      0.43383   0.8006    0.359     C
H       0.4409   0.1838   0.4853     H
H       0.4409   0.8162   0.9853     H
O      0.44191   0.2815   0.6945     O
O      0.44191   0.7185   0.1945     O
O      0.46721   0.3498   0.9267     O
O      0.46721   0.6502   0.4267     O
H        0.469   0.0244   0.8191     H
H        0.469   0.9756   0.3191     H
C       0.4726   0.0738   0.8484     C
C       0.4726   0.9262   0.3484     C
C      0.47338   0.1685    0.535     C
C      0.47338   0.8315    0.035     C
O      0.47529   0.3045   0.4351     O
O      0.47529   0.6955   0.9351     O
C      0.47859    0.095   0.5775     C
C      0.47859    0.905   0.0775     C
C      0.48326    0.219   0.9331     C
C      0.48326    0.781   0.4331     C
N      0.49207   0.2967   0.9779     N
N      0.49207   0.7033   0.4779     N
N      0.50793   0.2967   0.5221     N
N      0.50793   0.7033   0.0221     N
C      0.51674    0.219   0.5669     C
C      0.51674    0.781   0.0669     C
C      0.52141    0.095   0.9225     C
C      0.52141    0.905   0.4225     C
O      0.52471   0.3045   0.0649     O
O      0.52471   0.6955   0.5649     O
C      0.52662   0.1685    0.965     C
C      0.52662   0.8315    0.465     C
C       0.5274   0.0738   0.6516     C
C       0.5274   0.9262   0.1516     C
H        0.531   0.0244   0.6809     H
H        0.531   0.9756   0.1809     H
O      0.53279   0.3498   0.5733     O
O      0.53279   0.6502   0.0733     O
O      0.55809   0.2815   0.8055     O
O      0.55809   0.7185   0.3055     O
H       0.5591   0.1838   0.0147     H
H       0.5591   0.8162   0.5147     H
C      0.56617   0.1994    0.641     C
C      0.56617   0.8006    0.141     C
C      0.56891   0.0404   0.9514     C
C      0.56891   0.9596   0.4514     C
C      0.57088   0.1252   0.6826     C
C      0.57088   0.8748   0.1826     C
O      0.57192  0.00755   0.3837     O
O      0.57192  0.99245   0.8837     O
N      0.59877   0.3145    0.815     N
N      0.59877   0.6855    0.315     N
O      0.60293  0.04841   0.0421     O
O      0.60293  0.95159   0.5421     O
O      0.60521   0.2105   0.4198     O
O      0.60521   0.7895   0.9198     O
O       0.6154   0.3576   0.8878     O
O       0.6154   0.6424   0.3878     O
C      0.61611   0.2495   0.6637     C
C      0.61611   0.7505   0.1637     C
C       0.6226   0.0992   0.7656     C
C       0.6226   0.9008   0.2656     C
C      0.63265   0.3017   0.7465     C
C      0.63265   0.6983   0.2465     C
C      0.63342   0.1858   0.5055     C
C      0.63342   0.8142   0.0055     C
Mn     0.63941   0.0685  0.35919    Mn
Mn     0.63941   0.9315  0.85919    Mn
O      0.64124  0.13756   0.8451     O
O      0.64124  0.86244   0.3451     O
O      0.64243  0.03406   0.7474     O
O      0.64243  0.96594   0.2474     O
C      0.64919   0.2406   0.5982     C
C      0.64919   0.7594   0.0982     C
O      0.65087  0.11768   0.5194     O
O      0.65087  0.88232   0.0194     O
Mn      0.6781  0.01464  0.62072    Mn
Mn      0.6781  0.98536  0.12072    Mn
C      0.68051   0.3435   0.7643     C
C      0.68051   0.6565   0.2643     C
H       0.6911   0.3774   0.8214     H
H       0.6911   0.6226   0.3214     H
C      0.69664   0.2839   0.6149     C
C      0.69664   0.7161   0.1149     C
O      0.71127  0.12297   0.3515     O
O      0.71127  0.87703   0.8515     O
C      0.71248   0.3351   0.6981     C
C      0.71248   0.6649   0.1981     C
H        0.718   0.2782   0.5693     H
H        0.718   0.7218   0.0693     H
O      0.71967   0.0832   0.1974     O
O      0.71967   0.9168   0.6974     O
C      0.73498   0.1194   0.2821     C
C      0.73498   0.8806   0.7821     C
C      0.76502   0.3806   0.7179     C
C      0.76502   0.6194   0.2179     C
O      0.78033   0.4168   0.8026     O
O      0.78033   0.5832   0.3026     O
H        0.782   0.2218   0.4307     H
H        0.782   0.7782   0.9307     H
C      0.78752   0.1649   0.3019     C
C      0.78752   0.8351   0.8019     C
O      0.78873  0.37703   0.6485     O
O      0.78873  0.62297   0.1485     O
C      0.80336   0.2161   0.3851     C
C      0.80336   0.7839   0.8851     C
H       0.8089   0.1226   0.1786     H
H       0.8089   0.8774   0.6786     H
C      0.81949   0.1565   0.2357     C
C      0.81949   0.8435   0.7357     C
Mn      0.8219  0.48536  0.37928    Mn
Mn      0.8219  0.51464  0.87928    Mn
O      0.84913  0.38232   0.4806     O
O      0.84913  0.61768   0.9806     O
C      0.85081   0.2594   0.4018     C
C      0.85081   0.7406   0.9018     C
O      0.85757  0.46594   0.2526     O
O      0.85757  0.53406   0.7526     O
O      0.85876  0.36244   0.1549     O
O      0.85876  0.63756   0.6549     O
Mn     0.86059   0.4315  0.64081    Mn
Mn     0.86059   0.5685  0.14081    Mn
C      0.86658   0.3142   0.4945     C
C      0.86658   0.6858   0.9945     C
C      0.86735   0.1983   0.2535     C
C      0.86735   0.8017   0.7535     C
C       0.8774   0.4008   0.2344     C
C       0.8774   0.5992   0.7344     C
C      0.88389   0.2505   0.3363     C
C      0.88389   0.7495   0.8363     C
O       0.8846   0.1424   0.1122     O
O       0.8846   0.8576   0.6122     O
O      0.89479   0.2895   0.5802     O
O      0.89479   0.7105   0.0802     O
O      0.89707  0.45159   0.9579     O
O      0.89707  0.54841   0.4579     O
N      0.90123   0.1855    0.185     N
N      0.90123   0.8145    0.685     N
O      0.92808  0.49245   0.6163     O
O      0.92808  0.50755   0.1163     O
C      0.92912   0.3748   0.3174     C
C      0.92912   0.6252   0.8174     C
C      0.93109   0.4596   0.0486     C
C      0.93109   0.5404   0.5486     C
C      0.93383   0.3006    0.359     C
C      0.93383   0.6994    0.859     C
H       0.9409   0.3162   0.9853     H
H       0.9409   0.6838   0.4853     H
O      0.94191   0.2185   0.1945     O
O      0.94191   0.7815   0.6945     O
O      0.96721   0.1502   0.4267     O
O      0.96721   0.8498   0.9267     O
H        0.969   0.4756   0.3191     H
H        0.969   0.5244   0.8191     H
C       0.9726   0.4262   0.3484     C
C       0.9726   0.5738   0.8484     C
C      0.97338   0.3315    0.035     C
C      0.97338   0.6685    0.535     C
O      0.97529   0.1955   0.9351     O
O      0.97529   0.8045   0.4351     O
C      0.97859    0.405   0.0775     C
C      0.97859    0.595   0.5775     C
C      0.98326    0.281   0.4331     C
C      0.98326    0.719   0.9331     C
N      0.99207   0.2033   0.4779     N
N      0.99207   0.7967   0.9779     N
