data_I
_chemical_name_common  '/home/zhangsd/repos/MofS-CGCNN/ML/data/TSD/clean_cifs/OCUPUY_clean'
_cell_length_a  7.43300
_cell_length_b  9.36730
_cell_length_c 12.44780
_cell_angle_alpha 112.10200
_cell_angle_beta  107.37100
_cell_angle_gamma 90.00010
_space_group_name_H-M_alt      'P 1'


loop_
_space_group_symop_operation_xyz
  'x, y, z' 

loop_
_atom_site_label
_atom_site_fract_x
_atom_site_fract_y
_atom_site_fract_z
_atom_site_type_symbol
C          0.0   0.2897      1.0     C
C          0.0   0.7103     -0.0     C
H       0.0025   0.4788   0.2194     H
H       0.0025   0.7406   0.2194     H
O      0.02388  0.04787    0.393     O
O      0.02388  0.34513    0.393     O
H        0.047   0.0811    0.878     H
H        0.047   0.7969    0.878     H
V       0.0496  0.75583  0.51166     V
C      0.05932  0.26312  0.11864     C
C      0.05932  0.85552  0.11864     C
H       0.1073   0.3523      0.0     H
H       0.1073   0.6477      0.0     H
C      0.11351  0.42051  0.22702     C
C      0.11351  0.80651  0.22702     C
H        0.169   0.2031    0.122     H
H        0.169   0.9189    0.122     H
P      0.18855  0.42071   0.3771     P
P      0.18855  0.95639   0.3771     P
H       0.2169   0.4788   0.2194     H
H       0.2169   0.7406   0.2194     H
O      0.23435   0.5953   0.4687     O
O      0.23435   0.8734   0.4687     O
O      0.33395  0.83395   0.6679     O
H       0.3531   0.7901   0.7062     H
H       0.3531   0.9161   0.7062     H
O      0.36912  0.04787    0.393     O
O      0.36912  0.34513    0.393     O
V      0.46206  0.75583  0.51166     V
V      0.53794  0.24417  0.48834     V
O      0.63088  0.65487    0.607     O
O      0.63088  0.95213    0.607     O
H       0.6469   0.0839   0.2938     H
H       0.6469   0.2099   0.2938     H
O      0.66605  0.16605   0.3321     O
O      0.76565   0.1266   0.5313     O
O      0.76565   0.4047   0.5313     O
H       0.7831   0.2594   0.7806     H
H       0.7831   0.5212   0.7806     H
P      0.81145  0.04361   0.6229     P
P      0.81145  0.57929   0.6229     P
H        0.831   0.0811    0.878     H
H        0.831   0.7969    0.878     H
C      0.88649  0.19349  0.77298     C
C      0.88649  0.57949  0.77298     C
H       0.8927   0.3523      0.0     H
H       0.8927   0.6477      0.0     H
C      0.94068  0.14448  0.88136     C
C      0.94068  0.73688  0.88136     C
V       0.9504  0.24417  0.48834     V
H        0.953   0.2031    0.122     H
H        0.953   0.9189    0.122     H
O      0.97612  0.65487    0.607     O
O      0.97612  0.95213    0.607     O
H       0.9975   0.2594   0.7806     H
H       0.9975   0.5212   0.7806     H
