data_I
_chemical_name_common  '/home/zhangsd/repos/MofS-CGCNN/ML/data/TSD/clean_cifs/OCUQOT_clean'
_cell_length_a 15.20030
_cell_length_b 10.21220
_cell_length_c 18.59030
_cell_angle_alpha 90.00000
_cell_angle_beta  103.53000
_cell_angle_gamma 90.00000
_space_group_name_H-M_alt      'P 1'


loop_
_space_group_symop_operation_xyz
  'x, y, z' 

loop_
_atom_site_label
_atom_site_fract_x
_atom_site_fract_y
_atom_site_fract_z
_atom_site_type_symbol
H       0.0213   0.4089   0.8277     H
H       0.0213   0.5911   0.3277     H
H       0.0248   0.4115   0.9145     H
H       0.0248   0.5885   0.4145     H
C       0.0263   0.3535   0.8722     C
C       0.0263   0.6465   0.3722     C
H       0.0476   0.1972   0.6799     H
H       0.0476   0.8028   0.1799     H
H       0.0483   0.2071   0.5944     H
H       0.0483   0.7929   0.0944     H
C       0.0532   0.2589   0.6401     C
C       0.0532   0.7411   0.1401     C
H        0.114   0.2091   0.9242     H
H        0.114   0.7909   0.4242     H
C        0.116    0.279   0.8877     C
C        0.116    0.721   0.3877     C
H       0.1224   0.2363   0.8414     H
H       0.1224   0.7637   0.3414     H
V      0.16025  0.38417  0.08394     V
V      0.16025  0.61583  0.58394     V
P      0.16343  0.33134  0.66428     P
P      0.16343  0.66866  0.16428     P
O      0.17159   0.3994  0.73887     O
O      0.17159   0.6006  0.23887     O
O      0.17471    0.427  0.60387     O
O      0.17471    0.573  0.10387     O
O      0.20186   0.2008  0.07841     O
O      0.20186   0.7992  0.57841     O
O       0.2025   0.3566  0.19155     O
O       0.2025   0.6434  0.69155     O
O      0.20981   0.4986   0.3742     O
O      0.20981   0.5014   0.8742     O
O      0.21142   0.4257  0.99987     O
O      0.21142   0.5743  0.49987     O
P      0.21364  0.37837  0.92221     P
P      0.21364  0.62163  0.42221     P
H        0.214    0.294    0.196     H
H        0.214    0.706    0.696     H
O      0.23296   0.2219  0.66968     O
O      0.23296   0.7781  0.16968     O
V       0.2479  0.45352  0.28394     V
V       0.2479  0.54648  0.78394     V
V       0.2521  0.04648  0.71606     V
V       0.2521  0.95352  0.21606     V
O      0.26704   0.2781  0.33032     O
O      0.26704   0.7219  0.83032     O
H        0.286    0.206    0.804     H
H        0.286    0.794    0.304     H
P      0.28636  0.12163  0.07779     P
P      0.28636  0.87837  0.57779     P
O      0.28858   0.0743  0.00013     O
O      0.28858   0.9257  0.50013     O
O      0.29019   0.0014   0.6258     O
O      0.29019   0.9986   0.1258     O
O       0.2975   0.1434  0.80845     O
O       0.2975   0.8566  0.30845     O
O      0.29814   0.2992  0.92159     O
O      0.29814   0.7008  0.42159     O
O      0.32529    0.073  0.39613     O
O      0.32529    0.927  0.89613     O
O      0.32841   0.1006  0.26113     O
O      0.32841   0.8994  0.76113     O
P      0.33657  0.16866  0.33572     P
P      0.33657  0.83134  0.83572     P
V      0.33975  0.11583  0.91606     V
V      0.33975  0.88417  0.41606     V
H       0.3776   0.2637   0.1586     H
H       0.3776   0.7363   0.6586     H
C        0.384    0.221   0.1123     C
C        0.384    0.779   0.6123     C
H        0.386   0.2909   0.0758     H
H        0.386   0.7091   0.5758     H
C       0.4468   0.2411   0.3599     C
C       0.4468   0.7589   0.8599     C
H       0.4517   0.2929   0.4056     H
H       0.4517   0.7071   0.9056     H
H       0.4524   0.3028   0.3201     H
H       0.4524   0.6972   0.8201     H
C       0.4737   0.1465   0.1278     C
C       0.4737   0.8535   0.6278     C
H       0.4752   0.0885   0.0855     H
H       0.4752   0.9115   0.5855     H
H       0.4787   0.0911   0.1723     H
H       0.4787   0.9089   0.6723     H
H       0.5213   0.0911   0.3277     H
H       0.5213   0.9089   0.8277     H
H       0.5248   0.0885   0.4145     H
H       0.5248   0.9115   0.9145     H
C       0.5263   0.1465   0.3722     C
C       0.5263   0.8535   0.8722     C
H       0.5476   0.3028   0.1799     H
H       0.5476   0.6972   0.6799     H
H       0.5483   0.2929   0.0944     H
H       0.5483   0.7071   0.5944     H
C       0.5532   0.2411   0.1401     C
C       0.5532   0.7589   0.6401     C
H        0.614   0.2909   0.4242     H
H        0.614   0.7091   0.9242     H
C        0.616    0.221   0.3877     C
C        0.616    0.779   0.8877     C
H       0.6224   0.2637   0.3414     H
H       0.6224   0.7363   0.8414     H
V      0.66025  0.11583  0.58394     V
V      0.66025  0.88417  0.08394     V
P      0.66343  0.16866  0.16428     P
P      0.66343  0.83134  0.66428     P
O      0.67159   0.1006  0.23887     O
O      0.67159   0.8994  0.73887     O
O      0.67471    0.073  0.10387     O
O      0.67471    0.927  0.60387     O
O      0.70186   0.2992  0.57841     O
O      0.70186   0.7008  0.07841     O
O       0.7025   0.1434  0.69155     O
O       0.7025   0.8566  0.19155     O
O      0.70981   0.0014   0.8742     O
O      0.70981   0.9986   0.3742     O
O      0.71142   0.0743  0.49987     O
O      0.71142   0.9257  0.99987     O
P      0.71364  0.12163  0.42221     P
P      0.71364  0.87837  0.92221     P
H        0.714    0.206    0.696     H
H        0.714    0.794    0.196     H
O      0.73296   0.2781  0.16968     O
O      0.73296   0.7219  0.66968     O
V       0.7479  0.04648  0.78394     V
V       0.7479  0.95352  0.28394     V
V       0.7521  0.45352  0.21606     V
V       0.7521  0.54648  0.71606     V
O      0.76704   0.2219  0.83032     O
O      0.76704   0.7781  0.33032     O
H        0.786    0.294    0.304     H
H        0.786    0.706    0.804     H
P      0.78636  0.37837  0.57779     P
P      0.78636  0.62163  0.07779     P
O      0.78858   0.4257  0.50013     O
O      0.78858   0.5743  0.00013     O
O      0.79019   0.4986   0.1258     O
O      0.79019   0.5014   0.6258     O
O       0.7975   0.3566  0.30845     O
O       0.7975   0.6434  0.80845     O
O      0.79814   0.2008  0.42159     O
O      0.79814   0.7992  0.92159     O
O      0.82529    0.427  0.89613     O
O      0.82529    0.573  0.39613     O
O      0.82841   0.3994  0.76113     O
O      0.82841   0.6006  0.26113     O
P      0.83657  0.33134  0.83572     P
P      0.83657  0.66866  0.33572     P
V      0.83975  0.38417  0.41606     V
V      0.83975  0.61583  0.91606     V
H       0.8776   0.2363   0.6586     H
H       0.8776   0.7637   0.1586     H
C        0.884    0.279   0.6123     C
C        0.884    0.721   0.1123     C
H        0.886   0.2091   0.5758     H
H        0.886   0.7909   0.0758     H
C       0.9468   0.2589   0.8599     C
C       0.9468   0.7411   0.3599     C
H       0.9517   0.2071   0.9056     H
H       0.9517   0.7929   0.4056     H
H       0.9524   0.1972   0.8201     H
H       0.9524   0.8028   0.3201     H
C       0.9737   0.3535   0.6278     C
C       0.9737   0.6465   0.1278     C
H       0.9752   0.4115   0.5855     H
H       0.9752   0.5885   0.0855     H
H       0.9787   0.4089   0.6723     H
H       0.9787   0.5911   0.1723     H
