data_I
_chemical_name_common  '/home/zhangsd/repos/MofS-CGCNN/ML/data/TSD/clean_cifs/ODIMAQ_clean'
_cell_length_a 14.81270
_cell_length_b 14.81270
_cell_length_c 15.61300
_cell_angle_alpha 90.00000
_cell_angle_beta  90.00000
_cell_angle_gamma 120.00000
_space_group_name_H-M_alt      'P 1'


loop_
_space_group_symop_operation_xyz
  'x, y, z' 

loop_
_atom_site_label
_atom_site_fract_x
_atom_site_fract_y
_atom_site_fract_z
_atom_site_type_symbol
Zn         0.0      0.5      0.0    Zn
Zn         0.0      0.5      0.5    Zn
O       0.0544   0.4397   0.4076     O
O       0.0544   0.4397   0.5924     O
O       0.0544   0.6147   0.0924     O
O       0.0544   0.6147   0.9076     O
H       0.0895     0.37   0.2697     H
H       0.0895     0.37   0.7303     H
H       0.0895   0.7195   0.2303     H
H       0.0895   0.7195   0.7697     H
C       0.1313   0.4829   0.3597     C
C       0.1313   0.4829   0.6403     C
C       0.1313   0.6484   0.1403     C
C       0.1313   0.6484   0.8597     C
C       0.1511   0.4132   0.3038     C
C       0.1511   0.4132   0.6962     C
C       0.1511   0.7379   0.1962     C
C       0.1511   0.7379   0.8038     C
H       0.1649   0.3676   0.3391     H
H       0.1649   0.3676   0.6609     H
H       0.1649   0.7973   0.1609     H
H       0.1649   0.7973   0.8391     H
O       0.1948   0.5798   0.3554     O
O       0.1948   0.5798   0.6446     O
O       0.1948    0.615   0.1446     O
O       0.1948    0.615   0.8554     O
H       0.2027   0.3676   0.1609     H
H       0.2027   0.3676   0.8391     H
H       0.2027   0.8351   0.3391     H
H       0.2027   0.8351   0.6609     H
O       0.2354   0.4708     0.25     O
O       0.2354   0.4708     0.75     O
O       0.2354   0.7646     0.25     O
O       0.2354   0.7646     0.75     O
C       0.2621   0.4132   0.1962     C
C       0.2621   0.4132   0.8038     C
C       0.2621   0.8489   0.3038     C
C       0.2621   0.8489   0.6962     C
H       0.2805     0.37   0.2303     H
H       0.2805     0.37   0.7697     H
H       0.2805   0.9105   0.2697     H
H       0.2805   0.9105   0.7303     H
Sm     0.33333  0.66666     0.25    Sm
Sm     0.33333  0.66666     0.75    Sm
C       0.3516   0.4829   0.1403     C
C       0.3516   0.4829   0.8597     C
C       0.3516   0.8687   0.3597     C
C       0.3516   0.8687   0.6403     C
H       0.3676   0.1649   0.1609     H
H       0.3676   0.1649   0.8391     H
H       0.3676   0.2027   0.3391     H
H       0.3676   0.2027   0.6609     H
H         0.37   0.0895   0.2303     H
H         0.37   0.0895   0.7697     H
H         0.37   0.2805   0.2697     H
H         0.37   0.2805   0.7303     H
O        0.385   0.5798   0.1446     O
O        0.385   0.5798   0.8554     O
O        0.385   0.8052   0.3554     O
O        0.385   0.8052   0.6446     O
O       0.3853   0.4397   0.0924     O
O       0.3853   0.4397   0.9076     O
O       0.3853   0.9456   0.4076     O
O       0.3853   0.9456   0.5924     O
C       0.4132   0.1511   0.1962     C
C       0.4132   0.1511   0.8038     C
C       0.4132   0.2621   0.3038     C
C       0.4132   0.2621   0.6962     C
O       0.4202    0.615   0.3554     O
O       0.4202    0.615   0.6446     O
O       0.4202   0.8052   0.1446     O
O       0.4202   0.8052   0.8554     O
O       0.4397   0.0544   0.0924     O
O       0.4397   0.0544   0.9076     O
O       0.4397   0.3853   0.4076     O
O       0.4397   0.3853   0.5924     O
O       0.4708   0.2354     0.25     O
O       0.4708   0.2354     0.75     O
C       0.4829   0.1313   0.1403     C
C       0.4829   0.1313   0.8597     C
C       0.4829   0.3516   0.3597     C
C       0.4829   0.3516   0.6403     C
Zn         0.5      0.0      0.0    Zn
Zn         0.5      0.0      0.5    Zn
Zn         0.5      0.5      0.0    Zn
Zn         0.5      0.5      0.5    Zn
C       0.5171   0.6484   0.3597     C
C       0.5171   0.6484   0.6403     C
C       0.5171   0.8687   0.1403     C
C       0.5171   0.8687   0.8597     C
O       0.5292   0.7646     0.25     O
O       0.5292   0.7646     0.75     O
O       0.5603   0.6147   0.4076     O
O       0.5603   0.6147   0.5924     O
O       0.5603   0.9456   0.0924     O
O       0.5603   0.9456   0.9076     O
O       0.5798   0.1948   0.1446     O
O       0.5798   0.1948   0.8554     O
O       0.5798    0.385   0.3554     O
O       0.5798    0.385   0.6446     O
C       0.5868   0.7379   0.3038     C
C       0.5868   0.7379   0.6962     C
C       0.5868   0.8489   0.1962     C
C       0.5868   0.8489   0.8038     C
O       0.6147   0.0544   0.4076     O
O       0.6147   0.0544   0.5924     O
O       0.6147   0.5603   0.0924     O
O       0.6147   0.5603   0.9076     O
O        0.615   0.1948   0.3554     O
O        0.615   0.1948   0.6446     O
O        0.615   0.4202   0.1446     O
O        0.615   0.4202   0.8554     O
H         0.63   0.7195   0.2697     H
H         0.63   0.7195   0.7303     H
H         0.63   0.9105   0.2303     H
H         0.63   0.9105   0.7697     H
H       0.6324   0.7973   0.3391     H
H       0.6324   0.7973   0.6609     H
H       0.6324   0.8351   0.1609     H
H       0.6324   0.8351   0.8391     H
C       0.6484   0.1313   0.3597     C
C       0.6484   0.1313   0.6403     C
C       0.6484   0.5171   0.1403     C
C       0.6484   0.5171   0.8597     C
Sm     0.66667  0.33334     0.25    Sm
Sm     0.66667  0.33334     0.75    Sm
H       0.7195   0.0895   0.2697     H
H       0.7195   0.0895   0.7303     H
H       0.7195     0.63   0.2303     H
H       0.7195     0.63   0.7697     H
C       0.7379   0.1511   0.3038     C
C       0.7379   0.1511   0.6962     C
C       0.7379   0.5868   0.1962     C
C       0.7379   0.5868   0.8038     C
O       0.7646   0.2354     0.25     O
O       0.7646   0.2354     0.75     O
O       0.7646   0.5292     0.25     O
O       0.7646   0.5292     0.75     O
H       0.7973   0.1649   0.3391     H
H       0.7973   0.1649   0.6609     H
H       0.7973   0.6324   0.1609     H
H       0.7973   0.6324   0.8391     H
O       0.8052    0.385   0.1446     O
O       0.8052    0.385   0.8554     O
O       0.8052   0.4202   0.3554     O
O       0.8052   0.4202   0.6446     O
H       0.8351   0.2027   0.1609     H
H       0.8351   0.2027   0.8391     H
H       0.8351   0.6324   0.3391     H
H       0.8351   0.6324   0.6609     H
C       0.8489   0.2621   0.1962     C
C       0.8489   0.2621   0.8038     C
C       0.8489   0.5868   0.3038     C
C       0.8489   0.5868   0.6962     C
C       0.8687   0.3516   0.1403     C
C       0.8687   0.3516   0.8597     C
C       0.8687   0.5171   0.3597     C
C       0.8687   0.5171   0.6403     C
H       0.9105   0.2805   0.2303     H
H       0.9105   0.2805   0.7697     H
H       0.9105     0.63   0.2697     H
H       0.9105     0.63   0.7303     H
O       0.9456   0.3853   0.0924     O
O       0.9456   0.3853   0.9076     O
O       0.9456   0.5603   0.4076     O
O       0.9456   0.5603   0.5924     O
