data_I
_chemical_name_common  '/home/zhangsd/repos/MofS-CGCNN/ML/data/TSD/clean_cifs/ODIVUU_clean'
_cell_length_a 17.72400
_cell_length_b 19.70500
_cell_length_c 13.13900
_cell_angle_alpha 90.00000
_cell_angle_beta  127.49600
_cell_angle_gamma 90.00000
_space_group_name_H-M_alt      'P 1'


loop_
_space_group_symop_operation_xyz
  'x, y, z' 

loop_
_atom_site_label
_atom_site_fract_x
_atom_site_fract_y
_atom_site_fract_z
_atom_site_type_symbol
Zn         0.0  0.40852      0.0    Zn
Zn         0.0  0.59148      0.0    Zn
C       0.0113   0.1954   0.2645     C
C       0.0113   0.8046   0.2645     C
C       0.0158   0.2966   0.8738     C
C       0.0158   0.7034   0.8738     C
O       0.0212   0.3533   0.1356     O
O       0.0212   0.6467   0.1356     O
C       0.0374  0.09727   0.4064     C
C       0.0374  0.90273   0.4064     C
C       0.0453   0.2539    0.245     C
C       0.0453   0.7461    0.245     C
O      0.04545  0.07647   0.6788     O
O      0.04545  0.92353   0.6788     O
H       0.0506   0.1807   0.7978     H
H       0.0506   0.8193   0.7978     H
C       0.0709  0.15949   0.3778     C
C       0.0709  0.84051   0.3778     C
O      0.09419  0.07152   0.5148     O
O      0.09419  0.92848   0.5148     O
O       0.0951  0.27794   0.9665     O
O       0.0951  0.72206   0.9665     O
Zn     0.09563      0.0  0.63138    Zn
N      0.11609  0.46438   0.0838     N
N      0.11609  0.53562   0.0838     N
C       0.1384   0.2738   0.3372     C
C       0.1384   0.7262   0.3372     C
H       0.1604   0.3126   0.3225     H
H       0.1604   0.6874   0.3225     H
C       0.1641  0.18087   0.4697     C
C       0.1641  0.81913   0.4697     C
H       0.1953   0.3479   0.1531     H
H       0.1953   0.6521   0.1531     H
C       0.2003   0.2384   0.4511     C
C       0.2003   0.7616   0.4511     C
H       0.2031   0.1562   0.5453     H
H       0.2031   0.8438   0.5453     H
H       0.2041   0.1287   0.7579     H
H       0.2041   0.8713   0.7579     H
C       0.2062  0.44616   0.1633     C
C       0.2062  0.55384   0.1633     C
N       0.2344      0.0   0.7827     N
N       0.2362  0.38032   0.1894     N
N       0.2362  0.61968   0.1894     N
N       0.2638  0.11968   0.8106     N
N       0.2638  0.88032   0.8106     N
N       0.2656      0.5   0.2173     N
C       0.2938  0.05384   0.8367     C
C       0.2938  0.94616   0.8367     C
H       0.2959   0.3713   0.2421     H
H       0.2959   0.6287   0.2421     H
H       0.2969   0.3438   0.4547     H
H       0.2969   0.6562   0.4547     H
C       0.2997   0.2616   0.5489     C
C       0.2997   0.7384   0.5489     C
H       0.3047   0.1521   0.8469     H
H       0.3047   0.8479   0.8469     H
C       0.3359  0.31913   0.5303     C
C       0.3359  0.68087   0.5303     C
H       0.3396   0.1874   0.6775     H
H       0.3396   0.8126   0.6775     H
C       0.3616   0.2262   0.6628     C
C       0.3616   0.7738   0.6628     C
N      0.38391  0.03562   0.9162     N
N      0.38391  0.96438   0.9162     N
Zn     0.40437      0.5  0.36862    Zn
O       0.4049  0.22206   0.0335     O
O       0.4049  0.77794   0.0335     O
O      0.40581  0.42848   0.4852     O
O      0.40581  0.57152   0.4852     O
C       0.4291  0.34051   0.6222     C
C       0.4291  0.65949   0.6222     C
H       0.4494   0.3193   0.2022     H
H       0.4494   0.6807   0.2022     H
O      0.45455  0.42353   0.3212     O
O      0.45455  0.57647   0.3212     O
C       0.4547   0.2461    0.755     C
C       0.4547   0.7539    0.755     C
C       0.4626  0.40273   0.5936     C
C       0.4626  0.59727   0.5936     C
O       0.4788   0.1467   0.8644     O
O       0.4788   0.8533   0.8644     O
C       0.4842   0.2034   0.1262     C
C       0.4842   0.7966   0.1262     C
C       0.4887   0.3046   0.7355     C
C       0.4887   0.6954   0.7355     C
Zn         0.5  0.09148      0.0    Zn
Zn         0.5  0.90852      0.0    Zn
C       0.5113   0.3046   0.2645     C
C       0.5113   0.6954   0.2645     C
C       0.5158   0.2034   0.8738     C
C       0.5158   0.7966   0.8738     C
O       0.5212   0.1467   0.1356     O
O       0.5212   0.8533   0.1356     O
C       0.5374  0.40273   0.4064     C
C       0.5374  0.59727   0.4064     C
C       0.5453   0.2461    0.245     C
C       0.5453   0.7539    0.245     C
O      0.54545  0.42353   0.6788     O
O      0.54545  0.57647   0.6788     O
H       0.5506   0.3193   0.7978     H
H       0.5506   0.6807   0.7978     H
C       0.5709  0.34051   0.3778     C
C       0.5709  0.65949   0.3778     C
O      0.59419  0.42848   0.5148     O
O      0.59419  0.57152   0.5148     O
O       0.5951  0.22206   0.9665     O
O       0.5951  0.77794   0.9665     O
Zn     0.59563      0.5  0.63138    Zn
N      0.61609  0.03562   0.0838     N
N      0.61609  0.96438   0.0838     N
C       0.6384   0.2262   0.3372     C
C       0.6384   0.7738   0.3372     C
H       0.6604   0.1874   0.3225     H
H       0.6604   0.8126   0.3225     H
C       0.6641  0.31913   0.4697     C
C       0.6641  0.68087   0.4697     C
H       0.6953   0.1521   0.1531     H
H       0.6953   0.8479   0.1531     H
C       0.7003   0.2616   0.4511     C
C       0.7003   0.7384   0.4511     C
H       0.7031   0.3438   0.5453     H
H       0.7031   0.6562   0.5453     H
H       0.7041   0.3713   0.7579     H
H       0.7041   0.6287   0.7579     H
C       0.7062  0.05384   0.1633     C
C       0.7062  0.94616   0.1633     C
N       0.7344      0.5   0.7827     N
N       0.7362  0.11968   0.1894     N
N       0.7362  0.88032   0.1894     N
N       0.7638  0.38032   0.8106     N
N       0.7638  0.61968   0.8106     N
N       0.7656      0.0   0.2173     N
C       0.7938  0.44616   0.8367     C
C       0.7938  0.55384   0.8367     C
H       0.7959   0.1287   0.2421     H
H       0.7959   0.8713   0.2421     H
H       0.7969   0.1562   0.4547     H
H       0.7969   0.8438   0.4547     H
C       0.7997   0.2384   0.5489     C
C       0.7997   0.7616   0.5489     C
H       0.8047   0.3479   0.8469     H
H       0.8047   0.6521   0.8469     H
C       0.8359  0.18087   0.5303     C
C       0.8359  0.81913   0.5303     C
H       0.8396   0.3126   0.6775     H
H       0.8396   0.6874   0.6775     H
C       0.8616   0.2738   0.6628     C
C       0.8616   0.7262   0.6628     C
N      0.88391  0.46438   0.9162     N
N      0.88391  0.53562   0.9162     N
Zn     0.90437      0.0  0.36862    Zn
O       0.9049  0.27794   0.0335     O
O       0.9049  0.72206   0.0335     O
O      0.90581  0.07152   0.4852     O
O      0.90581  0.92848   0.4852     O
C       0.9291  0.15949   0.6222     C
C       0.9291  0.84051   0.6222     C
H       0.9494   0.1807   0.2022     H
H       0.9494   0.8193   0.2022     H
O      0.95455  0.07647   0.3212     O
O      0.95455  0.92353   0.3212     O
C       0.9547   0.2539    0.755     C
C       0.9547   0.7461    0.755     C
C       0.9626  0.09727   0.5936     C
C       0.9626  0.90273   0.5936     C
O       0.9788   0.3533   0.8644     O
O       0.9788   0.6467   0.8644     O
C       0.9842   0.2966   0.1262     C
C       0.9842   0.7034   0.1262     C
C       0.9887   0.1954   0.7355     C
C       0.9887   0.8046   0.7355     C
