data_I
_chemical_name_common  '/home/zhangsd/repos/MofS-CGCNN/ML/data/TSD/clean_cifs/OHIHUJ_clean'
_cell_length_a 10.15800
_cell_length_b 13.26900
_cell_length_c 14.47000
_cell_angle_alpha 90.00000
_cell_angle_beta  90.00000
_cell_angle_gamma 90.00000
_space_group_name_H-M_alt      'P 1'


loop_
_space_group_symop_operation_xyz
  'x, y, z' 

loop_
_atom_site_label
_atom_site_fract_x
_atom_site_fract_y
_atom_site_fract_z
_atom_site_type_symbol
La     0.00135  0.84236  0.69621    La
H       0.0285   0.7739   0.4395     H
H       0.0297   0.2748    0.792     H
O       0.0379   0.0023   0.0877     O
C       0.0468   0.6999   0.3186     C
H       0.0572   0.2243   0.6377     H
O       0.0663   0.9971   0.7923     O
C       0.0822   0.7299   0.4067     C
H       0.0848    0.178    0.484     H
H       0.0992   0.6135    0.211     H
C       0.1176   0.2584   0.6009     C
C       0.1236   0.6332   0.2703     C
C       0.1338   0.2308   0.5086     C
H       0.1397   0.8928   0.9559     H
C       0.1442    0.975   0.1259     C
H       0.1474   0.1025   0.9243     H
O       0.1535   0.2045    0.072     O
O       0.1549   0.1964   0.3195     O
O       0.1593   0.7843   0.8117     O
O       0.1593   0.7876   0.5829     O
C       0.1784   0.0176   0.7613     C
H       0.1802   0.3528   0.6995     H
O       0.1877   0.0179   0.1966     O
C       0.1907   0.3357   0.6376     C
C       0.1977   0.6945   0.4462     C
C       0.2021   0.8599   0.9918     C
C       0.2196    0.889   0.0834     C
C        0.224   0.2826   0.4531     C
C       0.2246   0.1267   0.8978     C
O       0.2252    0.974   0.6886     O
C       0.2379   0.7315   0.5418     C
C       0.2385   0.5947   0.3099     C
C        0.242   0.2536   0.3541     C
C        0.258   0.7536   0.8541     C
C       0.2615   0.0947   0.8099     C
C       0.2621   0.2315   0.0418     C
O       0.2748    0.474   0.1886     O
C       0.2754   0.6267   0.3978     C
C        0.276   0.7826   0.9531     C
C       0.2804    0.389   0.5834     C
C       0.2979   0.3599   0.4918     C
C       0.3023   0.1945   0.9462     C
C       0.3093   0.8357   0.1376     C
O       0.3123   0.5179   0.6966     O
H       0.3198   0.8528   0.1995     H
C       0.3216   0.5176   0.2613     C
O       0.3407   0.2843   0.3117     O
O       0.3407   0.2876   0.0829     O
O       0.3451   0.6964   0.8195     O
O       0.3465   0.7045    0.572     O
H       0.3526   0.6025   0.4243     H
C       0.3558    0.475   0.6259     C
H       0.3603   0.3928   0.4559     H
C       0.3662   0.7308   0.0086     C
C       0.3764   0.1332   0.7703     C
C       0.3824   0.7584   0.1009     C
H       0.4008   0.1135    0.711     H
H       0.4152    0.678    0.984     H
C       0.4178   0.2299   0.9067     C
O       0.4337   0.4971   0.2923     O
H       0.4428   0.7243   0.1377     H
C       0.4532   0.1999   0.8186     C
O       0.4621   0.5023   0.5877     O
H       0.4703   0.7748    0.292     H
H       0.4715   0.2739   0.9395     H
La     0.49865  0.34236  0.19621    La
La     0.50135  0.65764  0.69621    La
H       0.5285   0.7261   0.4395     H
H       0.5297   0.2252    0.792     H
O       0.5379   0.4977   0.0877     O
C       0.5468   0.8001   0.3186     C
H       0.5572   0.2757   0.6377     H
O       0.5663   0.5029   0.7923     O
C       0.5822   0.7701   0.4067     C
H       0.5848    0.322    0.484     H
H       0.5992   0.8865    0.211     H
C       0.6176   0.2416   0.6009     C
C       0.6236   0.8668   0.2703     C
C       0.6338   0.2692   0.5086     C
H       0.6397   0.6072   0.9559     H
C       0.6442    0.525   0.1259     C
H       0.6474   0.3975   0.9243     H
O       0.6535   0.2955    0.072     O
O       0.6549   0.3036   0.3195     O
O       0.6593   0.7124   0.5829     O
O       0.6593   0.7157   0.8117     O
C       0.6784   0.4824   0.7613     C
H       0.6802   0.1472   0.6995     H
O       0.6877   0.4821   0.1966     O
C       0.6907   0.1643   0.6376     C
C       0.6977   0.8055   0.4462     C
C       0.7021   0.6401   0.9918     C
C       0.7196    0.611   0.0834     C
C        0.724   0.2174   0.4531     C
C       0.7246   0.3733   0.8978     C
O       0.7252    0.526   0.6886     O
C       0.7379   0.7685   0.5418     C
C       0.7385   0.9053   0.3099     C
C        0.742   0.2464   0.3541     C
C        0.758   0.7464   0.8541     C
C       0.7615   0.4053   0.8099     C
C       0.7621   0.2685   0.0418     C
O       0.7748    0.026   0.1886     O
C       0.7754   0.8733   0.3978     C
C        0.776   0.7174   0.9531     C
C       0.7804    0.111   0.5834     C
C       0.7979   0.1401   0.4918     C
C       0.8023   0.3055   0.9462     C
C       0.8093   0.6643   0.1376     C
O       0.8123   0.9821   0.6966     O
H       0.8198   0.6472   0.1995     H
C       0.8216   0.9824   0.2613     C
O       0.8407   0.2124   0.0829     O
O       0.8407   0.2157   0.3117     O
O       0.8451   0.8036   0.8195     O
O       0.8465   0.7955    0.572     O
H       0.8526   0.8975   0.4243     H
C       0.8558    0.025   0.6259     C
H       0.8603   0.1072   0.4559     H
C       0.8662   0.7692   0.0086     C
C       0.8764   0.3668   0.7703     C
C       0.8824   0.7416   0.1009     C
H       0.9008   0.3865    0.711     H
H       0.9152    0.822    0.984     H
C       0.9178   0.2701   0.9067     C
O       0.9337   0.0029   0.2923     O
H       0.9428   0.7757   0.1377     H
C       0.9532   0.3001   0.8186     C
O       0.9621   0.9977   0.5877     O
H       0.9703   0.7252    0.292     H
H       0.9715   0.2261   0.9395     H
La     0.99865  0.15764  0.19621    La
