data_I
_chemical_name_common  '/home/zhangsd/repos/MofS-CGCNN/ML/data/TSD/clean_cifs/OKELOH_clean'
_cell_length_a 23.43200
_cell_length_b  9.54220
_cell_length_c 18.99580
_cell_angle_alpha 90.00000
_cell_angle_beta  125.96400
_cell_angle_gamma 90.00000
_space_group_name_H-M_alt      'P 1'


loop_
_space_group_symop_operation_xyz
  'x, y, z' 

loop_
_atom_site_label
_atom_site_fract_x
_atom_site_fract_y
_atom_site_fract_z
_atom_site_type_symbol
Zn         0.0   0.0062     0.75    Zn
Zn         0.0   0.9938     0.25    Zn
O      0.03398   0.2856  0.19674     O
O      0.03398   0.7144  0.69674     O
O      0.03949   0.0546  0.18887     O
O      0.03949   0.9454  0.68887     O
C      0.04966   0.1787  0.17551     C
C      0.04966   0.8213  0.67551     C
O      0.07198   0.1441  0.83648     O
O      0.07198   0.8559  0.33648     O
H       0.0789   0.0094   0.5964     H
H       0.0789   0.9906   0.0964     H
C      0.08644   0.1921  0.13177     C
C      0.08644   0.8079  0.63177     C
C      0.09681   0.0774  0.09605     C
C      0.09681   0.9226  0.59605     C
H        0.104   0.3997   0.1501     H
H        0.104   0.6003   0.6501     H
C      0.11184   0.3207  0.12817     C
C      0.11184   0.6793  0.62817     C
C      0.12665   0.0747  0.89212     C
C      0.12665   0.9253  0.39212     C
O       0.1306   0.0537  0.39567     O
O       0.1306   0.9463  0.89567     O
C      0.13336   0.0892   0.0598     C
C      0.13336   0.9108   0.5598     C
H       0.1397   0.0106   0.0362     H
H       0.1397   0.9894   0.5362     H
C      0.14871   0.3335  0.09254     C
C      0.14871   0.6665  0.59254     C
C      0.16072   0.2176  0.05839     C
C      0.16072   0.7824  0.55839     C
H       0.1658   0.4208   0.0913     H
H       0.1658   0.5792   0.5913     H
C      0.19129    0.162  0.95296     C
C      0.19129    0.838  0.45296     C
C      0.20485    0.232  0.02628     C
C      0.20485    0.768  0.52628     C
H       0.2261   0.1339   0.8798     H
H       0.2261   0.8661   0.3798     H
C      0.23597   0.1812  0.92862     C
C      0.23597   0.8188  0.42862     C
C      0.26403   0.3188  0.07138     C
C      0.26403   0.6812  0.57138     C
H       0.2739   0.3661   0.1202     H
H       0.2739   0.6339   0.6202     H
C      0.29515    0.268  0.97372     C
C      0.29515    0.732  0.47372     C
C      0.30871    0.338  0.04704     C
C      0.30871    0.662  0.54704     C
H       0.3342   0.0792   0.9087     H
H       0.3342   0.9208   0.4087     H
C      0.33928   0.2824  0.94161     C
C      0.33928   0.7176  0.44161     C
C      0.35129   0.1665  0.90746     C
C      0.35129   0.8335  0.40746     C
H       0.3603   0.4894   0.9638     H
H       0.3603   0.5106   0.4638     H
C      0.36664   0.4108   0.9402     C
C      0.36664   0.5892   0.4402     C
O       0.3694   0.4463  0.60433     O
O       0.3694   0.5537  0.10433     O
C      0.37335   0.4253  0.10788     C
C      0.37335   0.5747  0.60788     C
C      0.38816   0.1793  0.87183     C
C      0.38816   0.8207  0.37183     C
H        0.396   0.1003   0.8499     H
H        0.396   0.8997   0.3499     H
C      0.40319   0.4226  0.90395     C
C      0.40319   0.5774  0.40395     C
C      0.41356   0.3079  0.86823     C
C      0.41356   0.6921  0.36823     C
H       0.4211   0.4906   0.4036     H
H       0.4211   0.5094   0.9036     H
O      0.42802   0.3559  0.16352     O
O      0.42802   0.6441  0.66352     O
C      0.45034   0.3213  0.82449     C
C      0.45034   0.6787  0.32449     C
O      0.46051   0.4454  0.81113     O
O      0.46051   0.5546  0.31113     O
O      0.46602   0.2144  0.80326     O
O      0.46602   0.7856  0.30326     O
Zn         0.5   0.4938     0.25    Zn
Zn         0.5   0.5062     0.75    Zn
O      0.53398   0.2144  0.69674     O
O      0.53398   0.7856  0.19674     O
O      0.53949   0.4454  0.68887     O
O      0.53949   0.5546  0.18887     O
C      0.54966   0.3213  0.67551     C
C      0.54966   0.6787  0.17551     C
O      0.57198   0.3559  0.33648     O
O      0.57198   0.6441  0.83648     O
H       0.5789   0.4906   0.0964     H
H       0.5789   0.5094   0.5964     H
C      0.58644   0.3079  0.63177     C
C      0.58644   0.6921  0.13177     C
C      0.59681   0.4226  0.59605     C
C      0.59681   0.5774  0.09605     C
H        0.604   0.1003   0.6501     H
H        0.604   0.8997   0.1501     H
C      0.61184   0.1793  0.62817     C
C      0.61184   0.8207  0.12817     C
C      0.62665   0.4253  0.39212     C
C      0.62665   0.5747  0.89212     C
O       0.6306   0.4463  0.89567     O
O       0.6306   0.5537  0.39567     O
C      0.63336   0.4108   0.5598     C
C      0.63336   0.5892   0.0598     C
H       0.6397   0.4894   0.5362     H
H       0.6397   0.5106   0.0362     H
C      0.64871   0.1665  0.59254     C
C      0.64871   0.8335  0.09254     C
C      0.66072   0.2824  0.55839     C
C      0.66072   0.7176  0.05839     C
H       0.6658   0.0792   0.5913     H
H       0.6658   0.9208   0.0913     H
C      0.69129    0.338  0.45296     C
C      0.69129    0.662  0.95296     C
C      0.70485    0.268  0.52628     C
C      0.70485    0.732  0.02628     C
H       0.7261   0.3661   0.3798     H
H       0.7261   0.6339   0.8798     H
C      0.73597   0.3188  0.42862     C
C      0.73597   0.6812  0.92862     C
C      0.76403   0.1812  0.57138     C
C      0.76403   0.8188  0.07138     C
H       0.7739   0.1339   0.6202     H
H       0.7739   0.8661   0.1202     H
C      0.79515    0.232  0.47372     C
C      0.79515    0.768  0.97372     C
C      0.80871    0.162  0.54704     C
C      0.80871    0.838  0.04704     C
H       0.8342   0.4208   0.4087     H
H       0.8342   0.5792   0.9087     H
C      0.83928   0.2176  0.44161     C
C      0.83928   0.7824  0.94161     C
C      0.85129   0.3335  0.40746     C
C      0.85129   0.6665  0.90746     C
H       0.8603   0.0106   0.4638     H
H       0.8603   0.9894   0.9638     H
C      0.86664   0.0892   0.4402     C
C      0.86664   0.9108   0.9402     C
O       0.8694   0.0537  0.10433     O
O       0.8694   0.9463  0.60433     O
C      0.87335   0.0747  0.60788     C
C      0.87335   0.9253  0.10788     C
C      0.88816   0.3207  0.37183     C
C      0.88816   0.6793  0.87183     C
H        0.896   0.3997   0.3499     H
H        0.896   0.6003   0.8499     H
C      0.90319   0.0774  0.40395     C
C      0.90319   0.9226  0.90395     C
C      0.91356   0.1921  0.36823     C
C      0.91356   0.8079  0.86823     C
H       0.9211   0.0094   0.9036     H
H       0.9211   0.9906   0.4036     H
O      0.92802   0.1441  0.66352     O
O      0.92802   0.8559  0.16352     O
C      0.95034   0.1787  0.32449     C
C      0.95034   0.8213  0.82449     C
O      0.96051   0.0546  0.31113     O
O      0.96051   0.9454  0.81113     O
O      0.96602   0.2856  0.30326     O
O      0.96602   0.7144  0.80326     O
