data_I
_chemical_name_common  '/home/zhangsd/repos/MofS-CGCNN/ML/data/TSD/clean_cifs/OKILEA_clean'
_cell_length_a 14.23240
_cell_length_b 15.47770
_cell_length_c 15.47770
_cell_angle_alpha 68.95670
_cell_angle_beta  72.15070
_cell_angle_gamma 107.84900
_space_group_name_H-M_alt      'P 1'


loop_
_space_group_symop_operation_xyz
  'x, y, z' 

loop_
_atom_site_label
_atom_site_fract_x
_atom_site_fract_y
_atom_site_fract_z
_atom_site_type_symbol
Mn         0.0      0.0      0.5    Mn
Mn         0.0      0.5     -0.0    Mn
C      0.00903  0.30494  0.74225     C
C      0.02868    0.337  0.63967     C
H       0.0353    0.622   0.4594     H
O      0.04148  0.89608  0.45773     O
O      0.04471  0.49074  0.11977     O
C      0.04812   0.6426  0.39087     C
H       0.0593   0.2893    0.763     H
O      0.08428  0.76838  0.51285     O
C      0.08469  0.70366  0.18709     C
H       0.0932   0.3449   0.5912     H
H       0.0965   0.7228   0.1189     H
C      0.11059  0.86389  0.46682     C
O      0.11965  0.46148  0.22416     O
C      0.12862  0.50608  0.13331     C
C      0.14418  0.65292  0.31893     C
O       0.1454  0.64619  0.89608     O
C      0.16213  0.68394  0.21699     C
O      0.16448  0.11977  0.38949     O
H       0.1777    0.237   0.0523     H
Mn      0.2146  0.72516  0.51787    Mn
H       0.2154   0.1189   0.1583     H
H       0.2263   0.6917   0.1682     H
C      0.22647  0.63157   0.3496     C
H         0.23   0.0523   0.7107     H
C      0.23079  0.93914   0.4194     C
C      0.24433  0.57711  0.04693     C
C       0.2467  0.66929  0.86389     C
C      0.24872  0.25775  0.04719     C
H       0.2517   0.9361   0.6551     H
N      0.25401  0.65631  0.41631     N
C      0.26193  0.13331  0.36061     C
Mn     0.26753  0.48213  0.24303    Mn
C      0.27178  0.18709  0.10925     C
N      0.28122   0.5851  0.31318     N
C      0.29126  0.04693  0.37596     C
C      0.29165  0.64146  0.93914     C
C      0.29591  0.04719  0.69506     C
N      0.30388  0.89828   0.4149     N
C      0.30832  0.97667    0.663     C
H       0.3156   0.4088   0.9361     H
O       0.3159  0.71877  0.76838     O
N      0.32968  0.58369  0.07262     N
C      0.33165  0.36033  0.97667     C
C      0.33278  0.62404  0.42289     C
O      0.34183  0.68564  0.53852     O
O      0.34381  0.22416  0.31436     O
C      0.34981   0.5806  0.35854     C
H       0.3737   0.1583   0.7228     H
C      0.37746  0.63939  0.49392     C
C      0.37912  0.21699  0.09907     C
C      0.38103  0.10925  0.70366     C
H       0.3945   0.1682   0.1401     H
N       0.4023  0.07262  0.34369     N
O      0.40287  0.48715  0.28123     O
C       0.4051  0.98117  0.36843     C
C      0.40552  0.96653   0.6426     C
N       0.4056  0.68682  0.89828     N
H       0.4133   0.9186    0.622     H
C      0.42259  0.53318  0.33071     C
C      0.42393   0.6504  0.98117     C
C      0.43899  0.39087  0.96653     C
O      0.44603  0.61051  0.50926     O
C      0.46311  0.31893  0.02815     C
H       0.4654   0.8599   0.3083     H
C      0.47819  0.09907  0.68394     C
Mn     0.48944  0.75697  0.72516    Mn
C      0.49126  0.02815  0.65292     C
H       0.4947   0.4594   0.9186     H
O      0.49921  0.45773  0.64619     O
Mn         0.5      0.5      0.5    Mn
O      0.50079  0.54227  0.35381     O
H       0.5053   0.5406   0.0814     H
C      0.50874  0.97185  0.34708     C
Mn     0.51056  0.24303  0.27484    Mn
C      0.52181  0.90093  0.31606     C
H       0.5346   0.1401   0.6917     H
C      0.53689  0.68107  0.97185     C
O      0.55397  0.38949  0.49074     O
C      0.56101  0.60913  0.03347     C
C      0.57607   0.3496  0.01883     C
C      0.57741  0.46682  0.66929     C
H       0.5867   0.0814    0.378     H
N       0.5944  0.31318  0.10172     N
C      0.59448  0.03347   0.3574     C
C       0.5949  0.01883  0.63157     C
O      0.59713  0.51285  0.71877     O
N       0.5977  0.92738  0.65631     N
H       0.6055   0.8318   0.8599     H
C      0.61897  0.89075  0.29634     C
C      0.62088  0.78301  0.90093     C
C      0.62254  0.36061  0.50608     C
H       0.6263   0.8417   0.2772     H
C      0.65019   0.4194  0.64146     C
O      0.65619  0.77584  0.68564     O
O      0.65817  0.31436  0.46148     O
C      0.66722  0.37596  0.57711     C
C      0.66835  0.63967  0.02333     C
N      0.67032  0.41631  0.92738     N
O       0.6841  0.28123  0.23162     O
H       0.6844   0.5912   0.0639     H
C      0.69168  0.02333    0.337     C
N      0.69612  0.10172   0.5851     N
C      0.70409  0.95281  0.30494     C
C      0.70835  0.35854  0.06086     C
C      0.70874  0.95307  0.62404     C
N      0.71878   0.4149  0.68682     N
C      0.72822  0.81291  0.89075     C
Mn     0.73247  0.51787  0.75697    Mn
C      0.73807  0.86669  0.63939     C
N      0.74599  0.34369  0.58369     N
H       0.7483   0.0639   0.3449     H
C      0.75128  0.74225  0.95281     C
C       0.7533  0.33071  0.13611     C
C      0.75567  0.42289  0.95307     C
C      0.76921  0.06086   0.5806     C
H         0.77   0.9477   0.2893     H
C      0.77353  0.36843   0.6504     C
H       0.7737   0.3083   0.8318     H
H       0.7846   0.8811   0.8417     H
Mn      0.7854  0.27484  0.48213    Mn
H       0.8223    0.763   0.9477     H
O      0.83552  0.88023  0.61051     O
C      0.83787  0.31606  0.78301     C
O       0.8546  0.35381  0.10392     O
C      0.85582  0.34708  0.68107     C
C      0.87138  0.49392  0.86669     C
O      0.88035  0.53852  0.77584     O
C      0.88941  0.13611  0.53318     C
H       0.9035   0.2772   0.8811     H
H       0.9068   0.6551   0.4088     H
C      0.91531  0.29634  0.81291     C
O      0.91572  0.23162  0.48715     O
H       0.9407   0.7107    0.237     H
C      0.95188   0.3574  0.60913     C
O      0.95529  0.50926  0.88023     O
O      0.95852  0.10392  0.54227     O
H       0.9647    0.378   0.5406     H
C      0.97132    0.663  0.36033     C
C      0.99097  0.69506  0.25775     C
