data_I
_chemical_name_common  '/home/zhangsd/repos/MofS-CGCNN/ML/data/TSD/clean_cifs/OKIMAY_clean'
_cell_length_a  8.00980
_cell_length_b 13.81300
_cell_length_c 22.12600
_cell_angle_alpha 90.00000
_cell_angle_beta  98.25000
_cell_angle_gamma 90.00000
_space_group_name_H-M_alt      'P 1'


loop_
_space_group_symop_operation_xyz
  'x, y, z' 

loop_
_atom_site_label
_atom_site_fract_x
_atom_site_fract_y
_atom_site_fract_z
_atom_site_type_symbol
C       0.0065   0.7214    0.418     C
C       0.0065   0.7786    0.918     C
O       0.0066   0.6514   0.6287     O
O       0.0066   0.8486   0.1287     O
C       0.0219   0.6955   0.5262     C
C       0.0219   0.8045   0.0262     C
O        0.029   0.5923  0.34759     O
O        0.029   0.9077  0.84759     O
C       0.0323   0.6839   0.3554     C
C       0.0323   0.8161   0.8554     C
C       0.0502   0.6636   0.4694     C
C       0.0502   0.8364   0.9694     C
C       0.0539   0.2143   0.4685     C
C       0.0539   0.2857   0.9685     C
O       0.0599   0.7429   0.3164     O
O       0.0599   0.7571   0.8164     O
C        0.063   0.1884   0.5765     C
C        0.063   0.3116   0.0765     C
C       0.0687   0.6327   0.5827     C
C       0.0687   0.8673   0.0827     C
H       0.0704   0.6869   0.6509     H
H       0.0704   0.8131   0.1509     H
H       0.0756   0.1929   0.4305     H
H       0.0756   0.3071   0.9305     H
H       0.0875   0.1488   0.6106     H
H       0.0875   0.3512   0.1106     H
C       0.0967   0.1565   0.5195     C
C       0.0967   0.3435   0.0195     C
H       0.0987   0.6032   0.4654     H
H       0.0987   0.8968   0.9654     H
O       0.1635   0.5614  0.57769     O
O       0.1635   0.9386  0.07769     O
C       0.1826    0.063   0.5143     C
C       0.1826    0.437   0.0143     C
Zn     0.19051  0.02099  0.15018    Zn
Zn     0.19051  0.47901  0.65018    Zn
N        0.219   0.0371  0.45842     N
N        0.219   0.4629  0.95842     N
O       0.2324   0.5161   0.7371     O
O       0.2324   0.9839   0.2371     O
N       0.2334   0.0001   0.5559     N
N       0.2334   0.4999   0.0559     N
H       0.2696   0.5073   0.8517     H
H       0.2696   0.9927   0.3517     H
C       0.2993   0.5489   0.9692     C
C       0.2993   0.9511   0.4692     C
N       0.3106   0.5724   0.0269     N
N       0.3106   0.9276   0.5269     N
C       0.3301   0.5645   0.8598     C
C       0.3301   0.9355   0.3598     C
O       0.3497   0.1285  0.15062     O
O       0.3497   0.3715  0.65062     O
C       0.3514   0.5779    0.748     C
C       0.3514   0.9221    0.248     C
H       0.3575   0.6236   0.0437     H
H       0.3575   0.8764   0.5437     H
C       0.3587   0.6002   0.9193     C
C       0.3587   0.8998   0.4193     C
O       0.3857   0.1312   0.0528     O
O       0.3857   0.3688   0.5528     O
C        0.391   0.6135   0.8121     C
C        0.391   0.8865   0.3121     C
C       0.4046   0.1672   0.1051     C
C       0.4046   0.3328   0.6051     C
O       0.4309   0.6089   0.7086     O
O       0.4309   0.8911   0.2086     O
C       0.4437   0.6903   0.9301     C
C       0.4437   0.8097   0.4301     C
H       0.4573   0.7169   0.9691     H
H       0.4573   0.7831   0.4691     H
H       0.4723   0.2296   0.7063     H
H       0.4723   0.2704   0.2063     H
H        0.477   0.1121   0.0449     H
H        0.477   0.3879   0.5449     H
C        0.482   0.6987   0.8249     C
C        0.482   0.8013   0.3249     C
C       0.4937   0.2389   0.6165     C
C       0.4937   0.2611   0.1165     C
C       0.5063   0.7389   0.8835     C
C       0.5063   0.7611   0.3835     C
C        0.518   0.1987   0.6751     C
C        0.518   0.3013   0.1751     C
H        0.523   0.6121   0.4551     H
H        0.523   0.8879   0.9551     H
H       0.5277   0.7296   0.7937     H
H       0.5277   0.7704   0.2937     H
H       0.5427   0.2169   0.5309     H
H       0.5427   0.2831   0.0309     H
C       0.5563   0.1903   0.5699     C
C       0.5563   0.3097   0.0699     C
O       0.5691   0.1089   0.7914     O
O       0.5691   0.3911   0.2914     O
C       0.5954   0.6672   0.3949     C
C       0.5954   0.8328   0.8949     C
C        0.609   0.1135   0.6879     C
C        0.609   0.3865   0.1879     C
O       0.6143   0.6312   0.4472     O
O       0.6143   0.8688   0.9472     O
C       0.6413   0.1002   0.5807     C
C       0.6413   0.3998   0.0807     C
H       0.6425   0.1236   0.4563     H
H       0.6425   0.3764   0.9563     H
C       0.6486   0.0779    0.752     C
C       0.6486   0.4221    0.252     C
O       0.6503   0.6285  0.34938     O
O       0.6503   0.8715  0.84938     O
C       0.6699   0.0645   0.6402     C
C       0.6699   0.4355   0.1402     C
N       0.6894   0.0724   0.4731     N
N       0.6894   0.4276   0.9731     N
C       0.7007   0.0489   0.5308     C
C       0.7007   0.4511   0.0308     C
H       0.7304   0.0073   0.6483     H
H       0.7304   0.4927   0.1483     H
N       0.7666   0.5001   0.9441     N
N       0.7666   0.9999   0.4441     N
O       0.7676   0.0161   0.7629     O
O       0.7676   0.4839   0.2629     O
N        0.781   0.5371  0.04158     N
N        0.781   0.9629  0.54158     N
Zn     0.80949  0.52099  0.34982    Zn
Zn     0.80949  0.97901  0.84982    Zn
C       0.8174    0.563   0.9857     C
C       0.8174    0.937   0.4857     C
O       0.8365   0.0614  0.92231     O
O       0.8365   0.4386  0.42231     O
H       0.9013   0.1032   0.0346     H
H       0.9013   0.3968   0.5346     H
C       0.9033   0.6565   0.9805     C
C       0.9033   0.8435   0.4805     C
H       0.9125   0.6488   0.8894     H
H       0.9125   0.8512   0.3894     H
H       0.9244   0.6929   0.0695     H
H       0.9244   0.8071   0.5695     H
H       0.9296   0.1869   0.8491     H
H       0.9296   0.3131   0.3491     H
C       0.9313   0.1327   0.9173     C
C       0.9313   0.3673   0.4173     C
C        0.937   0.6884   0.9235     C
C        0.937   0.8116   0.4235     C
O       0.9401   0.2429   0.1836     O
O       0.9401   0.2571   0.6836     O
C       0.9461   0.7143   0.0315     C
C       0.9461   0.7857   0.5315     C
C       0.9498   0.1636   0.0306     C
C       0.9498   0.3364   0.5306     C
C       0.9677   0.1839   0.1446     C
C       0.9677   0.3161   0.6446     C
O        0.971   0.0923  0.15241     O
O        0.971   0.4077  0.65241     O
C       0.9781   0.1955   0.9738     C
C       0.9781   0.3045   0.4738     C
O       0.9934   0.1514   0.8713     O
O       0.9934   0.3486   0.3713     O
C       0.9935   0.2214    0.082     C
C       0.9935   0.2786    0.582     C
