data_I
_chemical_name_common  '/home/zhangsd/repos/MofS-CGCNN/ML/data/TSD/clean_cifs/OKIPOO_clean'
_cell_length_a 18.49050
_cell_length_b 18.49050
_cell_length_c 33.54080
_cell_angle_alpha 106.00000
_cell_angle_beta  106.00000
_cell_angle_gamma 90.00000
_space_group_name_H-M_alt      'P 1'


loop_
_space_group_symop_operation_xyz
  'x, y, z' 

loop_
_atom_site_label
_atom_site_fract_x
_atom_site_fract_y
_atom_site_fract_z
_atom_site_type_symbol
C      0.00025  0.57045   0.7129     C
C      0.00069  0.81619  0.14478     C
C      0.00085  0.96575   0.3309     C
C      0.00121  0.52941  0.81382     C
H       0.0018   0.1409   0.3858     H
H       0.0026   0.0529   0.5762     H
H       0.0058   0.0421   0.2378     H
H       0.0092   0.1302   0.4584     H
H       0.0097   0.5816    0.829     H
C       0.0107   0.6837   0.1046     C
C      0.01189  0.62119  0.40998     C
C      0.01367  0.96427  0.87074     C
H       0.0138   0.1661   0.1916     H
H       0.0138   0.6303   0.4712     H
C      0.01458  0.94298  0.39916     C
O      0.01521  0.02151  0.90102     O
C      0.01569  0.44099  0.68178     C
O      0.01715  0.63205   0.3405     O
C      0.01793  0.13113  0.29226     C
O      0.02151  0.38581  0.40102     O
O      0.02311  0.86861  0.17822     O
H       0.0233   0.5736   0.0762     H
C      0.02358  0.62158  0.22776     C
H       0.0244    0.421    0.603     H
C      0.02465  0.02655   0.6331     C
H       0.0255   0.0138   0.6916     H
C      0.02655  0.10845   0.1331     C
C      0.02941  0.50121  0.31382     C
H       0.0295   0.8716   0.7022     H
H        0.031   0.3888   0.2836     H
H       0.0318   0.3117    0.918     H
H       0.0323   0.6744   0.2414     H
C       0.0333   0.1728   0.4122     C
O      0.03352  0.70352  0.65724     O
C      0.03425  0.16995   0.1691     C
C      0.03573  0.64293  0.62926     C
C      0.03596  0.65106  0.45392     C
C      0.03642  0.08372  0.25924     C
C      0.03796  0.74346  0.13972     C
C       0.0382   0.1651   0.4516     C
C       0.0411   0.6532   0.3856     C
H       0.0421    0.732   0.7378     H
H       0.0426   0.1591   0.5288     H
C      0.04382  0.61542  0.10084     C
O      0.04628  0.96648  0.84276     O
C      0.04701  0.40921  0.79842     C
H       0.0508   0.6718   0.5416     H
H       0.0529   0.0736   0.0762     H
O      0.05516  0.17916  0.88612     O
C      0.05702  0.11542  0.10084     C
C      0.05901  0.48431  0.81822     C
C      0.06434  0.92864  0.32768     C
H        0.067   0.2091   0.7414     H
C      0.07045  0.50025   0.2129     C
C      0.07136  0.23666  0.17232     C
H       0.0736   0.5233   0.5762     H
H       0.0751   0.2847   0.6974     H
N      0.07595  0.18375   0.3167     N
C      0.07599  0.58079  0.73418     C
Co     0.07635  0.27818   0.3665    Co
H       0.0764   0.2786    0.197     H
H       0.0786    0.182    0.603     H
H        0.079   0.4756    0.897     H
N      0.07906  0.23186  0.41532     N
C       0.0791   0.9061   0.3954     C
C      0.08079  0.57599  0.23418     C
H       0.0816   0.5097    0.329     H
H       0.0816   0.9236    0.303     H
C      0.08204  0.19714  0.54608     C
C      0.08372  0.72282  0.75924     C
C       0.0866   0.7135   0.5484     C
H       0.0873   0.3777   0.8026     H
Co     0.08832  0.07635   0.8665    Co
C       0.0896   0.7085   0.4738     C
C      0.09079  0.45299  0.70158     C
C      0.09353  0.98633  0.62926     C
C       0.0939   0.1837   0.1046     C
N      0.09445  0.21895   0.4801     N
C      0.09502  0.71202  0.40464     C
C      0.10096  0.73666  0.17232     C
C      0.10176  0.24346  0.13972     C
C      0.10191  0.21121  0.59002     C
C      0.10361  0.26271  0.45682     C
C      0.10374  0.89824  0.36028     C
H       0.1052    0.969   0.2164     H
C      0.10618  0.20418  0.72776     C
H       0.1063   0.8862    0.418     H
C      0.10655  0.60845   0.1331     C
N      0.10726  0.65416  0.76272     N
C      0.10845  0.60655   0.6331     C
N      0.10856  0.10726  0.26272     N
C      0.11079  0.24859  0.70158     C
H       0.1112    0.469   0.2164     H
H       0.1138   0.1883    0.082     H
O      0.11419  0.47849  0.09898     O
N      0.11435  0.73885   0.5199     N
H       0.1145    0.178    0.808     H
H        0.115   0.7344   0.3872     H
C      0.11542  0.54382  0.60084     C
C       0.1158   0.2347   0.5262     C
H        0.116   0.7551   0.6142     H
O      0.12049  0.98479  0.59898     O
H       0.1206   0.7786    0.197     H
C      0.12066  0.73926  0.44912     C
C       0.1211   0.7606   0.5878     C
C      0.12119  0.51189  0.90998     C
C      0.12158  0.52358  0.72776     C
H       0.1223   0.4127   0.6974     H
O      0.12372  0.95372  0.65724     O
H       0.1263   0.3129   0.4692     H
H       0.1284   0.8273   0.7978     H
C      0.12962  0.16662  0.29784     C
H         0.13   0.6935    0.308     H
H       0.1302   0.9492   0.9584     H
H       0.1303   0.5138   0.9712     H
C      0.13113  0.77433  0.79226     C
C      0.13122  0.12962  0.79784     C
O      0.13139  0.34489  0.32178     O
O      0.13205  0.51715   0.8405     O
N      0.13295  0.07595   0.8167     N
C      0.13485  0.66995   0.1691     C
H       0.1409    0.884   0.8858     H
C      0.14245  0.00025   0.2129     C
C      0.14293  0.53573  0.12926     C
C      0.14409  0.31619  0.14478     C
C      0.14679  0.80589  0.54318     C
C      0.15106  0.53596  0.95392     C
H       0.1528   0.2722   0.8872     H
C       0.1532   0.5411   0.8856     C
C      0.15339  0.07599  0.23418     C
N      0.15416  0.60726  0.26272     N
O      0.15511  0.36861  0.17822     O
N      0.15546  0.10856  0.76272     N
C       0.1555   0.2676   0.6144     C
H       0.1563   0.1263   0.9692     H
H       0.1571   0.8437   0.5308     H
C      0.15819  0.15339  0.73418     C
H       0.1591   0.9862   0.0288     H
H       0.1597    0.779   0.4624     H
C      0.16113  0.01793  0.79226     C
N      0.16374  0.81654  0.58468     N
C       0.1651   0.9134   0.9516     C
C      0.16609  0.24079  0.68178     C
H       0.1661   0.6778   0.6916     H
C      0.16662  0.66822  0.79784     C
C      0.16822  0.66662  0.29784     C
O      0.16904  0.32084  0.11388     O
H       0.1694   0.9705   0.7978     H
C      0.16995  0.63485   0.6691     C
C      0.17141  0.85591  0.35522     C
C      0.17154  0.29014  0.55088     C
H       0.1718   0.5508   0.0416     H
H       0.1727   0.8306   0.7022     H
C       0.1728   0.8789   0.9122     C
H       0.1744   0.5323   0.7414     H
C      0.17552  0.03642  0.75924     C
O      0.17665  0.29155   0.6595     O
H       0.1778   0.6661   0.1916     H
H        0.178   0.1935    0.308     H
O      0.17916  0.33096  0.38612     O
H       0.1807   0.9184    0.171     H
H        0.182   0.0244    0.103     H
H       0.1834   0.3027   0.9624     H
N      0.18346  0.07906  0.91532     N
C       0.1837   0.5107   0.6046     C
N      0.18375  0.74075   0.8167     N
C      0.18381  0.35591  0.35522     C
H       0.1871   0.3737   0.0308     H
C      0.18739  0.97059  0.18618     C
H       0.1883   0.4682    0.582     H
C      0.19038  0.30738  0.59536     C
O      0.19039  0.84489  0.32178     O
C      0.19262  0.30962  0.90464     C
H       0.1935     0.63    0.808     H
C      0.19411  0.10361  0.95682     C
H       0.1957   0.0058   0.7378     H
C      0.19714  0.96404  0.04608     C
H       0.1973   0.3166   0.5376     H
O      0.20352  0.53352  0.15724     O
C      0.20418  0.12158  0.22776     C
O      0.20696  0.83096  0.38612     O
O      0.20845  0.32335   0.8405     O
C       0.2085   0.5896   0.9738     C
H       0.2091   0.1744   0.2414     H
Co     0.20985  0.91168   0.6335    Co
C      0.20986  0.32846  0.94912     C
C      0.21121  0.98811  0.09002     C
C      0.21202  0.59502  0.90464     C
C      0.21265  0.14245   0.7129     C
C       0.2135   0.5866   0.0484     C
H       0.2153   0.4249   0.8026     H
C      0.21559  0.18739  0.68618     C
N      0.21895  0.88565   0.9801     N
H        0.221   0.1973   0.0376     H
H       0.2214   0.4236    0.303     H
Co     0.22182  0.42365   0.1335    Co
C      0.22282  0.58372  0.25924     C
C      0.22567  0.83887  0.70774     C
H       0.2278   0.3472   0.6128     H
N      0.23186  0.83626  0.91532     N
H        0.232   0.5421   0.2378     H
C       0.2324   0.3445   0.8856     C
H       0.2344    0.615   0.8872     H
C       0.2347   0.9104   0.0262     C
C      0.23666  0.60096  0.67232     C
C      0.23729  0.39639  0.04318     C
N      0.23885  0.61435   0.0199     N
C      0.23926  0.62066  0.94912     C
C       0.2394   0.0333   0.9122     C
N      0.24075  0.68375   0.3167     N
C      0.24079  0.01569  0.18178     C
C      0.24346  0.53796  0.63972     C
H       0.2449   0.0018   0.8858     H
H       0.2474   0.0097    0.329     H
H       0.2474   0.1052   0.7164     H
C      0.24859  0.09079  0.20158     C
C      0.25141  0.38921  0.79842     C
H       0.2526   0.1807    0.671     H
H       0.2526   0.8888   0.2836     H
H       0.2551    0.616   0.1142     H
C      0.25654  0.39824  0.36028     C
C      0.25921  0.33391  0.81822     C
N      0.25925  0.86705   0.6833     N
C       0.2606   0.6211   0.0878     C
C      0.26074  0.17154  0.05088     C
N      0.26115  0.09445   0.9801     N
C      0.26271  0.85321  0.95682     C
C      0.26334  0.42864  0.32768     C
C       0.2653   0.3842   0.9738     C
H       0.2656   0.2278   0.1128     H
C       0.2676   0.9589   0.1144     C
H        0.268   0.8043   0.7622     H
N      0.26814  0.42094  0.08468     N
H       0.2722   0.2344   0.3872     H
C      0.27433  0.63113  0.29226     C
C      0.27718  0.82448  0.74076     C
Co     0.27818  0.79015   0.8665    Co
H       0.2786   0.6206    0.697     H
H        0.279   0.6597   0.9624     H
N      0.28105  0.40555   0.0199     N
C      0.28441  0.00121  0.31382     C
H       0.2847   0.1223   0.1974     H
C       0.2865   0.0382   0.9516     C
C      0.28735  0.92955   0.2871     C
C      0.28798  0.19038  0.09536     C
C      0.28879  0.39809  0.90998     C
C      0.29014  0.87934  0.05088     C
Co     0.29015  0.77818   0.3665    Co
H       0.2909    0.433   0.7586     H
C       0.2915   0.1158   0.0262     C
O      0.29155  0.98285   0.1595     O
O      0.29304  0.94484  0.61388     O
C      0.29582  0.39382  0.77224     C
O      0.29648  0.87628  0.84276     O
H       0.3027    0.279   0.4624     H
C      0.30286  0.41796  0.95392     C
H       0.3043    0.768   0.2622     H
C      0.30589  0.64679  0.04318     C
H       0.3065    0.322    0.192     H
C      0.30738  0.90498  0.09536     C
O      0.30961  0.02311  0.67822     O
C      0.30962  0.21202  0.40464     C
H       0.3117   0.3862    0.418     H
C      0.31261  0.28441  0.81382     C
H       0.3129   0.8429   0.9692     H
C      0.31619  0.50069  0.64478     C
N      0.31625  0.42405   0.1833     N
C       0.3163   0.4061   0.3954     C
N      0.31654  0.66374  0.08468     N
H       0.3166   0.8403   0.0376     H
H        0.318   0.4214    0.897     H
H       0.3193   0.2474    0.829     H
O      0.32084  0.44484  0.61388     O
H        0.322   0.3855    0.692     H
H       0.3222   0.9745   0.8084     H
O      0.32335  0.13205   0.3405     O
C      0.32448  0.77718  0.24076     C
H       0.3256   0.2909   0.2586     H
C       0.3272   0.4667   0.0878     C
H       0.3273   0.6284   0.2978     H
H       0.3282   0.0092   0.9584     H
C      0.32846  0.23926  0.44912     C
C      0.32859  0.00069  0.64478     C
C      0.33005  0.46575   0.3309     C
H       0.3306   0.6727   0.2022     H
O      0.33096  0.70696  0.88612     O
C      0.33178  0.86878  0.70216     C
C      0.33338  0.37038  0.20216     C
H       0.3339   0.4862   0.3084     H
C      0.33391  0.05901  0.31822     C
C       0.3349   0.4618   0.0484     C
N      0.33626  0.73186  0.41532     N
C      0.33887  0.72567  0.20774     C
H       0.3403   0.8166   0.5376     H
H       0.3409   0.4574   0.9712     H
C      0.34181  0.91921  0.26582     C
H       0.3429   0.8129   0.4692     H
H       0.3437   0.6571   0.0308     H
C       0.3445   0.1532   0.3856     C
N      0.34454  0.84584  0.23728     N
O      0.34489  0.69039  0.82178     O
N      0.34584  0.84454  0.73728     N
C      0.34661  0.34181  0.76582     C
C       0.3468   0.1555   0.1144     C
H       0.3472    0.885   0.1128     H
C      0.34894  0.08204  0.04608     C
C      0.35321  0.76271  0.45682     C
C      0.35591  0.67141  0.85522     C
C      0.35707  0.90647  0.87074     C
C      0.35755  0.28735   0.7871     C
H       0.3591   0.4982   0.1142     H
C      0.36515  0.00085   0.8309     C
N      0.36705  0.75925   0.1833     N
O      0.36795  0.17665   0.1595     O
O      0.36861  0.52311  0.67822     O
C      0.36878  0.83178  0.20216     C
C      0.36887  0.48207  0.20774     C
H       0.3697   0.0426   0.0288     H
H       0.3698   0.4908   0.0416     H
H         0.37   0.8855    0.692     H
C      0.37038  0.36878  0.70216     C
H       0.3716   0.5295   0.2022     H
H       0.3737   0.3437   0.5308     H
O      0.37628  0.79648  0.34276     O
H       0.3777   0.2153   0.3026     H
C      0.37842  0.29582  0.27224     C
C      0.37881  0.10191  0.09002     C
C       0.3789   0.6728   0.4122     C
C      0.37934  0.79014  0.55088     C
H       0.3794   0.0816    0.803     H
O      0.37951  0.88581  0.40102     O
H        0.384   0.6409   0.3858     H
C       0.3842   0.2085   0.4738     C
C      0.38458  0.44298  0.39916     C
H        0.385   0.8472   0.6128     H
H       0.3855     0.87    0.192     H
N      0.38565  0.71895   0.4801     N
O      0.38581  0.87951  0.90102     O
H       0.3862   0.6063    0.918     H
H       0.3888   0.7526   0.7836     H
C      0.38921  0.04701  0.29842     C
N      0.39144  0.34454  0.73728     N
C      0.39155  0.47345   0.3669     C
N      0.39274  0.39144  0.23728     N
C      0.39345  0.97535   0.8669     C
H       0.3937   0.9682    0.582     H
C      0.39382  0.97642  0.27224     C
H       0.3948   0.2526   0.7836     H
C      0.39626  0.03796  0.63972     C
C      0.39639  0.30589  0.54318     C
C      0.39809  0.12119  0.40998     C
C      0.39824  0.60374  0.86028     C
C      0.39904  0.06434  0.82768     C
C      0.40498  0.80738  0.59536     C
N      0.40555  0.23885   0.5199     N
C       0.4061   0.5791   0.8954     C
C      0.40647  0.85707  0.37074     C
C      0.40921  0.25141  0.29842     C
C       0.4104   0.7347   0.5262     C
Co     0.41168  0.70985   0.1335    Co
H       0.4127   0.0751   0.1974     H
C       0.4134   0.6651   0.4516     C
C      0.41628  0.46358  0.24076     C
C      0.41796  0.15106  0.45392     C
H       0.4184   0.1206    0.697     H
H       0.4184   0.6807    0.671     H
C      0.41921  0.84181  0.76582     C
C       0.4209   0.0107   0.6046     C
N      0.42094  0.31654  0.58468     N
H        0.421   0.0786    0.103     H
H       0.4214    0.079    0.397     H
H       0.4236   0.5816    0.803     H
Co     0.42365  0.41168   0.6335    Co
C      0.42401  0.34661  0.26582     C
N      0.42405  0.36705   0.6833     N
H       0.4249   0.0873   0.3026     H
H       0.4264   0.4471   0.4238     H
C      0.42864  0.56434  0.82768     C
C      0.42955  0.78735   0.7871     C
H        0.433   0.9677   0.2586     H
C      0.43566  0.10096  0.67232     C
C      0.44099  0.16609  0.18178     C
C      0.44298  0.51458  0.89916     C
O      0.44484  0.79304  0.11388     O
H       0.4471   0.4974   0.9238     H
H       0.4492   0.6302   0.4584     H
C      0.45299  0.11079  0.20158     C
O      0.45372  0.62372  0.15724     O
C      0.45618  0.01458  0.89916     C
H       0.4574   0.1303   0.4712     H
H       0.4579   0.4942   0.2622     H
C       0.4589   0.7676   0.6144     C
C       0.4618   0.2135   0.5484     C
C      0.46204  0.10374  0.86028     C
C      0.46358  0.32448  0.74076     C
C      0.46404  0.69714  0.54608     C
C      0.46427  0.51367  0.37074     C
C      0.46575  0.50085   0.8309     C
O      0.46648  0.54628  0.34276     O
C       0.4667   0.2606   0.5878     C
H       0.4677    0.933   0.7586     H
H       0.4682   0.8937    0.082     H
H        0.469   0.6052   0.7164     H
H       0.4705   0.6694   0.2978     H
C      0.47059  0.68739  0.68618     C
C      0.47345  0.47535   0.8669     C
H       0.4745   0.8222   0.3084     H
C      0.47535  0.89345   0.3669     C
H       0.4756    0.318    0.397     H
C      0.47642  0.89382  0.77224     C
H       0.4767   0.9974   0.9238     H
O      0.47689  0.19039  0.82178     O
O      0.47849  0.48479  0.59898     O
C      0.48207  0.33887  0.70774     C
O      0.48285  0.79155   0.6595     O
C      0.48431  0.25921  0.31822     C
O      0.48479  0.62049  0.09898     O
C      0.48542  0.04382  0.60084     C
H       0.4862   0.4745   0.8084     H
H       0.4862   0.6591   0.5288     H
C      0.48633  0.59353  0.12926     C
C      0.48811  0.71121  0.59002     C
C       0.4893   0.0791   0.8954     C
H       0.4903   0.2526    0.171     H
H       0.4908   0.1718   0.5416     H
H       0.4942   0.3043   0.7622     H
H       0.4974   0.9767   0.4238     H
H       0.4982   0.2551   0.6142     H
C      0.49879  0.21559  0.18618     C
C      0.49915  0.13485   0.6691     C
C      0.49931  0.17141  0.85522     C
C      0.49975  0.35755   0.2871     C
C      0.50025  0.64245   0.7129     C
C      0.50069  0.82859  0.14478     C
C      0.50085  0.86515   0.3309     C
C      0.50121  0.78441  0.81382     C
H       0.5018   0.7449   0.3858     H
H       0.5026   0.0233   0.5762     H
H       0.5058   0.6957   0.2378     H
H       0.5092   0.8282   0.4584     H
H       0.5097   0.7474    0.829     H
C       0.5107   0.9209   0.1046     C
C      0.51189  0.28879  0.40998     C
C      0.51367  0.40647  0.87074     C
H       0.5138   0.3409   0.4712     H
H       0.5138   0.5255   0.1916     H
C      0.51458  0.95618  0.39916     C
O      0.51521  0.37951  0.90102     O
C      0.51569  0.74079  0.68178     C
O      0.51715  0.20845   0.3405     O
C      0.51793  0.66113  0.29226     C
O      0.52151  0.51521  0.40102     O
O      0.52311  0.80961  0.17822     O
H       0.5233   0.0026   0.0762     H
C      0.52358  0.10618  0.22776     C
H       0.5244    0.682    0.603     H
C      0.52465  0.10655   0.6331     C
H       0.5255   0.1778   0.6916     H
C      0.52655  0.52465   0.1331     C
C      0.52941  0.31261  0.31382     C
H       0.5295   0.3306   0.7022     H
H        0.531   0.3948   0.2836     H
H       0.5318   0.1063    0.918     H
H       0.5323    0.067   0.2414     H
C       0.5333   0.7394   0.4122     C
O      0.53352  0.45372  0.65724     O
C      0.53425  0.49915   0.1691     C
C      0.53573  0.48633  0.62926     C
C      0.53596  0.30286  0.45392     C
C      0.53642  0.67552  0.25924     C
C      0.53796  0.89626  0.13972     C
C       0.5382   0.7865   0.4516     C
C       0.5411   0.2324   0.3856     C
H       0.5421   0.5058   0.7378     H
H       0.5426   0.8697   0.5288     H
C      0.54382  0.98542  0.10084     C
O      0.54628  0.37628  0.84276     O
C      0.54701  0.88921  0.79842     C
H       0.5508   0.3698   0.5416     H
H       0.5529   0.5026   0.0762     H
O      0.55516  0.20696  0.88612     O
C      0.55702  0.48542  0.10084     C
C      0.55901  0.83391  0.81822     C
C      0.56434  0.89904  0.32768     C
H        0.567   0.0323   0.7414     H
C      0.57045  0.21265   0.2129     C
C      0.57136  0.43566  0.17232     C
H       0.5736   0.5529   0.5762     H
H       0.5751   0.9127   0.6974     H
N      0.57595  0.63295   0.3167     N
C      0.57599  0.65339  0.73418     C
Co     0.57635  0.58832   0.3665    Co
H       0.5764   0.4184    0.197     H
H       0.5786    0.921    0.603     H
H        0.579   0.9214    0.897     H
N      0.57906  0.68346  0.41532     N
C       0.5791   0.9893   0.3954     C
C      0.58079  0.15819  0.23418     C
H       0.5816   0.3193    0.329     H
H       0.5816   0.8794    0.303     H
C      0.58204  0.84894  0.54608     C
C      0.58372  0.53642  0.75924     C
C       0.5866   0.3349   0.5484     C
H       0.5873   0.9249   0.8026     H
Co     0.58832  0.29015   0.8665    Co
C       0.5896   0.2653   0.4738     C
C      0.59079  0.74859  0.70158     C
C      0.59353  0.14293  0.62926     C
C       0.5939   0.4209   0.1046     C
N      0.59445  0.76115   0.4801     N
C      0.59502  0.19262  0.40464     C
C      0.60096  0.93566  0.17232     C
C      0.60176  0.39626  0.13972     C
C      0.60191  0.87881  0.59002     C
C      0.60361  0.69411  0.45682     C
C      0.60374  0.96204  0.36028     C
H       0.6052   0.7474   0.2164     H
C      0.60618  0.02358  0.72776     C
H       0.6063   0.0318    0.418     H
C      0.60655  0.02465   0.1331     C
N      0.60726  0.60856  0.76272     N
C      0.60845  0.52655   0.6331     C
N      0.60856  0.65546  0.26272     N
C      0.61079  0.95299  0.70158     C
H       0.6112   0.2474   0.2164     H
H       0.6138   0.3937    0.082     H
O      0.61419  0.12049  0.09898     O
N      0.61435  0.28105   0.5199     N
H       0.6145     0.13    0.808     H
H        0.615   0.1528   0.3872     H
C      0.61542  0.55702  0.60084     C
C       0.6158   0.7915   0.5262     C
H        0.616   0.3591   0.6142     H
O      0.62049  0.11419  0.59898     O
H       0.6206   0.9184    0.197     H
C      0.62066  0.20986  0.44912     C
C       0.6211   0.3272   0.5878     C
C      0.62119  0.89809  0.90998     C
C      0.62158  0.70418  0.72776     C
H       0.6223   0.7847   0.6974     H
O      0.62372  0.20352  0.65724     O
H       0.6263   0.6563   0.4692     H
H       0.6284   0.4705   0.7978     H
C      0.62962  0.63122  0.29784     C
H         0.63   0.1145    0.308     H
H       0.6302   0.5092   0.9584     H
H       0.6303   0.9574   0.9712     H
C      0.63113  0.51793  0.79226     C
C      0.63122  0.16822  0.79784     C
O      0.63139  0.47689  0.32178     O
O      0.63205  0.82335   0.8405     O
N      0.63295  0.24075   0.8167     N
C      0.63485  0.99915   0.1691     C
H       0.6409   0.5018   0.8858     H
C      0.64245  0.71265   0.2129     C
C      0.64293  0.09353  0.12926     C
C      0.64409  0.32859  0.14478     C
C      0.64679  0.23729  0.54318     C
C      0.65106  0.91796  0.95392     C
H       0.6528    0.115   0.8872     H
C       0.6532   0.8445   0.8856     C
C      0.65339  0.65819  0.23418     C
N      0.65416  0.15546  0.26272     N
O      0.65511  0.30961  0.17822     O
N      0.65546  0.15416  0.76272     N
C       0.6555   0.8468   0.6144     C
H       0.6563   0.3429   0.9692     H
H       0.6571   0.1871   0.5308     H
C      0.65819  0.08079  0.73418     C
H       0.6591   0.5426   0.0288     H
H       0.6597   0.1834   0.4624     H
C      0.66113  0.27433  0.79226     C
N      0.66374  0.26814  0.58468     N
C       0.6651   0.5382   0.9516     C
C      0.66609  0.94099  0.68178     C
H       0.6661   0.5138   0.6916     H
C      0.66662  0.62962  0.79784     C
C      0.66822  0.13122  0.29784     C
O      0.66904  0.29304  0.11388     O
H       0.6694   0.3273   0.7978     H
C      0.66995  0.53425   0.6691     C
C      0.67141  0.99931  0.35522     C
C      0.67154  0.76074  0.55088     C
H       0.6718   0.9908   0.0416     H
H       0.6727   0.3716   0.7022     H
C       0.6728   0.5333   0.9122     C
H       0.6744   0.7091   0.7414     H
C      0.67552  0.22282  0.75924     C
O      0.67665  0.86795   0.6595     O
H       0.6778   0.0255   0.1916     H
H        0.678   0.6145    0.308     H
O      0.67916  0.55516  0.38612     O
H       0.6807   0.7526    0.171     H
H        0.682   0.5786    0.103     H
H       0.6834   0.1597   0.9624     H
N      0.68346  0.33626  0.91532     N
C       0.6837   0.5939   0.6046     C
N      0.68375  0.57595   0.8167     N
C      0.68381  0.49931  0.35522     C
H       0.6871   0.1571   0.0308     H
C      0.68739  0.71559  0.18618     C
H       0.6883   0.6138    0.582     H
C      0.69038  0.78798  0.59536     C
O      0.69039  0.97689  0.32178     O
C      0.69262  0.09502  0.90464     C
H       0.6935    0.678    0.808     H
C      0.69411  0.35321  0.95682     C
H       0.6957    0.232   0.7378     H
C      0.69714  0.58204  0.04608     C
H       0.6973    0.721   0.5376     H
O      0.70352  0.12372  0.15724     O
C      0.70418  0.60618  0.22776     C
O      0.70696  0.05516  0.38612     O
O      0.70845  0.01715   0.8405     O
C       0.7085   0.8842   0.9738     C
H       0.7091    0.567   0.2414     H
Co     0.70985  0.22182   0.6335    Co
C      0.70986  0.12066  0.94912     C
C      0.71121  0.60191  0.09002     C
C      0.71202  0.80962  0.90464     C
C      0.71265  0.07045   0.7129     C
C       0.7135   0.9618   0.0484     C
H       0.7153   0.8777   0.8026     H
C      0.71559  0.99879  0.68618     C
N      0.71895  0.59445   0.9801     N
H        0.721   0.3403   0.0376     H
H       0.7214   0.3794    0.303     H
Co     0.72182  0.20985   0.1335    Co
C      0.72282  0.17552  0.25924     C
C      0.72567  0.36887  0.70774     C
H       0.7278   0.7656   0.6128     H
N      0.73186  0.57906  0.91532     N
H        0.732   0.1957   0.2378     H
C       0.7324   0.0411   0.8856     C
H       0.7344   0.7722   0.8872     H
C       0.7347   0.6158   0.0262     C
C      0.73666  0.57136  0.67232     C
C      0.73729  0.14679  0.04318     C
N      0.73885  0.90555   0.0199     N
C      0.73926  0.82846  0.94912     C
C       0.7394   0.3789   0.9122     C
N      0.74075  0.13295   0.3167     N
C      0.74079  0.66609  0.18178     C
C      0.74346  0.60176  0.63972     C
H       0.7449    0.384   0.8858     H
H       0.7474   0.1112   0.7164     H
H       0.7474   0.8193    0.329     H
C      0.74859  0.61079  0.20158     C
C      0.75141  0.90921  0.79842     C
H       0.7526   0.8948   0.2836     H
H       0.7526   0.9903    0.671     H
H       0.7551   0.9982   0.1142     H
C      0.75654  0.46204  0.36028     C
C      0.75921  0.98431  0.81822     C
N      0.75925  0.31625   0.6833     N
C       0.7606   0.9667   0.0878     C
C      0.76074  0.37934  0.05088     C
N      0.76115  0.38565   0.9801     N
C      0.76271  0.60361  0.95682     C
C      0.76334  0.39904  0.32768     C
C       0.7653   0.0896   0.9738     C
H       0.7656    0.385   0.1128     H
C       0.7676   0.6555   0.1144     C
H        0.768   0.4579   0.7622     H
N      0.76814  0.16374  0.08468     N
H       0.7722   0.6528   0.3872     H
C      0.77433  0.16113  0.29226     C
C      0.77718  0.41628  0.74076     C
Co     0.77818  0.57635   0.8665    Co
H       0.7786   0.5764    0.697     H
H        0.779   0.8027   0.9624     H
N      0.78105  0.11435   0.0199     N
C      0.78441  0.81261  0.31382     C
H       0.7847   0.5751   0.1974     H
C       0.7865   0.4134   0.9516     C
C      0.78735  0.85755   0.2871     C
C      0.78798  0.40498  0.09536     C
C      0.78879  0.01189  0.90998     C
C      0.79014  0.67154  0.05088     C
Co     0.79015  0.08832   0.3665    Co
H       0.7909   0.8256   0.7586     H
C       0.7915   0.4104   0.0262     C
O      0.79155  0.67665   0.1595     O
O      0.79304  0.16904  0.61388     O
C      0.79582  0.87842  0.77224     C
O      0.79648  0.46648  0.84276     O
H       0.8027   0.6834   0.4624     H
C      0.80286  0.03596  0.95392     C
H       0.8043   0.9942   0.2622     H
C      0.80589  0.89639  0.04318     C
H       0.8065     0.37    0.192     H
C      0.80738  0.69038  0.09536     C
O      0.80961  0.15511  0.67822     O
C      0.80962  0.69262  0.40464     C
H       0.8117   0.5318    0.418     H
C      0.81261  0.02941  0.81382     C
H       0.8129   0.6263   0.9692     H
C      0.81619  0.64409  0.64478     C
N      0.81625  0.25925   0.1833     N
C       0.8163   0.4893   0.3954     C
N      0.81654  0.92094  0.08468     N
H       0.8166   0.6973   0.0376     H
H        0.818   0.9756    0.897     H
H       0.8193   0.0816    0.829     H
O      0.82084  0.66904  0.61388     O
H        0.822   0.8065    0.692     H
H       0.8222   0.3339   0.8084     H
O      0.82335  0.70845   0.3405     O
C      0.82448  0.96358  0.24076     C
H       0.8256   0.4677   0.2586     H
C       0.8272   0.1211   0.0878     C
H       0.8273   0.1694   0.2978     H
H       0.8282   0.4492   0.9584     H
C      0.82846  0.70986  0.44912     C
C      0.82859  0.14409  0.64478     C
C      0.83005  0.36515   0.3309     C
H       0.8306   0.0295   0.2022     H
O      0.83096  0.67916  0.88612     O
C      0.83178  0.33338  0.70216     C
C      0.83338  0.33178  0.20216     C
H       0.8339   0.3222   0.3084     H
C      0.83391  0.75921  0.31822     C
C       0.8349   0.0866   0.0484     C
N      0.83626  0.18346  0.41532     N
C      0.83887  0.98207  0.20774     C
H       0.8403    0.221   0.5376     H
H       0.8409   0.0138   0.9712     H
C      0.84181  0.84661  0.26582     C
H       0.8429   0.1563   0.4692     H
H       0.8437   0.8737   0.0308     H
C       0.8445   0.7324   0.3856     C
N      0.84454  0.89144  0.23728     N
O      0.84489  0.63139  0.82178     O
N      0.84584  0.39274  0.73728     N
C      0.84661  0.92401  0.76582     C
C       0.8468   0.4589   0.1144     C
H       0.8472   0.7278   0.1128     H
C      0.84894  0.46404  0.04608     C
C      0.85321  0.19411  0.45682     C
C      0.85591  0.68381  0.85522     C
C      0.85707  0.46427  0.87074     C
C      0.85755  0.99975   0.7871     C
H       0.8591    0.116   0.1142     H
C      0.86515  0.33005   0.8309     C
N      0.86705  0.92405   0.1833     N
O      0.86795  0.48285   0.1595     O
O      0.86861  0.65511  0.67822     O
C      0.86878  0.87038  0.20216     C
C      0.86887  0.22567  0.20774     C
H       0.8697   0.4862   0.0288     H
H       0.8698   0.0508   0.0416     H
H         0.87   0.3065    0.692     H
C      0.87038  0.83338  0.70216     C
H       0.8716   0.1727   0.2022     H
H       0.8737   0.6871   0.5308     H
O      0.87628  0.04628  0.34276     O
H       0.8777   0.5873   0.3026     H
C      0.87842  0.47642  0.27224     C
C      0.87881  0.48811  0.09002     C
C       0.8789   0.2394   0.4122     C
C      0.87934  0.26074  0.55088     C
H       0.8794   0.2214    0.803     H
O      0.87951  0.01521  0.40102     O
H        0.884   0.2449   0.3858     H
C       0.8842   0.7653   0.4738     C
C      0.88458  0.45618  0.39916     C
H        0.885   0.2656   0.6128     H
H       0.8855    0.822    0.192     H
N      0.88565  0.26115   0.4801     N
O      0.88581  0.52151  0.90102     O
H       0.8862   0.8117    0.918     H
H       0.8888    0.531   0.7836     H
C      0.88921  0.75141  0.29842     C
N      0.89144  0.89274  0.73728     N
C      0.89155  0.39345   0.3669     C
N      0.89274  0.34584  0.23728     N
C      0.89345  0.39155   0.8669     C
H       0.8937   0.1138    0.582     H
C      0.89382  0.79582  0.27224     C
H       0.8948    0.031   0.7836     H
C      0.89626  0.10176  0.63972     C
C      0.89639  0.73729  0.54318     C
C      0.89809  0.78879  0.40998     C
C      0.89824  0.75654  0.86028     C
C      0.89904  0.26334  0.82768     C
C      0.90498  0.28798  0.59536     C
N      0.90555  0.78105   0.5199     N
C       0.9061   0.8163   0.8954     C
C      0.90647  0.01367  0.37074     C
C      0.90921  0.54701  0.29842     C
C       0.9104   0.2915   0.5262     C
Co     0.91168  0.92365   0.1335    Co
H       0.9127   0.6223   0.1974     H
C       0.9134   0.2865   0.4516     C
C      0.91628  0.27718  0.24076     C
C      0.91796  0.80286  0.45392     C
H       0.9184   0.0764    0.697     H
H       0.9184   0.4903    0.671     H
C      0.91921  0.42401  0.76582     C
C       0.9209   0.0939   0.6046     C
N      0.92094  0.76814  0.58468     N
H        0.921   0.5244    0.103     H
H       0.9214    0.818    0.397     H
H       0.9236   0.7214    0.803     H
Co     0.92365  0.72182   0.6335    Co
C      0.92401  0.41921  0.26582     C
N      0.92405  0.81625   0.6833     N
H       0.9249   0.7153   0.3026     H
H       0.9264   0.4767   0.4238     H
C      0.92864  0.76334  0.82768     C
C      0.92955  0.49975   0.7871     C
H        0.933   0.7909   0.2586     H
C      0.93566  0.07136  0.67232     C
C      0.94099  0.51569  0.18178     C
C      0.94298  0.88458  0.89916     C
O      0.94484  0.82084  0.11388     O
H       0.9471   0.9264   0.9238     H
H       0.9492   0.3282   0.4584     H
C      0.95299  0.59079  0.20158     C
O      0.95372  0.03352  0.15724     O
C      0.95618  0.38458  0.89916     C
H       0.9574   0.8409   0.4712     H
H       0.9579    0.268   0.2622     H
C       0.9589   0.3468   0.6144     C
C       0.9618   0.8349   0.5484     C
C      0.96204  0.25654  0.86028     C
C      0.96358  0.91628  0.74076     C
C      0.96404  0.34894  0.54608     C
C      0.96427  0.35707  0.37074     C
C      0.96575  0.83005   0.8309     C
O      0.96648  0.29648  0.34276     O
C       0.9667   0.8272   0.5878     C
H       0.9677   0.3256   0.7586     H
H       0.9682   0.6883    0.082     H
H        0.969   0.6112   0.7164     H
H       0.9705   0.1284   0.2978     H
C      0.97059  0.49879  0.68618     C
C      0.97345  0.89155   0.8669     C
H       0.9745   0.9862   0.3084     H
C      0.97535  0.97345   0.3669     C
H       0.9756    0.579    0.397     H
C      0.97642  0.37842  0.77224     C
H       0.9767   0.4264   0.9238     H
O      0.97689  0.13139  0.82178     O
O      0.97849  0.61419  0.59898     O
C      0.98207  0.86887  0.70774     C
O      0.98285  0.36795   0.6595     O
C      0.98431  0.55901  0.31822     C
O      0.98479  0.97849  0.09898     O
C      0.98542  0.05702  0.60084     C
H       0.9862   0.3697   0.5288     H
H       0.9862   0.8339   0.8084     H
C      0.98633  0.03573  0.12926     C
C      0.98811  0.37881  0.59002     C
C       0.9893   0.3163   0.8954     C
H       0.9903   0.4184    0.171     H
H       0.9908   0.8698   0.5416     H
H       0.9942   0.9579   0.7622     H
H       0.9974   0.9471   0.4238     H
H       0.9982   0.8591   0.6142     H
C      0.99879  0.47059  0.18618     C
C      0.99915  0.03425   0.6691     C
C      0.99931  0.18381  0.85522     C
C      0.99975  0.42955   0.2871     C
