data_I
_chemical_name_common  '/home/zhangsd/repos/MofS-CGCNN/ML/data/TSD/clean_cifs/OKIQEG_clean'
_cell_length_a 18.94400
_cell_length_b 23.15600
_cell_length_c 14.41100
_cell_angle_alpha 90.00000
_cell_angle_beta  126.63000
_cell_angle_gamma 90.00000
_space_group_name_H-M_alt      'P 1'


loop_
_space_group_symop_operation_xyz
  'x, y, z' 

loop_
_atom_site_label
_atom_site_fract_x
_atom_site_fract_y
_atom_site_fract_z
_atom_site_type_symbol
C          0.0   0.3242     0.75     C
H          0.0   0.3644     0.75     H
Cd         0.0      0.5      0.0    Cd
Cd         0.0      0.5      0.5    Cd
H          0.0   0.6356     0.25     H
C          0.0   0.6758     0.25     C
O       0.0177   0.2998    0.839     O
O       0.0177   0.7002    0.339     O
H       0.0277   0.1483   0.0807     H
H       0.0277   0.8517   0.5807     H
N        0.033   0.0344    0.888     N
N        0.033   0.9656    0.388     N
N       0.0411   0.0568    0.428     N
N       0.0411   0.9432    0.928     N
C       0.0445   0.0397   0.1431     C
C       0.0445   0.9603   0.6431     C
H       0.0477   0.0693   0.8862     H
H       0.0477   0.9307   0.3862     H
O       0.0488  0.25757   0.0662     O
O       0.0488  0.74243   0.5662     O
O      0.05099  0.45019   0.9078     O
O      0.05099  0.54981   0.4078     O
N       0.0532   0.0137   0.6701     N
N       0.0532   0.9863   0.1701     N
Cd     0.05749  0.34686  0.00358    Cd
Cd     0.05749  0.65314  0.50358    Cd
O      0.06407  0.42068   0.1266     O
O      0.06407  0.57932   0.6266     O
H       0.0761   0.4878   0.2788     H
H       0.0761   0.5122   0.7788     H
C       0.0849   0.0066   0.4429     C
C       0.0849   0.9934   0.9429     C
C        0.087   0.1387   0.1298     C
C        0.087   0.8613   0.6298     C
O       0.0888  0.36246   0.6015     O
O       0.0888  0.63754   0.1015     O
C       0.1108    0.084   0.1754     C
C       0.1108    0.916   0.6754     C
C       0.1232   0.2388   0.1034     C
C       0.1232   0.7612   0.6034     C
O      0.12395   0.4543   0.5998     O
O      0.12395   0.5457   0.0998     O
C       0.1269   0.4372    0.947     C
C       0.1269   0.5628    0.447     C
C       0.1371   0.4875   0.3315     C
C       0.1371   0.5125   0.8315     C
C       0.1415     0.41   0.2135     C
C       0.1415     0.59   0.7135     C
C       0.1416   0.4033   0.6321     C
C       0.1416   0.5967   0.1321     C
C       0.1496   0.1799   0.1554     C
C       0.1496   0.8201   0.6554     C
O       0.1631  0.39339   0.0071     O
O       0.1631  0.60661   0.5071     O
O       0.1738  0.26539   0.0919     O
O       0.1738  0.73461   0.5919     O
C       0.1801   0.4755    0.927     C
C       0.1801   0.5245    0.427     C
O       0.1803   0.3655   0.2213     O
O       0.1803   0.6345   0.7213     O
C       0.1808   0.0088   0.5206     C
C       0.1808   0.9912   0.0206     C
C       0.1861   0.4509   0.3169     C
C       0.1861   0.5491   0.8169     C
H       0.1908   0.0715   0.6234     H
H       0.1908   0.9285   0.1234     H
C       0.1995   0.0691   0.2542     C
C       0.1995   0.9309   0.7542     C
H        0.201   0.0511   0.9367     H
H        0.201   0.9489   0.4367     H
H       0.2162   0.0324   0.2871     H
H       0.2162   0.9676   0.7871     H
H         0.22   0.3077   0.7486     H
H         0.22   0.6923   0.2486     H
C       0.2231    0.047   0.6108     C
C       0.2231    0.953   0.1108     C
C       0.2295   0.0264      0.0     C
C       0.2295   0.9736      0.5     C
C       0.2371   0.1652   0.2323     C
C       0.2371   0.8348   0.7323     C
C       0.2378   0.3892   0.7185     C
C       0.2378   0.6108   0.2185     C
C       0.2622   0.1108   0.2815     C
C       0.2622   0.8892   0.7815     C
C       0.2629   0.3348   0.7677     C
C       0.2629   0.6652   0.2677     C
C       0.2705   0.4736      0.0     C
C       0.2705   0.5264      0.5     C
C       0.2769    0.453   0.3892     C
C       0.2769    0.547   0.8892     C
H         0.28   0.1923   0.2514     H
H         0.28   0.8077   0.7514     H
H       0.2838   0.4676   0.7129     H
H       0.2838   0.5324   0.2129     H
H        0.299   0.4489   0.0633     H
H        0.299   0.5511   0.5633     H
C       0.3005   0.4309   0.7458     C
C       0.3005   0.5691   0.2458     C
H       0.3092   0.4285   0.3766     H
H       0.3092   0.5715   0.8766     H
C       0.3139   0.0491   0.6831     C
C       0.3139   0.9509   0.1831     C
C       0.3192   0.4912   0.4794     C
C       0.3192   0.5088   0.9794     C
O       0.3197   0.1345   0.7787     O
O       0.3197   0.8655   0.2787     O
C       0.3199   0.0245    0.073     C
C       0.3199   0.9755    0.573     C
O       0.3262  0.23461   0.9081     O
O       0.3262  0.76539   0.4081     O
O       0.3369  0.10661   0.9929     O
O       0.3369  0.89339   0.4929     O
C       0.3504   0.3201   0.8446     C
C       0.3504   0.6799   0.3446     C
C       0.3584   0.0967   0.3679     C
C       0.3584   0.9033   0.8679     C
C       0.3585     0.09   0.7865     C
C       0.3585     0.91   0.2865     C
C       0.3629   0.0125   0.6685     C
C       0.3629   0.9875   0.1685     C
C       0.3731   0.0628    0.053     C
C       0.3731   0.9372    0.553     C
O      0.37605   0.0457   0.4002     O
O      0.37605   0.9543   0.9002     O
C       0.3768   0.2612   0.8966     C
C       0.3768   0.7388   0.3966     C
C       0.3892    0.416   0.8246     C
C       0.3892    0.584   0.3246     C
O       0.4112  0.13754   0.3985     O
O       0.4112  0.86246   0.8985     O
C        0.413   0.3613   0.8702     C
C        0.413   0.6387   0.3702     C
C       0.4151   0.4934   0.5571     C
C       0.4151   0.5066   0.0571     C
H       0.4239   0.0122   0.7212     H
H       0.4239   0.9878   0.2212     H
O      0.43593  0.07932   0.8734     O
O      0.43593  0.92068   0.3734     O
Cd     0.44251  0.15314  0.99642    Cd
Cd     0.44251  0.84686  0.49642    Cd
N       0.4468   0.4863   0.3299     N
N       0.4468   0.5137   0.8299     N
O      0.44901  0.04981   0.0922     O
O      0.44901  0.95019   0.5922     O
O       0.4512  0.24243   0.9338     O
O       0.4512  0.75757   0.4338     O
H       0.4523   0.4307   0.1138     H
H       0.4523   0.5693   0.6138     H
C       0.4555   0.4603   0.8569     C
C       0.4555   0.5397   0.3569     C
N       0.4589   0.4432    0.572     N
N       0.4589   0.5568    0.072     N
N        0.467   0.4656    0.112     N
N        0.467   0.5344    0.612     N
H       0.4723   0.3517   0.9193     H
H       0.4723   0.6483   0.4193     H
O       0.4823   0.2002    0.161     O
O       0.4823   0.7998    0.661     O
Cd         0.5      0.0      0.0    Cd
Cd         0.5      0.0      0.5    Cd
H          0.5   0.1356     0.25     H
C          0.5   0.1758     0.25     C
C          0.5   0.8242     0.75     C
H          0.5   0.8644     0.75     H
O       0.5177   0.2002    0.339     O
O       0.5177   0.7998    0.839     O
H       0.5277   0.3517   0.5807     H
H       0.5277   0.6483   0.0807     H
N        0.533   0.4656    0.388     N
N        0.533   0.5344    0.888     N
N       0.5411   0.4432    0.928     N
N       0.5411   0.5568    0.428     N
C       0.5445   0.4603   0.6431     C
C       0.5445   0.5397   0.1431     C
H       0.5477   0.4307   0.3862     H
H       0.5477   0.5693   0.8862     H
O       0.5488  0.24243   0.5662     O
O       0.5488  0.75757   0.0662     O
O      0.55099  0.04981   0.4078     O
O      0.55099  0.95019   0.9078     O
N       0.5532   0.4863   0.1701     N
N       0.5532   0.5137   0.6701     N
Cd     0.55749  0.15314  0.50358    Cd
Cd     0.55749  0.84686  0.00358    Cd
O      0.56407  0.07932   0.6266     O
O      0.56407  0.92068   0.1266     O
H       0.5761   0.0122   0.7788     H
H       0.5761   0.9878   0.2788     H
C       0.5849   0.4934   0.9429     C
C       0.5849   0.5066   0.4429     C
C        0.587   0.3613   0.6298     C
C        0.587   0.6387   0.1298     C
O       0.5888  0.13754   0.1015     O
O       0.5888  0.86246   0.6015     O
C       0.6108    0.416   0.6754     C
C       0.6108    0.584   0.1754     C
C       0.6232   0.2612   0.6034     C
C       0.6232   0.7388   0.1034     C
O      0.62395   0.0457   0.0998     O
O      0.62395   0.9543   0.5998     O
C       0.6269   0.0628    0.447     C
C       0.6269   0.9372    0.947     C
C       0.6371   0.0125   0.8315     C
C       0.6371   0.9875   0.3315     C
C       0.6415     0.09   0.7135     C
C       0.6415     0.91   0.2135     C
C       0.6416   0.0967   0.1321     C
C       0.6416   0.9033   0.6321     C
C       0.6496   0.3201   0.6554     C
C       0.6496   0.6799   0.1554     C
O       0.6631  0.10661   0.5071     O
O       0.6631  0.89339   0.0071     O
O       0.6738  0.23461   0.5919     O
O       0.6738  0.76539   0.0919     O
C       0.6801   0.0245    0.427     C
C       0.6801   0.9755    0.927     C
O       0.6803   0.1345   0.7213     O
O       0.6803   0.8655   0.2213     O
C       0.6808   0.4912   0.0206     C
C       0.6808   0.5088   0.5206     C
C       0.6861   0.0491   0.8169     C
C       0.6861   0.9509   0.3169     C
H       0.6908   0.4285   0.1234     H
H       0.6908   0.5715   0.6234     H
C       0.6995   0.4309   0.7542     C
C       0.6995   0.5691   0.2542     C
H        0.701   0.4489   0.4367     H
H        0.701   0.5511   0.9367     H
H       0.7162   0.4676   0.7871     H
H       0.7162   0.5324   0.2871     H
H         0.72   0.1923   0.2486     H
H         0.72   0.8077   0.7486     H
C       0.7231    0.453   0.1108     C
C       0.7231    0.547   0.6108     C
C       0.7295   0.4736      0.5     C
C       0.7295   0.5264      0.0     C
C       0.7371   0.3348   0.7323     C
C       0.7371   0.6652   0.2323     C
C       0.7378   0.1108   0.2185     C
C       0.7378   0.8892   0.7185     C
C       0.7622   0.3892   0.7815     C
C       0.7622   0.6108   0.2815     C
C       0.7629   0.1652   0.2677     C
C       0.7629   0.8348   0.7677     C
C       0.7705   0.0264      0.5     C
C       0.7705   0.9736      0.0     C
C       0.7769    0.047   0.8892     C
C       0.7769    0.953   0.3892     C
H         0.78   0.3077   0.7514     H
H         0.78   0.6923   0.2514     H
H       0.7838   0.0324   0.2129     H
H       0.7838   0.9676   0.7129     H
H        0.799   0.0511   0.5633     H
H        0.799   0.9489   0.0633     H
C       0.8005   0.0691   0.2458     C
C       0.8005   0.9309   0.7458     C
H       0.8092   0.0715   0.8766     H
H       0.8092   0.9285   0.3766     H
C       0.8139   0.4509   0.1831     C
C       0.8139   0.5491   0.6831     C
C       0.8192   0.0088   0.9794     C
C       0.8192   0.9912   0.4794     C
O       0.8197   0.3655   0.2787     O
O       0.8197   0.6345   0.7787     O
C       0.8199   0.4755    0.573     C
C       0.8199   0.5245    0.073     C
O       0.8262  0.26539   0.4081     O
O       0.8262  0.73461   0.9081     O
O       0.8369  0.39339   0.4929     O
O       0.8369  0.60661   0.9929     O
C       0.8504   0.1799   0.3446     C
C       0.8504   0.8201   0.8446     C
C       0.8584   0.4033   0.8679     C
C       0.8584   0.5967   0.3679     C
C       0.8585     0.41   0.2865     C
C       0.8585     0.59   0.7865     C
C       0.8629   0.4875   0.1685     C
C       0.8629   0.5125   0.6685     C
C       0.8731   0.4372    0.553     C
C       0.8731   0.5628    0.053     C
O      0.87605   0.4543   0.9002     O
O      0.87605   0.5457   0.4002     O
C       0.8768   0.2388   0.3966     C
C       0.8768   0.7612   0.8966     C
C       0.8892    0.084   0.3246     C
C       0.8892    0.916   0.8246     C
O       0.9112  0.36246   0.8985     O
O       0.9112  0.63754   0.3985     O
C        0.913   0.1387   0.3702     C
C        0.913   0.8613   0.8702     C
C       0.9151   0.0066   0.0571     C
C       0.9151   0.9934   0.5571     C
H       0.9239   0.4878   0.2212     H
H       0.9239   0.5122   0.7212     H
O      0.93593  0.42068   0.3734     O
O      0.93593  0.57932   0.8734     O
Cd     0.94251  0.34686  0.49642    Cd
Cd     0.94251  0.65314  0.99642    Cd
N       0.9468   0.0137   0.8299     N
N       0.9468   0.9863   0.3299     N
O      0.94901  0.45019   0.5922     O
O      0.94901  0.54981   0.0922     O
O       0.9512  0.25757   0.4338     O
O       0.9512  0.74243   0.9338     O
H       0.9523   0.0693   0.6138     H
H       0.9523   0.9307   0.1138     H
C       0.9555   0.0397   0.3569     C
C       0.9555   0.9603   0.8569     C
N       0.9589   0.0568    0.072     N
N       0.9589   0.9432    0.572     N
N        0.967   0.0344    0.612     N
N        0.967   0.9656    0.112     N
H       0.9723   0.1483   0.4193     H
H       0.9723   0.8517   0.9193     H
O       0.9823   0.2998    0.661     O
O       0.9823   0.7002    0.161     O
