data_I
_chemical_name_common  '/home/zhangsd/repos/MofS-CGCNN/ML/data/TSD/clean_cifs/OKITAE_clean'
_cell_length_a  7.13010
_cell_length_b  9.62270
_cell_length_c 16.76250
_cell_angle_alpha 90.00000
_cell_angle_beta  90.00000
_cell_angle_gamma 90.00000
_space_group_name_H-M_alt      'P 1'


loop_
_space_group_symop_operation_xyz
  'x, y, z' 

loop_
_atom_site_label
_atom_site_fract_x
_atom_site_fract_y
_atom_site_fract_z
_atom_site_type_symbol
O       0.0356   0.3482   0.4008     O
O       0.0356   0.8482   0.0992     O
N       0.0465   0.2821   0.6491     N
N       0.0465   0.7821   0.8509     N
H        0.062   0.0992   0.7582     H
H        0.062   0.5992   0.7418     H
N       0.1243   0.3681   0.5921     N
N       0.1243   0.8681   0.9079     N
C       0.1909   0.1187    0.746     C
C       0.1909   0.6187    0.754     C
O        0.197   0.1345   0.0303     O
O        0.197   0.6345   0.4697     O
C        0.201   0.2259   0.6824     C
C        0.201   0.7259   0.8176     C
S       0.2052  0.35679  0.34828     S
S       0.2052  0.85679  0.15172     S
Cd      0.2071  0.21741  0.15697    Cd
Cd      0.2071  0.71741  0.34303    Cd
O        0.217   0.2407   0.2916     O
O        0.217   0.7407   0.2084     O
O        0.224   0.4889   0.3048     O
O        0.224   0.9889   0.1952     O
H        0.233    0.202    0.002     H
H        0.233    0.702    0.498     H
H       0.2513   0.0353    0.728     H
H       0.2513   0.5353    0.772     H
H       0.2532   0.1524    0.793     H
H       0.2532   0.6524    0.707     H
N       0.3063   0.3689   0.5958     N
N       0.3063   0.8689   0.9042     N
N        0.358   0.2785   0.6495     N
N        0.358   0.7785   0.8505     N
O       0.3708   0.3475   0.3971     O
O       0.3708   0.8475   0.1029     O
Cd      0.4576  0.00048  0.00024    Cd
Cd      0.4576  0.50048  0.49976    Cd
O       0.5356   0.1518   0.9008     O
O       0.5356   0.6518   0.5992     O
N       0.5465   0.2179   0.1491     N
N       0.5465   0.7179   0.3509     N
H        0.562   0.4008   0.2582     H
H        0.562   0.9008   0.2418     H
N       0.6243   0.1319   0.0921     N
N       0.6243   0.6319   0.4079     N
C       0.6909   0.3813    0.246     C
C       0.6909   0.8813    0.254     C
O        0.697   0.3655   0.5303     O
O        0.697   0.8655   0.9697     O
C        0.701   0.2741   0.1824     C
C        0.701   0.7741   0.3176     C
S       0.7052  0.14321  0.84828     S
S       0.7052  0.64321  0.65172     S
Cd      0.7071  0.28259  0.65697    Cd
Cd      0.7071  0.78259  0.84303    Cd
O        0.717   0.2593   0.7916     O
O        0.717   0.7593   0.7084     O
O        0.724   0.0111   0.8048     O
O        0.724   0.5111   0.6952     O
H        0.733    0.298    0.502     H
H        0.733    0.798    0.998     H
H       0.7513   0.4647    0.228     H
H       0.7513   0.9647    0.272     H
H       0.7532   0.3476    0.293     H
H       0.7532   0.8476    0.207     H
N       0.8063   0.1311   0.0958     N
N       0.8063   0.6311   0.4042     N
N        0.858   0.2215   0.1495     N
N        0.858   0.7215   0.3505     N
O       0.8708   0.1525   0.8971     O
O       0.8708   0.6525   0.6029     O
Cd      0.9576  0.49952  0.50024    Cd
Cd      0.9576  0.99952  0.99976    Cd
