data_I
_chemical_name_common  '/home/zhangsd/repos/MofS-CGCNN/ML/data/TSD/clean_cifs/OKIVUA_clean'
_cell_length_a 15.87920
_cell_length_b 15.87920
_cell_length_c 21.59400
_cell_angle_alpha 90.00000
_cell_angle_beta  90.00000
_cell_angle_gamma 90.00000
_space_group_name_H-M_alt      'P 1'


loop_
_space_group_symop_operation_xyz
  'x, y, z' 

loop_
_atom_site_label
_atom_site_fract_x
_atom_site_fract_y
_atom_site_fract_z
_atom_site_type_symbol
C       0.0038   0.1252   0.1793     C
N       0.0058   0.0447   0.1836     N
H       0.0061   0.7971   0.7908     H
C       0.0071   0.1657   0.4633     C
N       0.0112   0.9453   0.8555     N
H       0.0115   0.2346   0.8248     H
C       0.0175    0.232    0.503     C
N       0.0254   0.1867   0.7419     N
H       0.0282   0.7447   0.6086     H
H       0.0332    0.662   0.0344     H
C       0.0401   0.2416   0.7875     C
C       0.0414   0.2205   0.2691     C
C       0.0415   0.7062   0.0068     C
H       0.0425     0.89   0.4021     H
N       0.0447   0.0058   0.8164     N
H        0.048    0.124   0.4601     H
N       0.0547   0.9888   0.6445     N
N       0.0569   0.8525   0.6382     N
Cd     0.05839  0.94161     0.25    Cd
H       0.0588   0.1596   0.6574     H
C       0.0593   0.1883   0.2099     C
H       0.0655   0.2348   0.5276     H
C       0.0664   0.8383   0.9275     C
C       0.0676   0.1975   0.6896     C
C       0.0751   0.9078    0.883     C
N       0.0768   0.7705   0.6168     N
H       0.0862   0.2989   0.3337     H
H       0.0868   0.7856   0.4659     H
C       0.0902   0.8598   0.3906     C
C       0.0922   0.9249    0.617     C
C       0.0957   0.3084   0.7821     C
C       0.0959   0.2785    0.294     C
H       0.1022   0.3462   0.8146     H
H       0.1045   0.7416   0.6453     H
H         0.11   0.9575   0.0979     H
C       0.1134   0.7071    0.971     C
C       0.1168   0.7981   0.4301     C
N       0.1198   0.8743   0.1623     N
H        0.124    0.048   0.5399     H
C       0.1242   0.2626   0.6808     C
C       0.1252   0.0038   0.8207     C
C       0.1256   0.7731   0.9317     C
N       0.1257   0.8802   0.3377     N
C       0.1281   0.2181    0.177     C
H       0.1389   0.1972   0.1376     H
C       0.1402   0.9098   0.1094     C
H       0.1417   0.7705   0.2096     H
C       0.1421   0.3191   0.7278     C
N       0.1475   0.9431   0.8618     N
H       0.1506   0.2686   0.6426     H
H       0.1538   0.6022   0.0646     H
H        0.154   0.7005   0.5295     H
C       0.1577      0.8   0.1743     C
H       0.1596   0.0588   0.3426     H
C       0.1617   0.9336   0.5725     C
H        0.162   0.4668   0.7844     H
C       0.1646   0.3069   0.2613     C
C       0.1657   0.0071   0.5367     C
H       0.1738   0.7749   0.9073     H
C       0.1809   0.6421   0.9778     C
C       0.1813   0.2787   0.2023     C
N       0.1867   0.0254   0.2581     N
C       0.1883   0.0593   0.7901     C
C       0.1916   0.5957   0.0321     C
C       0.1919   0.7534    0.415     C
C       0.1931   0.6646   0.5113     C
H       0.1972   0.1389   0.8624     H
C       0.1975   0.0676   0.3104     C
C          0.2   0.8423   0.3257     C
H       0.2005    0.346   0.2795     H
H       0.2011   0.5862   0.5837     H
C       0.2019   0.8832   0.0699     C
H       0.2029   0.9939   0.7092     H
C       0.2062   0.4585   0.7568     C
C       0.2071   0.3866    0.721     C
H        0.214   0.2584   0.8969     H
H       0.2144   0.9132   0.0341     H
C       0.2181   0.1281    0.823     C
C       0.2186   0.7662    0.137     C
C       0.2205   0.0414   0.7309     C
C       0.2213   0.6813   0.4523     C
C       0.2215   0.5959    0.544     C
H       0.2251   0.8262   0.5927     H
C       0.2269   0.8744   0.5683     C
H       0.2295   0.8583   0.2904     H
N       0.2295   0.9232   0.8832     N
H       0.2314   0.6506   0.8926     H
C        0.232   0.0175    0.497     C
C       0.2338   0.7814    0.363     C
H       0.2346   0.0115   0.1752     H
H       0.2348   0.0655   0.4724     H
C       0.2374   0.6242   0.9308     C
C       0.2416   0.0401   0.2125     C
H       0.2416   0.3955   0.3953     H
H       0.2416    0.714   0.1469     H
H       0.2447   0.4718   0.3586     H
C       0.2466   0.8081    0.085     C
C       0.2534   0.3081    0.165     C
H       0.2553   0.9718   0.8914     H
H       0.2584    0.214   0.1031     H
C       0.2584   0.5401   0.0375     C
H       0.2584   0.8955   0.8547     H
C       0.2626   0.1242   0.3192     C
H       0.2652   0.5655   0.7776     H
H       0.2654   0.5115   0.0748     H
C       0.2662   0.2814    0.887     C
C        0.268   0.5175    0.753     C
H       0.2686   0.1506   0.3574     H
H       0.2705   0.3583   0.9596     H
N       0.2705   0.4232   0.3668     N
C       0.2731   0.3744   0.6817     C
H       0.2749   0.3262   0.6573     H
C       0.2785   0.0959    0.706     C
C       0.2787   0.1813   0.7977     C
C       0.2795   0.5414   0.5191     C
C       0.2814   0.2662    0.113     C
C       0.2819   0.6281    0.427     C
H       0.2856   0.4132   0.2159     H
H        0.286   0.7584   0.3531     H
C       0.2929   0.8866    0.529     C
C       0.2938   0.9585   0.4932     C
H       0.2971   0.4939   0.5408     H
C       0.2981   0.3832   0.1801     C
H       0.2989   0.0862   0.6663     H
H       0.2995    0.846   0.9705     H
C          0.3   0.3423   0.9243     C
C       0.3025   0.5676   0.9396     C
H       0.3028   0.6389   0.3876     H
C       0.3069   0.1646   0.7387     C
C       0.3081   0.2534    0.835     C
C       0.3084   0.0957   0.2179     C
C       0.3117   0.5593   0.4599     C
N       0.3133   0.5254   0.9919     N
C       0.3187   0.7787   0.0477     C
C       0.3191   0.1421   0.2722     C
H       0.3262   0.2749   0.3427     H
C       0.3343   0.5071   0.7133     C
C       0.3354   0.8069   0.9887     C
H        0.338   0.9668   0.4656     H
C       0.3383   0.4336   0.6775     C
H       0.3404   0.5588   0.9074     H
C       0.3423      0.3   0.0757     C
H        0.346   0.2005   0.7205     H
H       0.3462   0.1022   0.1854     H
H       0.3494   0.7686   0.6074     H
N       0.3525   0.4431   0.3882     N
C       0.3579   0.8191   0.5222     C
H       0.3583   0.2705   0.0404     H
C       0.3598   0.4098   0.1406     C
H       0.3611   0.6972   0.1124     H
C       0.3719   0.7181    0.073     C
N       0.3743   0.3802   0.9123     N
C       0.3744   0.2731   0.3183     C
C       0.3748   0.5038   0.4293     C
C       0.3758   0.7626   0.5692     C
H        0.376    0.548   0.7101     H
N       0.3802   0.3743   0.0877     N
C       0.3832   0.2981   0.8199     C
C       0.3866   0.2071    0.279     C
H         0.39   0.4575   0.1521     H
H       0.3955   0.2416   0.6047     H
H       0.3978   0.8462   0.4354     H
C       0.4041   0.7785    0.956     C
C       0.4043   0.8084   0.4679     C
C       0.4078   0.4249    0.633     C
C       0.4098   0.3598   0.8594     C
H       0.4132   0.2856   0.7841     H
H       0.4138   0.7989   0.9163     H
N       0.4232   0.2705   0.6332     N
C       0.4249   0.4078    0.367     C
C       0.4324   0.6975   0.5604     C
C       0.4336   0.3383   0.3225     C
H       0.4345   0.7348   0.7224     H
C       0.4407   0.6883   0.0401     C
H       0.4412   0.6596   0.5926     H
Cd     0.44161  0.44161      0.0    Cd
N       0.4431   0.3525   0.6118     N
N       0.4453   0.4888   0.6055     N
H        0.452    0.624   0.7899     H
N       0.4553   0.5058   0.4336     N
H       0.4575     0.39   0.8479     H
C       0.4585   0.2062   0.2432     C
C       0.4586   0.7205   0.9809     C
C       0.4599   0.7416   0.4625     C
H       0.4668    0.162   0.2156     H
H       0.4718   0.2447   0.6414     H
N       0.4746   0.6867   0.5081     N
C       0.4825    0.732    0.747     C
H       0.4885   0.7346   0.4252     H
N       0.4888   0.4453   0.3945     N
C       0.4929   0.6657   0.7867     C
H       0.4939   0.2971   0.4592     H
N       0.4942   0.5447   0.0664     N
C       0.4962   0.6252   0.0707     C
C       0.5038   0.3748   0.5707     C
N       0.5058   0.4553   0.5664     N
H       0.5061   0.7029   0.9592     H
C       0.5071   0.3343   0.2867     C
N       0.5112   0.5547   0.8945     N
H       0.5115   0.2654   0.9252     H
C       0.5175    0.268    0.247     C
N       0.5254   0.3133   0.0081     N
H       0.5282   0.7553   0.1414     H
H       0.5332    0.838   0.7156     H
C       0.5401   0.2584   0.9625     C
C       0.5414   0.2795   0.4809     C
C       0.5415   0.7938   0.7432     C
H       0.5425     0.61   0.3479     H
N       0.5447   0.4942   0.9336     N
H        0.548    0.376   0.2899     H
N       0.5547   0.5112   0.1055     N
N       0.5569   0.6475   0.1118     N
Cd     0.55839  0.55839      0.5    Cd
H       0.5588   0.3404   0.0926     H
C       0.5593   0.3117   0.5401     C
H       0.5655   0.2652   0.2224     H
C       0.5664   0.6617   0.8225     C
C       0.5676   0.3025   0.0604     C
C       0.5751   0.5922    0.867     C
N       0.5768   0.7295   0.1332     N
H       0.5862   0.2011   0.4163     H
H       0.5868   0.7144   0.2841     H
C       0.5902   0.6402   0.3594     C
C       0.5922   0.5751    0.133     C
C       0.5957   0.1916   0.9679     C
C       0.5959   0.2215    0.456     C
H       0.6022   0.1538   0.9354     H
H       0.6045   0.7584   0.1047     H
H         0.61   0.5425   0.6521     H
C       0.6134   0.7929    0.779     C
C       0.6168   0.7019   0.3199     C
N       0.6198   0.6257   0.5877     N
H        0.624    0.452   0.2101     H
C       0.6242   0.2374   0.0692     C
C       0.6252   0.4962   0.9293     C
C       0.6256   0.7269   0.8183     C
N       0.6257   0.6198   0.4123     N
C       0.6281   0.2819    0.573     C
H       0.6389   0.3028   0.6124     H
C       0.6402   0.5902   0.6406     C
H       0.6417   0.7295   0.5404     H
C       0.6421   0.1809   0.0222     C
N       0.6475   0.5569   0.8882     N
H       0.6506   0.2314   0.1074     H
H       0.6538   0.8978   0.6854     H
H        0.654   0.7995   0.2205     H
C       0.6577      0.7   0.5757     C
H       0.6596   0.4412   0.4074     H
C       0.6617   0.5664   0.1775     C
H        0.662   0.0332   0.9656     H
C       0.6646   0.1931   0.4887     C
C       0.6657   0.4929   0.2133     C
H       0.6738   0.7251   0.8427     H
C       0.6809   0.8579   0.7722     C
C       0.6813   0.2213   0.5477     C
N       0.6867   0.4746   0.4919     N
C       0.6883   0.4407   0.9599     C
C       0.6916   0.9043   0.7179     C
C       0.6919   0.7466    0.335     C
C       0.6931   0.8354   0.2387     C
H       0.6972   0.3611   0.8876     H
C       0.6975   0.4324   0.4396     C
C          0.7   0.6577   0.4243     C
H       0.7005    0.154   0.4705     H
H       0.7011   0.9138   0.1663     H
C       0.7019   0.6168   0.6801     C
H       0.7029   0.5061   0.0408     H
C       0.7062   0.0415   0.9932     C
C       0.7071   0.1134    0.029     C
H        0.714   0.2416   0.8531     H
H       0.7144   0.5868   0.7159     H
C       0.7181   0.3719    0.927     C
C       0.7186   0.7338    0.613     C
C       0.7205   0.4586   0.0191     C
C       0.7213   0.8187   0.2977     C
C       0.7215   0.9041    0.206     C
H       0.7251   0.6738   0.1573     H
C       0.7269   0.6256   0.1817     C
N       0.7295   0.5768   0.8668     N
H       0.7295   0.6417   0.4596     H
H       0.7314   0.8494   0.8574     H
C        0.732   0.4825    0.253     C
C       0.7338   0.7186    0.387     C
H       0.7346   0.4885   0.5748     H
H       0.7348   0.4345   0.2776     H
C       0.7374   0.8758   0.8192     C
H       0.7416   0.1045   0.3547     H
C       0.7416   0.4599   0.5375     C
H       0.7416    0.786   0.6031     H
H       0.7447   0.0282   0.3914     H
C       0.7466   0.6919    0.665     C
C       0.7534   0.1919    0.585     C
H       0.7553   0.5282   0.8586     H
H       0.7584    0.286   0.6469     H
H       0.7584   0.6045   0.8953     H
C       0.7584   0.9599   0.7125     C
C       0.7626   0.3758   0.4308     C
H       0.7652   0.9345   0.9724     H
H       0.7654   0.9885   0.6752     H
C       0.7662   0.2186    0.863     C
C        0.768   0.9825    0.997     C
H       0.7686   0.3494   0.3926     H
N       0.7705   0.0768   0.3832     N
H       0.7705   0.1417   0.7904     H
C       0.7731   0.1256   0.0683     C
H       0.7749   0.1738   0.0927     H
C       0.7785   0.4041    0.044     C
C       0.7787   0.3187   0.9523     C
C       0.7795   0.9586   0.2309     C
C       0.7814   0.2338    0.637     C
C       0.7819   0.8719    0.323     C
H       0.7856   0.0868   0.5341     H
H        0.786   0.7416   0.3969     H
C       0.7929   0.6134    0.221     C
C       0.7938   0.5415   0.2568     C
H       0.7971   0.0061   0.2092     H
C       0.7981   0.1168   0.5699     C
H       0.7989   0.4138   0.0837     H
H       0.7995    0.654   0.7795     H
C          0.8   0.1577   0.8257     C
C       0.8025   0.9324   0.8104     C
H       0.8028   0.8611   0.3624     H
C       0.8069   0.3354   0.0113     C
C       0.8081   0.2466    0.915     C
C       0.8084   0.4043   0.5321     C
C       0.8117   0.9407   0.2901     C
N       0.8133   0.9746   0.7581     N
C       0.8187   0.7213   0.7023     C
C       0.8191   0.3579   0.4778     C
H       0.8262   0.2251   0.4073     H
C       0.8343   0.9929   0.0367     C
C       0.8354   0.6931   0.7613     C
H        0.838   0.5332   0.2844     H
C       0.8383   0.0664   0.0725     C
H       0.8404   0.9412   0.8426     H
C       0.8423      0.2   0.6743     C
H        0.846   0.2995   0.0295     H
H       0.8462   0.3978   0.5646     H
H       0.8494   0.7314   0.1426     H
N       0.8525   0.0569   0.3618     N
C       0.8579   0.6809   0.2278     C
H       0.8583   0.2295   0.7096     H
C       0.8598   0.0902   0.6094     C
H       0.8611   0.8028   0.6376     H
C       0.8719   0.7819    0.677     C
N       0.8743   0.1198   0.8377     N
C       0.8744   0.2269   0.4317     C
C       0.8748   0.9962   0.3207     C
C       0.8758   0.7374   0.1808     C
H        0.876    0.952   0.0399     H
N       0.8802   0.1257   0.6623     N
C       0.8832   0.2019   0.9301     C
C       0.8866   0.2929    0.471     C
H         0.89   0.0425   0.5979     H
H       0.8955   0.2584   0.1453     H
H       0.8978   0.6538   0.3146     H
C       0.9041   0.7215    0.794     C
C       0.9043   0.6916   0.2821     C
C       0.9078   0.0751    0.117     C
C       0.9098   0.1402   0.8906     C
H       0.9132   0.2144   0.9659     H
H       0.9138   0.7011   0.8337     H
N       0.9232   0.2295   0.1168     N
C       0.9249   0.0922    0.383     C
C       0.9324   0.8025   0.1896     C
C       0.9336   0.1617   0.4275     C
H       0.9345   0.7652   0.0276     H
C       0.9407   0.8117   0.7099     C
H       0.9412   0.8404   0.1574     H
Cd     0.94161  0.05839     0.75    Cd
N       0.9431   0.1475   0.1382     N
N       0.9453   0.0112   0.1445     N
H        0.952    0.876   0.9601     H
N       0.9553   0.9942   0.3164     N
H       0.9575     0.11   0.9021     H
C       0.9585   0.2938   0.5068     C
C       0.9586   0.7795   0.7691     C
C       0.9599   0.7584   0.2875     C
H       0.9668    0.338   0.5344     H
H       0.9718   0.2553   0.1086     H
N       0.9746   0.8133   0.2419     N
C       0.9825    0.768    0.003     C
H       0.9885   0.7654   0.3248     H
N       0.9888   0.0547   0.3555     N
C       0.9929   0.8343   0.9633     C
H       0.9939   0.2029   0.2908     H
N       0.9942   0.9553   0.6836     N
C       0.9962   0.8748   0.6793     C
