data_I
_chemical_name_common  '/home/zhangsd/repos/MofS-CGCNN/ML/data/TSD/clean_cifs/OKIYAJ01_clean'
_cell_length_a 15.88090
_cell_length_b 15.88090
_cell_length_c 21.81000
_cell_angle_alpha 90.00000
_cell_angle_beta  90.00000
_cell_angle_gamma 90.00000
_space_group_name_H-M_alt      'P 1'


loop_
_space_group_symop_operation_xyz
  'x, y, z' 

loop_
_atom_site_label
_atom_site_fract_x
_atom_site_fract_y
_atom_site_fract_z
_atom_site_type_symbol
H       0.0026   0.1971   0.0406     H
C        0.004   0.8364   0.7128     C
C       0.0049   0.8729   0.4295     C
N        0.006    0.956    0.434     N
H       0.0089   0.7632   0.0732     H
N       0.0117   0.0557   0.1047     N
C        0.014   0.7715   0.7531     C
H       0.0238    0.256   0.8568     H
N       0.0248   0.8137   0.9912     N
H       0.0364   0.3349   0.2878     H
H       0.0365   0.1122   0.6498     H
C       0.0386   0.7579   0.0355     C
N        0.044    0.994    0.066     N
C       0.0442   0.2914   0.2585     C
C       0.0445    0.783    0.518     C
H       0.0454   0.8793   0.7098     H
N       0.0553    0.149   0.8891     N
N       0.0557   0.0117   0.8953     N
Cd     0.05807  0.05807      0.5    Cd
H       0.0585    0.841   0.9058     H
C       0.0602   0.8116    0.459     C
H       0.0629     0.77   0.7782     H
C        0.068    0.161   0.1758     C
C       0.0681   0.8026   0.9384     C
N        0.073     0.23   0.8669     N
C       0.0758   0.0911   0.1317     C
C       0.0868    0.141   0.6391     C
H       0.0873   0.2137   0.7155     H
H       0.0904    0.703    0.584     H
C       0.0911   0.0758   0.8683     C
C       0.0958   0.6914   0.0283     C
H       0.0996   0.2601   0.8966     H
C       0.1003   0.7235   0.5437     C
H       0.1023   0.6519   0.0606     H
H       0.1122   0.0365   0.3502     H
C       0.1158   0.2913   0.2204     C
C       0.1169   0.2013   0.6788     C
N       0.1207   0.1242   0.4137     N
H       0.1207   0.9546   0.7902     H
N       0.1242   0.1207   0.5863     N
C       0.1248   0.7392   0.9294     C
C       0.1267    0.225   0.1801     C
C       0.1271   0.9951   0.0705     C
C       0.1289   0.7819   0.4267     C
H       0.1397   0.8025   0.3865     H
H       0.1401   0.2301   0.4598     H
C        0.141   0.0868   0.3609     C
C       0.1421   0.6817   0.9765     C
N        0.149   0.0553   0.1109     N
H       0.1519   0.3977   0.3106     H
H       0.1527   0.7341   0.8911     H
H       0.1559   0.2933   0.7797     H
C       0.1568   0.1993   0.4244     C
H        0.159   0.9415   0.5942     H
C        0.161    0.068   0.8242     C
C       0.1636    0.996   0.7872     C
H       0.1651   0.5364   0.0378     H
C       0.1689   0.6947   0.5113     C
H       0.1755   0.2234    0.155     H
C       0.1817   0.3579   0.2265     C
C       0.1826   0.7222   0.4522     C
N       0.1863   0.9752   0.5088     N
C       0.1884   0.9398    0.041     C
C       0.1914   0.4042   0.2783     C
C       0.1916   0.2442   0.6648     C
C       0.1947   0.3311   0.7613     C
H       0.1971   0.0026   0.9594     H
C       0.1974   0.9319   0.5616     C
H       0.1975   0.8603   0.1135     H
C       0.1993   0.1568   0.5756     C
C       0.2013   0.1169   0.3212     C
H        0.203   0.4096    0.834     H
H       0.2067   0.6559   0.5297     H
C       0.2086   0.5442   0.0085     C
C       0.2087   0.6158   0.9704     C
H       0.2125   0.7407   0.1454     H
H       0.2137   0.0873   0.2845     H
C        0.217   0.9555    0.982     C
C       0.2175   0.2339   0.3861     C
C       0.2181   0.8711   0.0733     C
C       0.2222   0.3174   0.7022     C
H       0.2234   0.1755    0.845     H
C       0.2235   0.3997   0.7937     C
C        0.225   0.1267   0.8199     C
C       0.2285    0.986   0.7469     C
N         0.23    0.073   0.1331     N
H         0.23   0.9371   0.7218     H
H       0.2301   0.1401   0.5402     H
C       0.2339   0.2175   0.6139     C
H       0.2341   0.3473   0.1411     H
H       0.2368   0.9911   0.4268     H
C       0.2392   0.3752   0.1794     C
H       0.2399   0.5996   0.6466     H
H       0.2407   0.2875   0.3954     H
C       0.2421   0.9614   0.4645     C
H        0.244   0.5238   0.6068     H
C       0.2442   0.1916   0.3352     C
C       0.2558   0.6916   0.4148     C
H        0.256   0.0238   0.1432     H
C       0.2579   0.4614   0.2855     C
H       0.2593   0.7875   0.3546     H
H       0.2601   0.0996   0.1034     H
C       0.2608   0.8752   0.5706     C
H       0.2632   0.4911   0.3232     H
H       0.2659   0.8473   0.6089     H
C       0.2661   0.7175   0.1361     C
H       0.2699   0.6401   0.2098     H
H         0.27   0.4371   0.0282     H
N         0.27    0.573   0.6169     N
C       0.2715    0.486   0.0031     C
C        0.275   0.6267   0.9301     C
C       0.2765   0.8997   0.9563     C
H       0.2766   0.6755    0.905     H
C       0.2778   0.8174   0.0478     C
C       0.2819   0.3711   0.6767     C
C       0.2825   0.7339   0.3639     C
C        0.283   0.4555    0.768     C
H       0.2863   0.5873   0.4655     H
H       0.2875   0.2407   0.6046     H
C       0.2913   0.1158   0.7796     C
C       0.2914   0.0442   0.7415     C
H       0.2933   0.1559   0.2203     H
H        0.297   0.9096    0.916     H
C       0.2987   0.6169   0.4288     C
C       0.3007   0.6568   0.1744     C
H       0.3025   0.3603   0.6365     H
C       0.3026   0.4319   0.1884     C
H       0.3029   0.5026   0.7906     H
C       0.3053   0.8311   0.9887     C
C       0.3084   0.7442   0.0852     C
C       0.3086   0.9042   0.4717     C
C       0.3116   0.4398    0.709     C
N       0.3137   0.4752   0.2412     N
C       0.3174   0.2222   0.2978     C
C       0.3183   0.8579   0.5235     C
H       0.3245   0.7234    0.595     H
C       0.3311   0.1947   0.2387     C
H       0.3349   0.0364   0.7122     H
C       0.3364    0.496   0.9628     C
C        0.339    0.568   0.9258     C
H        0.341   0.4415   0.1558     H
C       0.3432   0.6993   0.3256     C
H       0.3441   0.7933   0.9703     H
H       0.3473   0.2341   0.8589     H
H       0.3481   0.8977   0.4394     H
N        0.351   0.5553   0.6391     N
C       0.3579   0.1817   0.7735     C
C        0.359   0.5868   0.3891     C
H       0.3599   0.7301   0.2902     H
H       0.3603   0.3025   0.3635     H
C       0.3711   0.2819   0.3233     C
C       0.3729   0.4951   0.6795     C
C       0.3733    0.725   0.5699     C
C       0.3752   0.2392   0.8206     C
N       0.3758   0.6207   0.1637     N
H       0.3793   0.4546   0.9598     H
N       0.3793   0.6242   0.3363     N
C       0.3831   0.7013   0.0712     C
C       0.3842   0.7913   0.5296     C
H       0.3878   0.5365   0.3998     H
H       0.3977   0.1519   0.6894     H
C       0.3997   0.2235   0.2063     C
H       0.4004   0.7601   0.8534     H
C       0.4042   0.1914   0.7217     C
C       0.4089   0.5758   0.8817     C
H       0.4096    0.203    0.166     H
H       0.4127   0.7137   0.0345     H
C       0.4132    0.641   0.1109     C
C       0.4242   0.5911   0.6183     C
N        0.427     0.73   0.8831     N
C       0.4319   0.3026   0.8116     C
C        0.432    0.661   0.5742     C
H       0.4371     0.27   0.9718     H
C       0.4398   0.3116    0.291     C
H       0.4415    0.341   0.8442     H
Cd     0.44193  0.55807     0.25    Cd
N       0.4443   0.5117   0.8547     N
N       0.4447    0.649   0.8609     N
H       0.4546   0.3793   0.0402     H
C       0.4555    0.283    0.232     C
C       0.4558   0.7914   0.4915     C
N        0.456    0.494    0.684     N
C       0.4614   0.2579   0.7145     C
H       0.4635   0.6122   0.1002     H
H       0.4636   0.8349   0.4622     H
N       0.4752   0.3137   0.7588     N
H       0.4762    0.756   0.8932     H
C        0.486   0.2715   0.9969     C
N       0.4883   0.5557   0.6453     N
H       0.4911   0.2632   0.6768     H
N        0.494    0.456    0.316     N
C       0.4951   0.3729   0.3205     C
C        0.496   0.3364   0.0372     C
H       0.4974   0.6971   0.7094     H
H       0.5026   0.3029   0.2094     H
C        0.504   0.6636   0.5372     C
C       0.5049   0.6271   0.8205     C
N        0.506    0.544    0.816     N
H       0.5089   0.7368   0.1768     H
N       0.5117   0.4443   0.1453     N
C        0.514   0.7285   0.4969     C
H       0.5238    0.244   0.3932     H
N       0.5248   0.6863   0.2588     N
H       0.5364   0.1651   0.9622     H
H       0.5365   0.3878   0.6002     H
C       0.5386   0.7421   0.2145     C
N        0.544    0.506    0.184     N
C       0.5442   0.2086   0.9915     C
C       0.5445    0.717    0.732     C
H       0.5454   0.6207   0.5402     H
N       0.5553    0.351   0.3609     N
N       0.5557   0.4883   0.3547     N
Cd     0.55807  0.44193     0.75    Cd
H       0.5585    0.659   0.3442     H
C       0.5602   0.6884    0.791     C
H       0.5629     0.73   0.4718     H
C        0.568    0.339   0.0742     C
C       0.5681   0.6974   0.3116     C
N        0.573     0.27   0.3831     N
C       0.5758   0.4089   0.1183     C
C       0.5868    0.359   0.6109     C
H       0.5873   0.2863   0.5345     H
H       0.5904    0.797    0.666     H
C       0.5911   0.4242   0.3817     C
C       0.5958   0.8086   0.2217     C
H       0.5996   0.2399   0.3534     H
C       0.6003   0.7765   0.7063     C
H       0.6023   0.8481   0.1894     H
H       0.6122   0.4635   0.8998     H
C       0.6158   0.2087   0.0296     C
C       0.6169   0.2987   0.5712     C
N       0.6207   0.3758   0.8363     N
H       0.6207   0.5454   0.4598     H
N       0.6242   0.3793   0.6637     N
C       0.6248   0.7608   0.3206     C
C       0.6267    0.275   0.0699     C
C       0.6271   0.5049   0.1795     C
C       0.6289   0.7181   0.8233     C
H       0.6397   0.6975   0.8635     H
H       0.6401   0.2699   0.7902     H
C        0.641   0.4132   0.8891     C
C       0.6421   0.8183   0.2735     C
N        0.649   0.4447   0.1391     N
H       0.6519   0.1023   0.9394     H
H       0.6527   0.7659   0.3589     H
H       0.6559   0.2067   0.4703     H
C       0.6568   0.3007   0.8256     C
H        0.659   0.5585   0.6558     H
C        0.661    0.432   0.4258     C
C       0.6636    0.504   0.4628     C
H       0.6651   0.9636   0.2122     H
C       0.6689   0.8053   0.7387     C
H       0.6755   0.2766    0.095     H
C       0.6817   0.1421   0.0235     C
C       0.6826   0.7778   0.7978     C
N       0.6863   0.5248   0.7412     N
C       0.6884   0.5602    0.209     C
C       0.6914   0.0958   0.9717     C
C       0.6916   0.2558   0.5852     C
C       0.6947   0.1689   0.4887     C
H       0.6971   0.4974   0.2906     H
C       0.6974   0.5681   0.6884     C
H       0.6975   0.6397   0.1365     H
C       0.6993   0.3432   0.6744     C
C       0.7013   0.3831   0.9288     C
H        0.703   0.0904    0.416     H
H       0.7067   0.8441   0.7203     H
C       0.7086   0.9558   0.2415     C
C       0.7087   0.8842   0.2796     C
H       0.7125   0.7593   0.1046     H
H       0.7137   0.4127   0.9655     H
C        0.717   0.5445    0.268     C
C       0.7175   0.2661   0.8639     C
C       0.7181   0.6289   0.1767     C
C       0.7222   0.1826   0.5478     C
H       0.7234   0.3245    0.405     H
C       0.7235   0.1003   0.4563     C
C        0.725   0.3733   0.4301     C
C       0.7285    0.514   0.5031     C
N         0.73    0.427   0.1169     N
H         0.73   0.5629   0.5282     H
H       0.7301   0.3599   0.7098     H
C       0.7339   0.2825   0.6361     C
H       0.7341   0.1527   0.1089     H
H       0.7368   0.5089   0.8232     H
C       0.7392   0.1248   0.0706     C
H       0.7399   0.9004   0.6034     H
H       0.7407   0.2125   0.8546     H
C       0.7421   0.5386   0.7855     C
H        0.744   0.9762   0.6432     H
C       0.7442   0.3084   0.9148     C
C       0.7558   0.8084   0.8352     C
H        0.756   0.4762   0.1068     H
C       0.7579   0.0386   0.9645     C
H       0.7593   0.7125   0.8954     H
H       0.7601   0.4004   0.1466     H
C       0.7608   0.6248   0.6794     C
H       0.7632   0.0089   0.9268     H
H       0.7659   0.6527   0.6411     H
C       0.7661   0.7825   0.1139     C
H       0.7699   0.8599   0.0402     H
H         0.77   0.0629   0.2218     H
N         0.77    0.927   0.6331     N
C       0.7715    0.014   0.2469     C
C        0.775   0.8733   0.3199     C
C       0.7765   0.6003   0.2937     C
H       0.7766   0.8245    0.345     H
C       0.7778   0.6826   0.2022     C
C       0.7819   0.1289   0.5733     C
C       0.7825   0.7661   0.8861     C
C        0.783   0.0445    0.482     C
H       0.7863   0.9127   0.7845     H
H       0.7875   0.2593   0.6454     H
C       0.7913   0.3842   0.4704     C
C       0.7914   0.4558   0.5085     C
H       0.7933   0.3441   0.0297     H
H        0.797   0.5904    0.334     H
C       0.7987   0.8831   0.8212     C
C       0.8007   0.8432   0.0756     C
H       0.8025   0.1397   0.6135     H
C       0.8026   0.0681   0.0616     C
H       0.8029   0.9974   0.4594     H
C       0.8053   0.6689   0.2613     C
C       0.8084   0.7558   0.1648     C
C       0.8086   0.5958   0.7783     C
C       0.8116   0.0602    0.541     C
N       0.8137   0.0248   0.0088     N
C       0.8174   0.2778   0.9522     C
C       0.8183   0.6421   0.7265     C
H       0.8245   0.7766    0.655     H
C       0.8311   0.3053   0.0113     C
H       0.8349   0.4636   0.5378     H
C       0.8364    0.004   0.2872     C
C        0.839    0.932   0.3242     C
H        0.841   0.0585   0.0942     H
C       0.8432   0.8007   0.9244     C
H       0.8441   0.7067   0.2797     H
H       0.8473   0.2659   0.3911     H
H       0.8481   0.6023   0.8106     H
N        0.851   0.9447   0.6109     N
C       0.8579   0.3183   0.4765     C
C        0.859   0.9132   0.8609     C
H       0.8599   0.7699   0.9598     H
H       0.8603   0.1975   0.8865     H
C       0.8711   0.2181   0.9267     C
C       0.8729   0.0049   0.5705     C
C       0.8733    0.775   0.6801     C
C       0.8752   0.2608   0.4294     C
N       0.8758   0.8793   0.0863     N
H       0.8793   0.0454   0.2902     H
N       0.8793   0.8758   0.9137     N
C       0.8831   0.7987   0.1788     C
C       0.8842   0.7087   0.7204     C
H       0.8878   0.9635   0.8502     H
H       0.8977   0.3481   0.5606     H
C       0.8997   0.2765   0.0437     C
H       0.9004   0.7399   0.3966     H
C       0.9042   0.3086   0.5283     C
C       0.9089   0.9242   0.3683     C
H       0.9096    0.297    0.084     H
H       0.9127   0.7863   0.2155     H
C       0.9132    0.859   0.1391     C
C       0.9242   0.9089   0.6317     C
N        0.927     0.77   0.3669     N
C       0.9319   0.1974   0.4384     C
C        0.932    0.839   0.6758     C
H       0.9371     0.23   0.2782     H
C       0.9398   0.1884    0.959     C
H       0.9415    0.159   0.4058     H
Cd     0.94193  0.94193      0.0    Cd
N       0.9443   0.9883   0.3953     N
N       0.9447    0.851   0.3891     N
H       0.9546   0.1207   0.2098     H
C       0.9555    0.217    0.018     C
C       0.9558   0.7086   0.7585     C
N        0.956    0.006    0.566     N
C       0.9614   0.2421   0.5355     C
H       0.9635   0.8878   0.1498     H
H       0.9636   0.6651   0.7878     H
N       0.9752   0.1863   0.4912     N
H       0.9762    0.744   0.3568     H
C        0.986   0.2285   0.2531     C
N       0.9883   0.9443   0.6047     N
H       0.9911   0.2368   0.5732     H
N        0.994    0.044    0.934     N
C       0.9951   0.1271   0.9295     C
C        0.996   0.1636   0.2128     C
H       0.9974   0.8029   0.5406     H
