data_I
_chemical_name_common  '/home/zhangsd/repos/MofS-CGCNN/ML/data/TSD/clean_cifs/OLANAS_clean'
_cell_length_a 19.10800
_cell_length_b 28.70400
_cell_length_c 13.64600
_cell_angle_alpha 90.00000
_cell_angle_beta  99.58200
_cell_angle_gamma 90.00000
_space_group_name_H-M_alt      'P 1'


loop_
_space_group_symop_operation_xyz
  'x, y, z' 

loop_
_atom_site_label
_atom_site_fract_x
_atom_site_fract_y
_atom_site_fract_z
_atom_site_type_symbol
O          0.0      0.0      0.0     O
Co         0.0  0.27867      0.0    Co
Co         0.0  0.72133      0.0    Co
N       0.0092  0.32572    0.899     N
N       0.0092  0.67428    0.899     N
H       0.0186    0.145   0.9304     H
H       0.0186    0.855   0.9304     H
N       0.0205   0.2311   0.1041     N
N       0.0205   0.7689   0.1041     N
C       0.0299  0.20421   0.8547     C
C       0.0299  0.79579   0.8547     C
C       0.0414    0.158   0.8819     C
C       0.0414    0.842   0.8819     C
H       0.0435   0.3067   0.2849     H
H       0.0435   0.6933   0.2849     H
C       0.0492   0.3467   0.1641     C
C       0.0492   0.6533   0.1641     C
H       0.0611   0.2548    0.772     H
H       0.0611   0.7452    0.772     H
C       0.0674   0.2233   0.7873     C
C       0.0674   0.7767   0.7873     C
C       0.0695     0.33   0.2604     C
C       0.0695     0.67   0.2604     C
H        0.074   0.3924   0.0648     H
H        0.074   0.6076   0.0648     H
C       0.0762    0.338   0.8928     C
C       0.0762    0.662   0.8928     C
C       0.0877    0.131   0.8357     C
C       0.0877    0.869   0.8357     C
C       0.0883   0.3808   0.1286     C
C       0.0883   0.6192   0.1286     C
C       0.0884   0.2261   0.1405     C
C       0.0884   0.7739   0.1405     C
O       0.0941  0.36862   0.8347     O
O       0.0941  0.63138   0.8347     O
Na      0.0966      0.0   0.9852    Na
N       0.0985   0.2816   0.0176     N
N       0.0985   0.7184   0.0176     N
C       0.1014   0.0815   0.8661     C
C       0.1014   0.9185   0.8661     C
O       0.1017   0.0705   0.9527     O
O       0.1017   0.9295   0.9527     O
O       0.1109  0.05283   0.7991     O
O       0.1109  0.94717   0.7991     O
C       0.1135   0.1982   0.7415     C
C       0.1135   0.8018   0.7415     C
O       0.1149    0.201   0.2068     O
O       0.1149    0.799   0.2068     O
C       0.1225   0.1508   0.7647     C
C       0.1225   0.8492   0.7647     C
C       0.1288   0.3486   0.3192     C
C       0.1288   0.6514   0.3192     C
C       0.1289  0.31288   0.9663     C
C       0.1289  0.68712   0.9663     C
O       0.1294   0.2959   0.4506     O
O       0.1294   0.7041   0.4506     O
C       0.1354   0.2566   0.0911     C
C       0.1354   0.7434   0.0911     C
C       0.1481   0.3982   0.1858     C
C       0.1481   0.6018   0.1858     C
C       0.1511   0.3324   0.4244     C
C       0.1511   0.6676   0.4244     C
H       0.1518   0.1326   0.7323     H
H       0.1518   0.8674   0.7323     H
C       0.1549   0.2207   0.6709     C
C       0.1549   0.7793   0.6709     C
O       0.1619   0.2641   0.6822     O
O       0.1619   0.7359   0.6822     O
C       0.1679   0.3829   0.2814     C
C       0.1679   0.6171   0.2814     C
O       0.1729   0.4465   0.0562     O
O       0.1729   0.5535   0.0562     O
O       0.1796   0.1962   0.6077     O
O       0.1796   0.8038   0.6077     O
Zn     0.18388      0.0  0.80128    Zn
O       0.1917   0.3574   0.4837     O
O       0.1917   0.6426   0.4837     O
Zn     0.19214      0.5  0.96917    Zn
C       0.1956   0.4345   0.1451     C
C       0.1956   0.5655   0.1451     C
Zn     0.19707  0.31411  0.60688    Zn
Zn     0.19707  0.68589  0.60688    Zn
O       0.1985      0.0   0.9713     O
C       0.2009   0.3209   0.9858     C
C       0.2009   0.6791   0.9858     C
C       0.2074    0.264   0.1187     C
C       0.2074    0.736   0.1187     C
H       0.2077   0.3955   0.3211     H
H       0.2077   0.6045   0.3211     H
H       0.2113   0.1977   0.9193     H
H       0.2113   0.8023   0.9193     H
H       0.2223   0.3417   0.9478     H
H       0.2223   0.6583   0.9478     H
H       0.2334   0.2478   0.1717     H
H       0.2334   0.7522   0.1717     H
C       0.2402   0.2968    0.064     C
C       0.2402   0.7032    0.064     C
O       0.2415   0.4512   0.2009     O
O       0.2415   0.5488   0.2009     O
O       0.2585   0.0488   0.7991     O
O       0.2585   0.9512   0.7991     O
C       0.2598   0.2032    0.936     C
C       0.2598   0.7968    0.936     C
H       0.2666   0.2522   0.8283     H
H       0.2666   0.7478   0.8283     H
H       0.2777   0.1583   0.0522     H
H       0.2777   0.8417   0.0522     H
H       0.2887   0.3023   0.0807     H
H       0.2887   0.6977   0.0807     H
H       0.2923   0.1045   0.6789     H
H       0.2923   0.8955   0.6789     H
C       0.2926    0.236   0.8813     C
C       0.2926    0.764   0.8813     C
C       0.2991   0.1791   0.0142     C
C       0.2991   0.8209   0.0142     C
O       0.3015      0.5   0.0287     O
Zn     0.30293  0.18589  0.39312    Zn
Zn     0.30293  0.81411  0.39312    Zn
C       0.3044   0.0655   0.8549     C
C       0.3044   0.9345   0.8549     C
Zn     0.30786      0.0  0.03083    Zn
O       0.3083   0.1426   0.5163     O
O       0.3083   0.8574   0.5163     O
Zn     0.31612      0.5  0.19872    Zn
O       0.3204   0.3038   0.3923     O
O       0.3204   0.6962   0.3923     O
O       0.3271   0.0535   0.9438     O
O       0.3271   0.9465   0.9438     O
C       0.3321   0.1171   0.7186     C
C       0.3321   0.8829   0.7186     C
O       0.3381   0.2359   0.3178     O
O       0.3381   0.7641   0.3178     O
C       0.3451   0.2793   0.3291     C
C       0.3451   0.7207   0.3291     C
H       0.3482   0.3674   0.2677     H
H       0.3482   0.6326   0.2677     H
C       0.3489   0.1676   0.5756     C
C       0.3489   0.8324   0.5756     C
C       0.3519   0.1018   0.8142     C
C       0.3519   0.8982   0.8142     C
C       0.3646   0.2434   0.9089     C
C       0.3646   0.7566   0.9089     C
O       0.3706   0.2041   0.5494     O
O       0.3706   0.7959   0.5494     O
C       0.3711  0.18712   0.0337     C
C       0.3711  0.81288   0.0337     C
C       0.3712   0.1514   0.6808     C
C       0.3712   0.8486   0.6808     C
C       0.3775   0.3492   0.2353     C
C       0.3775   0.6508   0.2353     C
O       0.3851    0.299   0.7932     O
O       0.3851    0.701   0.7932     O
C       0.3865   0.3018   0.2585     C
C       0.3865   0.6982   0.2585     C
O       0.3891  0.44717   0.2009     O
O       0.3891  0.55283   0.2009     O
O       0.3983   0.4295   0.0473     O
O       0.3983   0.5705   0.0473     O
C       0.3986   0.4185   0.1339     C
C       0.3986   0.5815   0.1339     C
N       0.4015   0.2184   0.9824     N
N       0.4015   0.7816   0.9824     N
Na      0.4034      0.5   0.0148    Na
O       0.4059  0.13138   0.1653     O
O       0.4059  0.86862   0.1653     O
C       0.4116   0.2739   0.8595     C
C       0.4116   0.7261   0.8595     C
C       0.4117   0.1192   0.8714     C
C       0.4117   0.8808   0.8714     C
C       0.4123    0.369   0.1643     C
C       0.4123    0.631   0.1643     C
C       0.4238    0.162   0.1072     C
C       0.4238    0.838   0.1072     C
H        0.426   0.1076   0.9352     H
H        0.426   0.8924   0.9352     H
C       0.4305     0.17   0.7396     C
C       0.4305     0.83   0.7396     C
C       0.4326   0.2767   0.2127     C
C       0.4326   0.7233   0.2127     C
H       0.4389   0.2452    0.228     H
H       0.4389   0.7548    0.228     H
C       0.4508   0.1533   0.8359     C
C       0.4508   0.8467   0.8359     C
H       0.4565   0.1933   0.7151     H
H       0.4565   0.8067   0.7151     H
C       0.4586    0.342   0.1181     C
C       0.4586    0.658   0.1181     C
C       0.4701  0.29579   0.1453     C
C       0.4701  0.70421   0.1453     C
N       0.4795   0.2689   0.8959     N
N       0.4795   0.7311   0.8959     N
H       0.4814    0.355   0.0696     H
H       0.4814    0.645   0.0696     H
N       0.4908  0.17428    0.101     N
N       0.4908  0.82572    0.101     N
Co         0.5  0.22133      0.0    Co
O          0.5      0.5      0.0     O
Co         0.5  0.77867      0.0    Co
N       0.5092  0.17428    0.899     N
N       0.5092  0.82572    0.899     N
H       0.5186    0.355   0.9304     H
H       0.5186    0.645   0.9304     H
N       0.5205   0.2689   0.1041     N
N       0.5205   0.7311   0.1041     N
C       0.5299  0.29579   0.8547     C
C       0.5299  0.70421   0.8547     C
C       0.5414    0.342   0.8819     C
C       0.5414    0.658   0.8819     C
H       0.5435   0.1933   0.2849     H
H       0.5435   0.8067   0.2849     H
C       0.5492   0.1533   0.1641     C
C       0.5492   0.8467   0.1641     C
H       0.5611   0.2452    0.772     H
H       0.5611   0.7548    0.772     H
C       0.5674   0.2767   0.7873     C
C       0.5674   0.7233   0.7873     C
C       0.5695     0.17   0.2604     C
C       0.5695     0.83   0.2604     C
H        0.574   0.1076   0.0648     H
H        0.574   0.8924   0.0648     H
C       0.5762    0.162   0.8928     C
C       0.5762    0.838   0.8928     C
C       0.5877    0.369   0.8357     C
C       0.5877    0.631   0.8357     C
C       0.5883   0.1192   0.1286     C
C       0.5883   0.8808   0.1286     C
C       0.5884   0.2739   0.1405     C
C       0.5884   0.7261   0.1405     C
O       0.5941  0.13138   0.8347     O
O       0.5941  0.86862   0.8347     O
Na      0.5966      0.5   0.9852    Na
N       0.5985   0.2184   0.0176     N
N       0.5985   0.7816   0.0176     N
C       0.6014   0.4185   0.8661     C
C       0.6014   0.5815   0.8661     C
O       0.6017   0.4295   0.9527     O
O       0.6017   0.5705   0.9527     O
O       0.6109  0.44717   0.7991     O
O       0.6109  0.55283   0.7991     O
C       0.6135   0.3018   0.7415     C
C       0.6135   0.6982   0.7415     C
O       0.6149    0.299   0.2068     O
O       0.6149    0.701   0.2068     O
C       0.6225   0.3492   0.7647     C
C       0.6225   0.6508   0.7647     C
C       0.6288   0.1514   0.3192     C
C       0.6288   0.8486   0.3192     C
C       0.6289  0.18712   0.9663     C
C       0.6289  0.81288   0.9663     C
O       0.6294   0.2041   0.4506     O
O       0.6294   0.7959   0.4506     O
C       0.6354   0.2434   0.0911     C
C       0.6354   0.7566   0.0911     C
C       0.6481   0.1018   0.1858     C
C       0.6481   0.8982   0.1858     C
C       0.6511   0.1676   0.4244     C
C       0.6511   0.8324   0.4244     C
H       0.6518   0.3674   0.7323     H
H       0.6518   0.6326   0.7323     H
C       0.6549   0.2793   0.6709     C
C       0.6549   0.7207   0.6709     C
O       0.6619   0.2359   0.6822     O
O       0.6619   0.7641   0.6822     O
C       0.6679   0.1171   0.2814     C
C       0.6679   0.8829   0.2814     C
O       0.6729   0.0535   0.0562     O
O       0.6729   0.9465   0.0562     O
O       0.6796   0.3038   0.6077     O
O       0.6796   0.6962   0.6077     O
Zn     0.68388      0.5  0.80128    Zn
O       0.6917   0.1426   0.4837     O
O       0.6917   0.8574   0.4837     O
Zn     0.69214      0.0  0.96917    Zn
C       0.6956   0.0655   0.1451     C
C       0.6956   0.9345   0.1451     C
Zn     0.69707  0.18589  0.60688    Zn
Zn     0.69707  0.81411  0.60688    Zn
O       0.6985      0.5   0.9713     O
C       0.7009   0.1791   0.9858     C
C       0.7009   0.8209   0.9858     C
C       0.7074    0.236   0.1187     C
C       0.7074    0.764   0.1187     C
H       0.7077   0.1045   0.3211     H
H       0.7077   0.8955   0.3211     H
H       0.7113   0.3023   0.9193     H
H       0.7113   0.6977   0.9193     H
H       0.7223   0.1583   0.9478     H
H       0.7223   0.8417   0.9478     H
H       0.7334   0.2522   0.1717     H
H       0.7334   0.7478   0.1717     H
C       0.7402   0.2032    0.064     C
C       0.7402   0.7968    0.064     C
O       0.7415   0.0488   0.2009     O
O       0.7415   0.9512   0.2009     O
O       0.7585   0.4512   0.7991     O
O       0.7585   0.5488   0.7991     O
C       0.7598   0.2968    0.936     C
C       0.7598   0.7032    0.936     C
H       0.7666   0.2478   0.8283     H
H       0.7666   0.7522   0.8283     H
H       0.7777   0.3417   0.0522     H
H       0.7777   0.6583   0.0522     H
H       0.7887   0.1977   0.0807     H
H       0.7887   0.8023   0.0807     H
H       0.7923   0.3955   0.6789     H
H       0.7923   0.6045   0.6789     H
C       0.7926    0.264   0.8813     C
C       0.7926    0.736   0.8813     C
C       0.7991   0.3209   0.0142     C
C       0.7991   0.6791   0.0142     C
O       0.8015      0.0   0.0287     O
Zn     0.80293  0.31411  0.39312    Zn
Zn     0.80293  0.68589  0.39312    Zn
C       0.8044   0.4345   0.8549     C
C       0.8044   0.5655   0.8549     C
Zn     0.80786      0.5  0.03083    Zn
O       0.8083   0.3574   0.5163     O
O       0.8083   0.6426   0.5163     O
Zn     0.81612      0.0  0.19872    Zn
O       0.8204   0.1962   0.3923     O
O       0.8204   0.8038   0.3923     O
O       0.8271   0.4465   0.9438     O
O       0.8271   0.5535   0.9438     O
C       0.8321   0.3829   0.7186     C
C       0.8321   0.6171   0.7186     C
O       0.8381   0.2641   0.3178     O
O       0.8381   0.7359   0.3178     O
C       0.8451   0.2207   0.3291     C
C       0.8451   0.7793   0.3291     C
H       0.8482   0.1326   0.2677     H
H       0.8482   0.8674   0.2677     H
C       0.8489   0.3324   0.5756     C
C       0.8489   0.6676   0.5756     C
C       0.8519   0.3982   0.8142     C
C       0.8519   0.6018   0.8142     C
C       0.8646   0.2566   0.9089     C
C       0.8646   0.7434   0.9089     C
O       0.8706   0.2959   0.5494     O
O       0.8706   0.7041   0.5494     O
C       0.8711  0.31288   0.0337     C
C       0.8711  0.68712   0.0337     C
C       0.8712   0.3486   0.6808     C
C       0.8712   0.6514   0.6808     C
C       0.8775   0.1508   0.2353     C
C       0.8775   0.8492   0.2353     C
O       0.8851    0.201   0.7932     O
O       0.8851    0.799   0.7932     O
C       0.8865   0.1982   0.2585     C
C       0.8865   0.8018   0.2585     C
O       0.8891  0.05283   0.2009     O
O       0.8891  0.94717   0.2009     O
O       0.8983   0.0705   0.0473     O
O       0.8983   0.9295   0.0473     O
C       0.8986   0.0815   0.1339     C
C       0.8986   0.9185   0.1339     C
N       0.9015   0.2816   0.9824     N
N       0.9015   0.7184   0.9824     N
Na      0.9034      0.0   0.0148    Na
O       0.9059  0.36862   0.1653     O
O       0.9059  0.63138   0.1653     O
C       0.9116   0.2261   0.8595     C
C       0.9116   0.7739   0.8595     C
C       0.9117   0.3808   0.8714     C
C       0.9117   0.6192   0.8714     C
C       0.9123    0.131   0.1643     C
C       0.9123    0.869   0.1643     C
C       0.9238    0.338   0.1072     C
C       0.9238    0.662   0.1072     C
H        0.926   0.3924   0.9352     H
H        0.926   0.6076   0.9352     H
C       0.9305     0.33   0.7396     C
C       0.9305     0.67   0.7396     C
C       0.9326   0.2233   0.2127     C
C       0.9326   0.7767   0.2127     C
H       0.9389   0.2548    0.228     H
H       0.9389   0.7452    0.228     H
C       0.9508   0.3467   0.8359     C
C       0.9508   0.6533   0.8359     C
H       0.9565   0.3067   0.7151     H
H       0.9565   0.6933   0.7151     H
C       0.9586    0.158   0.1181     C
C       0.9586    0.842   0.1181     C
C       0.9701  0.20421   0.1453     C
C       0.9701  0.79579   0.1453     C
N       0.9795   0.2311   0.8959     N
N       0.9795   0.7689   0.8959     N
H       0.9814    0.145   0.0696     H
H       0.9814    0.855   0.0696     H
N       0.9908  0.32572    0.101     N
N       0.9908  0.67428    0.101     N
