data_I
_chemical_name_common  '/home/zhangsd/repos/MofS-CGCNN/ML/data/TSD/clean_cifs/OLONAG_clean'
_cell_length_a 12.63560
_cell_length_b 12.69630
_cell_length_c 22.17550
_cell_angle_alpha 84.86400
_cell_angle_beta  88.08800
_cell_angle_gamma 72.98000
_space_group_name_H-M_alt      'P 1'


loop_
_space_group_symop_operation_xyz
  'x, y, z' 

loop_
_atom_site_label
_atom_site_fract_x
_atom_site_fract_y
_atom_site_fract_z
_atom_site_type_symbol
C       0.0021    0.611  0.90533     C
C       0.0083   0.8132  0.45473     C
C       0.0194   0.4331  0.87989     C
N       0.0285  0.45696  0.12901     N
O      0.02883  0.88804  0.71977     O
H       0.0297   0.3132   0.1021     H
S      0.03066  0.65075  0.16437     S
Ag     0.03133  0.57511  0.27309    Ag
C       0.0359   0.6435  0.69531     C
O      0.04268  0.88058  0.61983     O
O      0.04679  0.88001  0.47768     O
H       0.0523   0.6866   0.5565     H
C       0.0528   0.8367   0.6729     C
C       0.0651   0.6914  0.46544     C
C       0.0749   0.6429  0.52426     C
C       0.0783   0.5732  0.95105     C
O      0.07936  0.15605  0.57551     O
N       0.0808   0.5332  0.70285     N
H       0.0973   0.6222   0.9743     H
C       0.0997   0.3889  0.92495     C
C       0.1024   0.7136  0.68163     C
C       0.1043   0.6231   0.4183     C
S      0.10443  0.68003  0.34266     S
S      0.10872  0.29924   0.2987     S
H        0.116    0.033    0.963     H
C       0.1179   0.5302  0.53507     C
H       0.1238   0.4966   0.5743     H
C       0.1255   0.4611  0.96131     C
Sr     0.13055   0.1078  0.81952    Sr
N       0.1467  0.51327  0.42924     N
C       0.1519   0.4686  0.48661     C
Sr     0.16096  0.95708  0.54272    Sr
Ag     0.16162   0.3858  0.20204    Ag
O       0.1643   0.0057  0.93284     O
C       0.1654   0.2686  0.93454     C
H        0.167    0.946   0.9332     H
H       0.1752   0.4334   0.9929     H
H       0.1798   0.3923   0.4938     H
O         0.19  0.22697  0.98715     O
C       0.1911   0.4915  0.69733     C
O       0.1995   0.2171   0.8882     O
Ag     0.20449  0.41297  0.34693    Ag
C       0.2154   0.6685  0.67553     C
H       0.2218   0.4153   0.7029     H
H       0.2264   0.5669   0.8357     H
Ag     0.23522  0.58565  0.15907    Ag
H       0.2605   0.7139   0.6658     H
C       0.2606   0.5556  0.68394     C
H       0.2661   0.3758   0.8451     H
Ag     0.29361  0.60671  0.30066    Ag
C       0.2977    0.522    0.829     C
H       0.3029   0.6078   0.0243     H
O      0.30818  0.77965  0.54172     O
N      0.32127   0.4778  0.08244     N
C        0.322   0.4085  0.83521     C
C       0.3331   0.5314  0.02883     C
H       0.3366   0.5235   0.6806     H
H       0.3375   0.5764   0.5213     H
O      0.34235   0.0237  0.83493     O
S      0.34921  0.29614   0.1592     S
S      0.35207  0.68636   0.2029     S
Sr     0.35487  0.05373  0.95008    Sr
H       0.3662    0.643   0.8083     H
C       0.3671   0.3677  0.08959     C
H        0.371    0.961   0.8258     H
H        0.377    0.053   0.8199     H
C        0.382   0.5665  0.81261     C
C       0.3874   0.4793  0.98052     C
Ag     0.38949  0.40719  0.23907    Ag
H       0.3918   0.5191   0.9437     H
C       0.3956   0.5478  0.54839     C
H       0.3958   0.3885   0.5505     H
C         0.41   0.7378  0.54807     C
S      0.41134  0.34225  0.34704     S
O      0.41789  0.83703  0.92352     O
C       0.4273   0.3087  0.04289     C
C       0.4292    0.343  0.82678     C
C       0.4299   0.4362  0.56564     C
C       0.4355   0.3662  0.98749     C
N       0.4355   0.5372  0.36941     N
O       0.4415  0.17221  0.78888     O
C       0.4473   0.6175  0.57136     C
C       0.4508   0.2191  0.83496     C
O      0.45396  0.11731  0.02975     O
H       0.4594   0.6786   0.3841     H
O       0.4675  0.17285  0.88745     O
C       0.4689   0.4278  0.38534     C
H       0.4731   0.3289   0.9553     H
O      0.48182  0.78604  0.53409     O
C       0.4847   0.6028  0.39445     C
N       0.4859   0.5056  0.80248     N
C       0.4892   0.6056  0.19069     C
C       0.4906   0.1876  0.05101     C
C       0.5094   0.8124  0.94899     C
C       0.5108   0.3944  0.80931     C
N       0.5141   0.4944  0.19752     N
C       0.5153   0.3972  0.60555     C
O      0.51818  0.21396  0.46591     O
H       0.5269   0.6711   0.0447     H
C       0.5311   0.5722  0.61466     C
O       0.5325  0.82715  0.11255     O
H       0.5406   0.3214   0.6159     H
O      0.54604  0.88269  0.97025     O
C       0.5492   0.7809  0.16504     C
C       0.5527   0.3825  0.42864     C
O       0.5585  0.82779  0.21112     O
N       0.5645   0.4628  0.63059     N
C       0.5645   0.6338  0.01251     C
C       0.5701   0.5638  0.43436     C
C       0.5708    0.657  0.17322     C
C       0.5727   0.6913  0.95711     C
O      0.58211  0.16297  0.07648     O
S      0.58866  0.65775  0.65296     S
C         0.59   0.2622  0.45193     C
H       0.6042   0.6115   0.4495     H
C       0.6044   0.4522  0.45161     C
H       0.6082   0.4809   0.0563     H
Ag     0.61051  0.59281  0.76093    Ag
C       0.6126   0.5207  0.01948     C
C        0.618   0.4335  0.18739     C
H        0.623    0.947   0.1801     H
H        0.629    0.039   0.1742     H
C       0.6329   0.6323  0.91041     C
H       0.6338    0.357   0.1917     H
Sr     0.64513  0.94627  0.04992    Sr
S      0.64793  0.31364   0.7971     S
S      0.65079  0.70386   0.8408     S
O      0.65765   0.9763  0.16507     O
H       0.6625   0.4236   0.4787     H
H       0.6634   0.4765   0.3194     H
C       0.6669   0.4686  0.97117     C
C        0.678   0.5915  0.16479     C
N      0.67873   0.5222  0.91756     N
O      0.69182  0.22035  0.45828     O
H       0.6971   0.3922   0.9757     H
C       0.7023    0.478    0.171     C
Ag     0.70639  0.39329  0.69934    Ag
H       0.7339   0.6242   0.1549     H
C       0.7394   0.4444  0.31606     C
H       0.7395   0.2861   0.3342     H
Ag     0.76478  0.41435  0.84093    Ag
H       0.7736   0.4331   0.1643     H
H       0.7782   0.5847   0.2971     H
C       0.7846   0.3315  0.32447     C
Ag     0.79551  0.58703  0.65307    Ag
O       0.8005   0.7829   0.1118     O
C       0.8089   0.5085  0.30267     C
O         0.81  0.77303  0.01285     O
H       0.8202   0.6077   0.5062     H
H       0.8248   0.5666   0.0071     H
H        0.833    0.054   0.0668     H
C       0.8346   0.7314  0.06546     C
O       0.8357   0.9943  0.06716     O
Ag     0.83838   0.6142  0.79796    Ag
Sr     0.83904  0.04292  0.45728    Sr
C       0.8481   0.5314  0.51339     C
N       0.8533  0.48673  0.57076     N
Sr     0.86945   0.8922  0.18048    Sr
C       0.8745   0.5389  0.03869     C
H       0.8762   0.5034   0.4257     H
C       0.8821   0.4698  0.46493     C
H        0.884    0.967    0.037     H
S      0.89128  0.70076   0.7013     S
S      0.89557  0.31997  0.65734     S
C       0.8957   0.3769   0.5817     C
C       0.8976   0.2864  0.31837     C
C       0.9003   0.6111  0.07505     C
H       0.9027   0.3778   0.0257     H
N       0.9192   0.4668  0.29715     N
O      0.92064  0.84395  0.42449     O
C       0.9217   0.4268  0.04895     C
C       0.9251   0.3571  0.47574     C
C       0.9349   0.3086  0.53456     C
C       0.9472   0.1633   0.3271     C
H       0.9477   0.3134   0.4435     H
O      0.95321  0.11999  0.52232     O
O      0.95732  0.11942  0.38017     O
C       0.9641   0.3565  0.30469     C
Ag     0.96867  0.42489  0.72691    Ag
S      0.96934  0.34925  0.83563     S
H       0.9703   0.6868   0.8979     H
O      0.97117  0.11196  0.28023     O
N       0.9715  0.54304  0.87099     N
C       0.9806   0.5669  0.12011     C
C       0.9917   0.1868  0.54527     C
C       0.9979    0.389  0.09467     C
