data_I
_chemical_name_common  '/home/zhangsd/repos/MofS-CGCNN/ML/data/TSD/clean_cifs/OMEWUZ_clean'
_cell_length_a  7.62850
_cell_length_b 11.92960
_cell_length_c 14.34200
_cell_angle_alpha 114.57600
_cell_angle_beta  99.31280
_cell_angle_gamma 90.00000
_space_group_name_H-M_alt      'P 1'


loop_
_space_group_symop_operation_xyz
  'x, y, z' 

loop_
_atom_site_label
_atom_site_fract_x
_atom_site_fract_y
_atom_site_fract_z
_atom_site_type_symbol
C       0.0204    0.003  0.84308     C
C       0.0451  0.93244  0.73074     C
H       0.0458   0.7818   0.5472     H
Ba      0.0607  0.27413  0.11468    Ba
H       0.0697   0.0841   0.3148     H
H       0.0786   0.7126    0.375     H
O      0.08347  0.05522  0.13016     O
H       0.0917   0.8536   0.7218     H
O      0.09797  0.10722  0.89938     O
C       0.1058  0.83239  0.52594     C
C        0.126  0.79119  0.42276     C
O       0.1413   0.7196  0.21372     O
H       0.1568   0.5921   0.5594     H
O       0.1622  0.62592  0.74822     O
O       0.1632  0.99927  0.70154     O
C        0.176  0.94991  0.59716     C
H       0.1902   0.4912   0.3874     H
C        0.215  0.86448  0.38944     C
C       0.2167  0.52006  0.53812     C
H         0.23    0.943     0.05     H
C       0.2355  0.81827  0.27674     C
C       0.2362  0.45974  0.43488     C
O         0.25   0.8745      0.0     O
C       0.2638  0.02486  0.56512     C
C       0.2645  0.54153  0.72326     C
H         0.27    0.893     0.95     H
C       0.2833  0.98194  0.46188     C
C        0.285  0.47504  0.61056     C
H       0.3098   0.1038   0.6126     H
C        0.324  0.35275  0.40284     C
O       0.3368  0.29773  0.29846     O
O       0.3378   0.8777  0.25178     O
H       0.3432   0.0327   0.4406     H
O       0.3587  0.50588  0.78628     O
C        0.374  0.36843  0.57724     C
C       0.3942  0.30645  0.47406     C
O      0.40203  0.20784  0.10062     O
H       0.4083   0.1318   0.2782     H
O      0.41653  0.92506  0.86984     O
H       0.4214   0.3376    0.625     H
H       0.4303   0.7693   0.6852     H
Ba      0.4393  0.15945  0.88532    Ba
H       0.4542   0.2346   0.4528     H
C       0.4549   0.2017  0.26926     C
C       0.4796  0.15992  0.15692     C
C       0.5204  0.84008  0.84308     C
C       0.5451   0.7983  0.73074     C
H       0.5458   0.7654   0.5472     H
Ba      0.5607  0.84055  0.11468    Ba
H       0.5697   0.2307   0.3148     H
H       0.5786   0.6624    0.375     H
O      0.58347  0.07494  0.13016     O
H       0.5917   0.8682   0.7218     H
O      0.59797  0.79216  0.89938     O
C       0.6058  0.69355  0.52594     C
C        0.626  0.63157  0.42276     C
O       0.6413  0.49412  0.21372     O
H       0.6568   0.9673   0.5594     H
O       0.6622   0.1223  0.74822     O
O       0.6632  0.70227  0.70154     O
C        0.676  0.64725  0.59716     C
H       0.6902   0.8962   0.3874     H
C        0.715  0.52496  0.38944     C
C       0.7167  0.01806  0.53812     C
H         0.73    0.107     0.05     H
C       0.7355  0.45847  0.27674     C
C       0.7362  0.97514  0.43488     C
O         0.75   0.1255      0.0     O
C       0.7638  0.54026  0.56512     C
C       0.7645  0.18173  0.72326     C
H         0.77    0.057     0.95     H
C       0.7833  0.47994  0.46188     C
C        0.785  0.13552  0.61056     C
H       0.8098   0.5088   0.6126     H
C        0.824  0.05009  0.40284     C
O       0.8368  0.00073  0.29846     O
O       0.8378  0.37408  0.25178     O
H       0.8432   0.4079   0.4406     H
O       0.8587   0.2804  0.78628     O
C        0.874  0.20881  0.57724     C
C       0.8942  0.16761  0.47406     C
O      0.90203  0.89278  0.10062     O
H       0.9083   0.1464   0.2782     H
O      0.91653  0.94478  0.86984     O
H       0.9214   0.2874    0.625     H
H       0.9303   0.9159   0.6852     H
Ba      0.9393  0.72587  0.88532    Ba
H       0.9542   0.2182   0.4528     H
C       0.9549  0.06756  0.26926     C
C       0.9796    0.997  0.15692     C
