data_I
_chemical_name_common  '/home/zhangsd/repos/MofS-CGCNN/ML/data/TSD/clean_cifs/OMIMEE_clean'
_cell_length_a 44.59930
_cell_length_b 44.59930
_cell_length_c 44.59930
_cell_angle_alpha 90.00000
_cell_angle_beta  90.00000
_cell_angle_gamma 90.00000
_space_group_name_H-M_alt      'P 1'


loop_
_space_group_symop_operation_xyz
  'x, y, z' 

loop_
_atom_site_label
_atom_site_fract_x
_atom_site_fract_y
_atom_site_fract_z
_atom_site_type_symbol
Cu         0.0  0.12652  0.12652    Cu
Cu         0.0  0.12652  0.87348    Cu
Cu         0.0  0.16854  0.16854    Cu
Cu         0.0  0.16854  0.83146    Cu
Cu         0.0  0.33146  0.33146    Cu
Cu         0.0  0.33146  0.66854    Cu
Cu         0.0  0.37348  0.37348    Cu
Cu         0.0  0.37348  0.62652    Cu
Cu         0.0  0.62652  0.37348    Cu
Cu         0.0  0.62652  0.62652    Cu
Cu         0.0  0.66854  0.33146    Cu
Cu         0.0  0.66854  0.66854    Cu
Cu         0.0  0.83146  0.16854    Cu
Cu         0.0  0.83146  0.83146    Cu
Cu         0.0  0.87348  0.12652    Cu
Cu         0.0  0.87348  0.87348    Cu
O      0.03101  0.14347   0.1869     O
O      0.03101  0.14347   0.8131     O
O      0.03101   0.1869  0.14347     O
O      0.03101   0.1869  0.85653     O
O      0.03101   0.3131  0.35653     O
O      0.03101   0.3131  0.64347     O
O      0.03101  0.35653   0.3131     O
O      0.03101  0.35653   0.6869     O
O      0.03101  0.64347   0.3131     O
O      0.03101  0.64347   0.6869     O
O      0.03101   0.6869  0.35653     O
O      0.03101   0.6869  0.64347     O
O      0.03101   0.8131  0.14347     O
O      0.03101   0.8131  0.85653     O
O      0.03101  0.85653   0.1869     O
O      0.03101  0.85653   0.8131     O
O      0.03108  0.10802  0.15135     O
O      0.03108  0.10802  0.84865     O
O      0.03108  0.15135  0.10802     O
O      0.03108  0.15135  0.89198     O
O      0.03108  0.34865  0.39198     O
O      0.03108  0.34865  0.60802     O
O      0.03108  0.39198  0.34865     O
O      0.03108  0.39198  0.65135     O
O      0.03108  0.60802  0.34865     O
O      0.03108  0.60802  0.65135     O
O      0.03108  0.65135  0.39198     O
O      0.03108  0.65135  0.60802     O
O      0.03108  0.84865  0.10802     O
O      0.03108  0.84865  0.89198     O
O      0.03108  0.89198  0.15135     O
O      0.03108  0.89198  0.84865     O
C      0.04084  0.12013  0.17511     C
C      0.04084  0.12013  0.82489     C
C      0.04084  0.17511  0.12013     C
C      0.04084  0.17511  0.87987     C
C      0.04084  0.32489  0.37987     C
C      0.04084  0.32489  0.62013     C
C      0.04084  0.37987  0.32489     C
C      0.04084  0.37987  0.67511     C
C      0.04084  0.62013  0.32489     C
C      0.04084  0.62013  0.67511     C
C      0.04084  0.67511  0.37987     C
C      0.04084  0.67511  0.62013     C
C      0.04084  0.82489  0.12013     C
C      0.04084  0.82489  0.87987     C
C      0.04084  0.87987  0.17511     C
C      0.04084  0.87987  0.82489     C
C      0.06677  0.10476  0.19003     C
C      0.06677  0.10476  0.80997     C
C      0.06677  0.19003  0.10476     C
C      0.06677  0.19003  0.89524     C
C      0.06677  0.30997  0.39524     C
C      0.06677  0.30997  0.60476     C
C      0.06677  0.39524  0.30997     C
C      0.06677  0.39524  0.69003     C
C      0.06677  0.60476  0.30997     C
C      0.06677  0.60476  0.69003     C
C      0.06677  0.69003  0.39524     C
C      0.06677  0.69003  0.60476     C
C      0.06677  0.80997  0.10476     C
C      0.06677  0.80997  0.89524     C
C      0.06677  0.89524  0.19003     C
C      0.06677  0.89524  0.80997     C
H       0.0692   0.1327   0.2253     H
H       0.0692   0.1327   0.7747     H
H       0.0692   0.2253   0.1327     H
H       0.0692   0.2253   0.8673     H
H       0.0692   0.2747   0.3673     H
H       0.0692   0.2747   0.6327     H
H       0.0692   0.3673   0.2747     H
H       0.0692   0.3673   0.7253     H
H       0.0692   0.6327   0.2747     H
H       0.0692   0.6327   0.7253     H
H       0.0692   0.7253   0.3673     H
H       0.0692   0.7253   0.6327     H
H       0.0692   0.7747   0.1327     H
H       0.0692   0.7747   0.8673     H
H       0.0692   0.8673   0.2253     H
H       0.0692   0.8673   0.7747     H
H       0.0721   0.0721   0.1597     H
H       0.0721   0.0721   0.8403     H
H       0.0721   0.1597   0.0721     H
H       0.0721   0.1597   0.9279     H
H       0.0721   0.3403   0.4279     H
H       0.0721   0.3403   0.5721     H
H       0.0721   0.4279   0.3403     H
H       0.0721   0.4279   0.6597     H
H       0.0721   0.5721   0.3403     H
H       0.0721   0.5721   0.6597     H
H       0.0721   0.6597   0.4279     H
H       0.0721   0.6597   0.5721     H
H       0.0721   0.8403   0.0721     H
H       0.0721   0.8403   0.9279     H
H       0.0721   0.9279   0.1597     H
H       0.0721   0.9279   0.8403     H
C      0.07836  0.11636  0.21623     C
C      0.07836  0.11636  0.78377     C
C      0.07836  0.21623  0.11636     C
C      0.07836  0.21623  0.88364     C
C      0.07836  0.28377  0.38364     C
C      0.07836  0.28377  0.61636     C
C      0.07836  0.38364  0.28377     C
C      0.07836  0.38364  0.71623     C
C      0.07836  0.61636  0.28377     C
C      0.07836  0.61636  0.71623     C
C      0.07836  0.71623  0.38364     C
C      0.07836  0.71623  0.61636     C
C      0.07836  0.78377  0.11636     C
C      0.07836  0.78377  0.88364     C
C      0.07836  0.88364  0.21623     C
C      0.07836  0.88364  0.78377     C
C      0.07999  0.07999  0.17726     C
C      0.07999  0.07999  0.82274     C
C      0.07999  0.17726  0.07999     C
C      0.07999  0.17726  0.92001     C
C      0.07999  0.32274  0.42001     C
C      0.07999  0.32274  0.57999     C
C      0.07999  0.42001  0.32274     C
C      0.07999  0.42001  0.67726     C
C      0.07999  0.57999  0.32274     C
C      0.07999  0.57999  0.67726     C
C      0.07999  0.67726  0.42001     C
C      0.07999  0.67726  0.57999     C
C      0.07999  0.82274  0.07999     C
C      0.07999  0.82274  0.92001     C
C      0.07999  0.92001  0.17726     C
C      0.07999  0.92001  0.82274     C
O       0.0835     0.19     0.31     O
O       0.0835     0.19     0.69     O
O       0.0835     0.31     0.19     O
O       0.0835     0.31     0.81     O
O       0.0835     0.69     0.19     O
O       0.0835     0.69     0.81     O
O       0.0835     0.81     0.31     O
O       0.0835     0.81     0.69     O
O       0.0872    0.151    0.349     O
O       0.0872    0.151    0.651     O
O       0.0872    0.349    0.151     O
O       0.0872    0.349    0.849     O
O       0.0872    0.651    0.151     O
O       0.0872    0.651    0.849     O
O       0.0872    0.849    0.349     O
O       0.0872    0.849    0.651     O
O       0.1014   0.2065   0.2935     O
O       0.1014   0.2065   0.7065     O
O       0.1014   0.2935   0.2065     O
O       0.1014   0.2935   0.7935     O
O       0.1014   0.7065   0.2065     O
O       0.1014   0.7065   0.7935     O
O       0.1014   0.7935   0.2935     O
O       0.1014   0.7935   0.7065     O
C      0.10368  0.10368  0.22913     C
C      0.10368  0.10368  0.77087     C
C      0.10368  0.22913  0.10368     C
C      0.10368  0.22913  0.89632     C
C      0.10368  0.27087  0.39632     C
C      0.10368  0.27087  0.60368     C
C      0.10368  0.39632  0.27087     C
C      0.10368  0.39632  0.72913     C
C      0.10368  0.60368  0.27087     C
C      0.10368  0.60368  0.72913     C
C      0.10368  0.72913  0.39632     C
C      0.10368  0.72913  0.60368     C
C      0.10368  0.77087  0.10368     C
C      0.10368  0.77087  0.89632     C
C      0.10368  0.89632  0.22913     C
C      0.10368  0.89632  0.77087     C
C      0.10476  0.06677  0.19003     C
C      0.10476  0.06677  0.80997     C
C      0.10476  0.19003  0.06677     C
C      0.10476  0.19003  0.93323     C
C      0.10476  0.30997  0.43323     C
C      0.10476  0.30997  0.56677     C
C      0.10476  0.43323  0.30997     C
C      0.10476  0.43323  0.69003     C
C      0.10476  0.56677  0.30997     C
C      0.10476  0.56677  0.69003     C
C      0.10476  0.69003  0.43323     C
C      0.10476  0.69003  0.56677     C
C      0.10476  0.80997  0.06677     C
C      0.10476  0.80997  0.93323     C
C      0.10476  0.93323  0.19003     C
C      0.10476  0.93323  0.80997     C
N      0.10595  0.14066  0.27022     N
N      0.10595  0.14066  0.72978     N
N      0.10595  0.22978  0.35934     N
N      0.10595  0.22978  0.64066     N
N      0.10595  0.27022  0.14066     N
N      0.10595  0.27022  0.85934     N
N      0.10595  0.35934  0.22978     N
N      0.10595  0.35934  0.77022     N
N      0.10595  0.64066  0.22978     N
N      0.10595  0.64066  0.77022     N
N      0.10595  0.72978  0.14066     N
N      0.10595  0.72978  0.85934     N
N      0.10595  0.77022  0.35934     N
N      0.10595  0.77022  0.64066     N
N      0.10595  0.85934  0.27022     N
N      0.10595  0.85934  0.72978     N
O      0.10802  0.03108  0.15135     O
O      0.10802  0.03108  0.84865     O
O      0.10802  0.15135  0.03108     O
O      0.10802  0.15135  0.96892     O
O      0.10802  0.34865  0.46892     O
O      0.10802  0.34865  0.53108     O
O      0.10802  0.46892  0.34865     O
O      0.10802  0.46892  0.65135     O
O      0.10802  0.53108  0.34865     O
O      0.10802  0.53108  0.65135     O
O      0.10802  0.65135  0.46892     O
O      0.10802  0.65135  0.53108     O
O      0.10802  0.84865  0.03108     O
O      0.10802  0.84865  0.96892     O
O      0.10802  0.96892  0.15135     O
O      0.10802  0.96892  0.84865     O
O       0.1098   0.1345   0.3655     O
O       0.1098   0.1345   0.6345     O
O       0.1098   0.3655   0.1345     O
O       0.1098   0.3655   0.8655     O
O       0.1098   0.6345   0.1345     O
O       0.1098   0.6345   0.8655     O
O       0.1098   0.8655   0.3655     O
O       0.1098   0.8655   0.6345     O
C      0.11636  0.07836  0.21623     C
C      0.11636  0.07836  0.78377     C
C      0.11636  0.21623  0.07836     C
C      0.11636  0.21623  0.92164     C
C      0.11636  0.28377  0.42164     C
C      0.11636  0.28377  0.57836     C
C      0.11636  0.42164  0.28377     C
C      0.11636  0.42164  0.71623     C
C      0.11636  0.57836  0.28377     C
C      0.11636  0.57836  0.71623     C
C      0.11636  0.71623  0.42164     C
C      0.11636  0.71623  0.57836     C
C      0.11636  0.78377  0.07836     C
C      0.11636  0.78377  0.92164     C
C      0.11636  0.92164  0.21623     C
C      0.11636  0.92164  0.78377     C
C       0.1168   0.1168   0.2571     C
C       0.1168   0.1168   0.7429     C
C       0.1168   0.2429   0.3832     C
C       0.1168   0.2429   0.6168     C
C       0.1168   0.2571   0.1168     C
C       0.1168   0.2571   0.8832     C
C       0.1168   0.3832   0.2429     C
C       0.1168   0.3832   0.7571     C
C       0.1168   0.6168   0.2429     C
C       0.1168   0.6168   0.7571     C
C       0.1168   0.7429   0.1168     C
C       0.1168   0.7429   0.8832     C
C       0.1168   0.7571   0.3832     C
C       0.1168   0.7571   0.6168     C
C       0.1168   0.8832   0.2571     C
C       0.1168   0.8832   0.7429     C
C      0.12013  0.04084  0.17511     C
C      0.12013  0.04084  0.82489     C
C      0.12013  0.17511  0.04084     C
C      0.12013  0.17511  0.95916     C
C      0.12013  0.32489  0.45916     C
C      0.12013  0.32489  0.54084     C
C      0.12013  0.45916  0.32489     C
C      0.12013  0.45916  0.67511     C
C      0.12013  0.54084  0.32489     C
C      0.12013  0.54084  0.67511     C
C      0.12013  0.67511  0.45916     C
C      0.12013  0.67511  0.54084     C
C      0.12013  0.82489  0.04084     C
C      0.12013  0.82489  0.95916     C
C      0.12013  0.95916  0.17511     C
C      0.12013  0.95916  0.82489     C
Cu     0.12316   0.1762   0.3238    Cu
Cu     0.12316   0.1762   0.6762    Cu
Cu     0.12316   0.3238   0.1762    Cu
Cu     0.12316   0.3238   0.8238    Cu
Cu     0.12316   0.6762   0.1762    Cu
Cu     0.12316   0.6762   0.8238    Cu
Cu     0.12316   0.8238   0.3238    Cu
Cu     0.12316   0.8238   0.6762    Cu
N      0.12504   0.1452  0.29273     N
N      0.12504   0.1452  0.70727     N
N      0.12504  0.20727   0.3548     N
N      0.12504  0.20727   0.6452     N
N      0.12504  0.29273   0.1452     N
N      0.12504  0.29273   0.8548     N
N      0.12504   0.3548  0.20727     N
N      0.12504   0.3548  0.79273     N
N      0.12504   0.6452  0.20727     N
N      0.12504   0.6452  0.79273     N
N      0.12504  0.70727   0.1452     N
N      0.12504  0.70727   0.8548     N
N      0.12504  0.79273   0.3548     N
N      0.12504  0.79273   0.6452     N
N      0.12504   0.8548  0.29273     N
N      0.12504   0.8548  0.70727     N
Cu     0.12652      0.0  0.12652    Cu
Cu     0.12652      0.0  0.87348    Cu
Cu     0.12652  0.12652      0.0    Cu
Cu     0.12652  0.37348      0.5    Cu
Cu     0.12652      0.5  0.37348    Cu
Cu     0.12652      0.5  0.62652    Cu
Cu     0.12652  0.62652      0.5    Cu
Cu     0.12652  0.87348      0.0    Cu
H       0.1327   0.0692   0.2253     H
H       0.1327   0.0692   0.7747     H
H       0.1327   0.2253   0.0692     H
H       0.1327   0.2253   0.9308     H
H       0.1327   0.2747   0.4308     H
H       0.1327   0.2747   0.5692     H
H       0.1327   0.4308   0.2747     H
H       0.1327   0.4308   0.7253     H
H       0.1327   0.5692   0.2747     H
H       0.1327   0.5692   0.7253     H
H       0.1327   0.7253   0.4308     H
H       0.1327   0.7253   0.5692     H
H       0.1327   0.7747   0.0692     H
H       0.1327   0.7747   0.9308     H
H       0.1327   0.9308   0.2253     H
H       0.1327   0.9308   0.7747     H
O       0.1345   0.1098   0.3655     O
O       0.1345   0.1098   0.6345     O
O       0.1345   0.1345   0.3902     O
O       0.1345   0.1345   0.6098     O
O       0.1345   0.3655   0.1098     O
O       0.1345   0.3655   0.8902     O
O       0.1345   0.3902   0.1345     O
O       0.1345   0.3902   0.8655     O
O       0.1345   0.6098   0.1345     O
O       0.1345   0.6098   0.8655     O
O       0.1345   0.6345   0.1098     O
O       0.1345   0.6345   0.8902     O
O       0.1345   0.8655   0.3902     O
O       0.1345   0.8655   0.6098     O
O       0.1345   0.8902   0.3655     O
O       0.1345   0.8902   0.6345     O
N      0.14066  0.10595  0.27022     N
N      0.14066  0.10595  0.72978     N
N      0.14066  0.22978  0.39405     N
N      0.14066  0.22978  0.60595     N
N      0.14066  0.27022  0.10595     N
N      0.14066  0.27022  0.89405     N
N      0.14066  0.39405  0.22978     N
N      0.14066  0.39405  0.77022     N
N      0.14066  0.60595  0.22978     N
N      0.14066  0.60595  0.77022     N
N      0.14066  0.72978  0.10595     N
N      0.14066  0.72978  0.89405     N
N      0.14066  0.77022  0.39405     N
N      0.14066  0.77022  0.60595     N
N      0.14066  0.89405  0.27022     N
N      0.14066  0.89405  0.72978     N
O      0.14347  0.03101   0.1869     O
O      0.14347  0.03101   0.8131     O
O      0.14347   0.1869  0.03101     O
O      0.14347   0.1869  0.96899     O
O      0.14347   0.3131  0.46899     O
O      0.14347   0.3131  0.53101     O
O      0.14347  0.46899   0.3131     O
O      0.14347  0.46899   0.6869     O
O      0.14347  0.53101   0.3131     O
O      0.14347  0.53101   0.6869     O
O      0.14347   0.6869  0.46899     O
O      0.14347   0.6869  0.53101     O
O      0.14347   0.8131  0.03101     O
O      0.14347   0.8131  0.96899     O
O      0.14347  0.96899   0.1869     O
O      0.14347  0.96899   0.8131     O
N       0.1452  0.12504  0.29273     N
N       0.1452  0.12504  0.70727     N
N       0.1452  0.20727  0.37496     N
N       0.1452  0.20727  0.62504     N
N       0.1452  0.29273  0.12504     N
N       0.1452  0.29273  0.87496     N
N       0.1452  0.37496  0.20727     N
N       0.1452  0.37496  0.79273     N
N       0.1452  0.62504  0.20727     N
N       0.1452  0.62504  0.79273     N
N       0.1452  0.70727  0.12504     N
N       0.1452  0.70727  0.87496     N
N       0.1452  0.79273  0.37496     N
N       0.1452  0.79273  0.62504     N
N       0.1452  0.87496  0.29273     N
N       0.1452  0.87496  0.70727     N
O        0.151   0.0872    0.349     O
O        0.151   0.0872    0.651     O
O        0.151    0.151   0.4128     O
O        0.151    0.151   0.5872     O
O        0.151    0.349   0.0872     O
O        0.151    0.349   0.9128     O
O        0.151   0.4128    0.151     O
O        0.151   0.4128    0.849     O
O        0.151   0.5872    0.151     O
O        0.151   0.5872    0.849     O
O        0.151    0.651   0.0872     O
O        0.151    0.651   0.9128     O
O        0.151    0.849   0.4128     O
O        0.151    0.849   0.5872     O
O        0.151   0.9128    0.349     O
O        0.151   0.9128    0.651     O
O      0.15135  0.03108  0.10802     O
O      0.15135  0.03108  0.89198     O
O      0.15135  0.10802  0.03108     O
O      0.15135  0.10802  0.96892     O
O      0.15135  0.39198  0.46892     O
O      0.15135  0.39198  0.53108     O
O      0.15135  0.46892  0.39198     O
O      0.15135  0.46892  0.60802     O
O      0.15135  0.53108  0.39198     O
O      0.15135  0.53108  0.60802     O
O      0.15135  0.60802  0.46892     O
O      0.15135  0.60802  0.53108     O
O      0.15135  0.89198  0.03108     O
O      0.15135  0.89198  0.96892     O
O      0.15135  0.96892  0.10802     O
O      0.15135  0.96892  0.89198     O
H       0.1597   0.0721   0.0721     H
H       0.1597   0.0721   0.9279     H
H       0.1597   0.4279   0.4279     H
H       0.1597   0.4279   0.5721     H
H       0.1597   0.5721   0.4279     H
H       0.1597   0.5721   0.5721     H
H       0.1597   0.9279   0.0721     H
H       0.1597   0.9279   0.9279     H
O       0.1652   0.1652   0.3348     O
O       0.1652   0.1652   0.6652     O
O       0.1652   0.3348   0.1652     O
O       0.1652   0.3348   0.8348     O
O       0.1652   0.6652   0.1652     O
O       0.1652   0.6652   0.8348     O
O       0.1652   0.8348   0.3348     O
O       0.1652   0.8348   0.6652     O
Cu     0.16854      0.0  0.16854    Cu
Cu     0.16854      0.0  0.83146    Cu
Cu     0.16854  0.16854      0.0    Cu
Cu     0.16854  0.33146      0.5    Cu
Cu     0.16854      0.5  0.33146    Cu
Cu     0.16854      0.5  0.66854    Cu
Cu     0.16854  0.66854      0.5    Cu
Cu     0.16854  0.83146      0.0    Cu
C      0.17511  0.04084  0.12013     C
C      0.17511  0.04084  0.87987     C
C      0.17511  0.12013  0.04084     C
C      0.17511  0.12013  0.95916     C
C      0.17511  0.37987  0.45916     C
C      0.17511  0.37987  0.54084     C
C      0.17511  0.45916  0.37987     C
C      0.17511  0.45916  0.62013     C
C      0.17511  0.54084  0.37987     C
C      0.17511  0.54084  0.62013     C
C      0.17511  0.62013  0.45916     C
C      0.17511  0.62013  0.54084     C
C      0.17511  0.87987  0.04084     C
C      0.17511  0.87987  0.95916     C
C      0.17511  0.95916  0.12013     C
C      0.17511  0.95916  0.87987     C
Cu      0.1762  0.12316   0.3238    Cu
Cu      0.1762  0.12316   0.6762    Cu
Cu      0.1762   0.1762  0.37684    Cu
Cu      0.1762   0.1762  0.62316    Cu
Cu      0.1762   0.3238  0.12316    Cu
Cu      0.1762   0.3238  0.87684    Cu
Cu      0.1762  0.37684   0.1762    Cu
Cu      0.1762  0.37684   0.8238    Cu
Cu      0.1762  0.62316   0.1762    Cu
Cu      0.1762  0.62316   0.8238    Cu
Cu      0.1762   0.6762  0.12316    Cu
Cu      0.1762   0.6762  0.87684    Cu
Cu      0.1762   0.8238  0.37684    Cu
Cu      0.1762   0.8238  0.62316    Cu
Cu      0.1762  0.87684   0.3238    Cu
Cu      0.1762  0.87684   0.6762    Cu
C      0.17726  0.07999  0.07999     C
C      0.17726  0.07999  0.92001     C
C      0.17726  0.42001  0.42001     C
C      0.17726  0.42001  0.57999     C
C      0.17726  0.57999  0.42001     C
C      0.17726  0.57999  0.57999     C
C      0.17726  0.92001  0.07999     C
C      0.17726  0.92001  0.92001     C
O       0.1869  0.03101  0.14347     O
O       0.1869  0.03101  0.85653     O
O       0.1869  0.14347  0.03101     O
O       0.1869  0.14347  0.96899     O
O       0.1869  0.35653  0.46899     O
O       0.1869  0.35653  0.53101     O
O       0.1869  0.46899  0.35653     O
O       0.1869  0.46899  0.64347     O
O       0.1869  0.53101  0.35653     O
O       0.1869  0.53101  0.64347     O
O       0.1869  0.64347  0.46899     O
O       0.1869  0.64347  0.53101     O
O       0.1869  0.85653  0.03101     O
O       0.1869  0.85653  0.96899     O
O       0.1869  0.96899  0.14347     O
O       0.1869  0.96899  0.85653     O
O         0.19   0.0835     0.31     O
O         0.19   0.0835     0.69     O
O         0.19     0.19   0.4165     O
O         0.19     0.19   0.5835     O
O         0.19     0.31   0.0835     O
O         0.19     0.31   0.9165     O
O         0.19   0.4165     0.19     O
O         0.19   0.4165     0.81     O
O         0.19   0.5835     0.19     O
O         0.19   0.5835     0.81     O
O         0.19     0.69   0.0835     O
O         0.19     0.69   0.9165     O
O         0.19     0.81   0.4165     O
O         0.19     0.81   0.5835     O
O         0.19   0.9165     0.31     O
O         0.19   0.9165     0.69     O
C      0.19003  0.06677  0.10476     C
C      0.19003  0.06677  0.89524     C
C      0.19003  0.10476  0.06677     C
C      0.19003  0.10476  0.93323     C
C      0.19003  0.39524  0.43323     C
C      0.19003  0.39524  0.56677     C
C      0.19003  0.43323  0.39524     C
C      0.19003  0.43323  0.60476     C
C      0.19003  0.56677  0.39524     C
C      0.19003  0.56677  0.60476     C
C      0.19003  0.60476  0.43323     C
C      0.19003  0.60476  0.56677     C
C      0.19003  0.89524  0.06677     C
C      0.19003  0.89524  0.93323     C
C      0.19003  0.93323  0.10476     C
C      0.19003  0.93323  0.89524     C
O       0.2065   0.1014   0.2935     O
O       0.2065   0.1014   0.7065     O
O       0.2065   0.2065   0.3986     O
O       0.2065   0.2065   0.6014     O
O       0.2065   0.2935   0.1014     O
O       0.2065   0.2935   0.8986     O
O       0.2065   0.3986   0.2065     O
O       0.2065   0.3986   0.7935     O
O       0.2065   0.6014   0.2065     O
O       0.2065   0.6014   0.7935     O
O       0.2065   0.7065   0.1014     O
O       0.2065   0.7065   0.8986     O
O       0.2065   0.7935   0.3986     O
O       0.2065   0.7935   0.6014     O
O       0.2065   0.8986   0.2935     O
O       0.2065   0.8986   0.7065     O
N      0.20727  0.12504   0.3548     N
N      0.20727  0.12504   0.6452     N
N      0.20727   0.1452  0.37496     N
N      0.20727   0.1452  0.62504     N
N      0.20727   0.3548  0.12504     N
N      0.20727   0.3548  0.87496     N
N      0.20727  0.37496   0.1452     N
N      0.20727  0.37496   0.8548     N
N      0.20727  0.62504   0.1452     N
N      0.20727  0.62504   0.8548     N
N      0.20727   0.6452  0.12504     N
N      0.20727   0.6452  0.87496     N
N      0.20727   0.8548  0.37496     N
N      0.20727   0.8548  0.62504     N
N      0.20727  0.87496   0.3548     N
N      0.20727  0.87496   0.6452     N
C      0.21623  0.07836  0.11636     C
C      0.21623  0.07836  0.88364     C
C      0.21623  0.11636  0.07836     C
C      0.21623  0.11636  0.92164     C
C      0.21623  0.38364  0.42164     C
C      0.21623  0.38364  0.57836     C
C      0.21623  0.42164  0.38364     C
C      0.21623  0.42164  0.61636     C
C      0.21623  0.57836  0.38364     C
C      0.21623  0.57836  0.61636     C
C      0.21623  0.61636  0.42164     C
C      0.21623  0.61636  0.57836     C
C      0.21623  0.88364  0.07836     C
C      0.21623  0.88364  0.92164     C
C      0.21623  0.92164  0.11636     C
C      0.21623  0.92164  0.88364     C
H       0.2253   0.0692   0.1327     H
H       0.2253   0.0692   0.8673     H
H       0.2253   0.1327   0.0692     H
H       0.2253   0.1327   0.9308     H
H       0.2253   0.3673   0.4308     H
H       0.2253   0.3673   0.5692     H
H       0.2253   0.4308   0.3673     H
H       0.2253   0.4308   0.6327     H
H       0.2253   0.5692   0.3673     H
H       0.2253   0.5692   0.6327     H
H       0.2253   0.6327   0.4308     H
H       0.2253   0.6327   0.5692     H
H       0.2253   0.8673   0.0692     H
H       0.2253   0.8673   0.9308     H
H       0.2253   0.9308   0.1327     H
H       0.2253   0.9308   0.8673     H
C      0.22913  0.10368  0.10368     C
C      0.22913  0.10368  0.89632     C
C      0.22913  0.39632  0.39632     C
C      0.22913  0.39632  0.60368     C
C      0.22913  0.60368  0.39632     C
C      0.22913  0.60368  0.60368     C
C      0.22913  0.89632  0.10368     C
C      0.22913  0.89632  0.89632     C
N      0.22978  0.10595  0.35934     N
N      0.22978  0.10595  0.64066     N
N      0.22978  0.14066  0.39405     N
N      0.22978  0.14066  0.60595     N
N      0.22978  0.35934  0.10595     N
N      0.22978  0.35934  0.89405     N
N      0.22978  0.39405  0.14066     N
N      0.22978  0.39405  0.85934     N
N      0.22978  0.60595  0.14066     N
N      0.22978  0.60595  0.85934     N
N      0.22978  0.64066  0.10595     N
N      0.22978  0.64066  0.89405     N
N      0.22978  0.85934  0.39405     N
N      0.22978  0.85934  0.60595     N
N      0.22978  0.89405  0.35934     N
N      0.22978  0.89405  0.64066     N
C       0.2429   0.1168   0.3832     C
C       0.2429   0.1168   0.6168     C
C       0.2429   0.3832   0.1168     C
C       0.2429   0.3832   0.8832     C
C       0.2429   0.6168   0.1168     C
C       0.2429   0.6168   0.8832     C
C       0.2429   0.8832   0.3832     C
C       0.2429   0.8832   0.6168     C
C       0.2571   0.1168   0.1168     C
C       0.2571   0.1168   0.8832     C
C       0.2571   0.3832   0.3832     C
C       0.2571   0.3832   0.6168     C
C       0.2571   0.6168   0.3832     C
C       0.2571   0.6168   0.6168     C
C       0.2571   0.8832   0.1168     C
C       0.2571   0.8832   0.8832     C
N      0.27022  0.10595  0.14066     N
N      0.27022  0.10595  0.85934     N
N      0.27022  0.14066  0.10595     N
N      0.27022  0.14066  0.89405     N
N      0.27022  0.35934  0.39405     N
N      0.27022  0.35934  0.60595     N
N      0.27022  0.39405  0.35934     N
N      0.27022  0.39405  0.64066     N
N      0.27022  0.60595  0.35934     N
N      0.27022  0.60595  0.64066     N
N      0.27022  0.64066  0.39405     N
N      0.27022  0.64066  0.60595     N
N      0.27022  0.85934  0.10595     N
N      0.27022  0.85934  0.89405     N
N      0.27022  0.89405  0.14066     N
N      0.27022  0.89405  0.85934     N
C      0.27087  0.10368  0.39632     C
C      0.27087  0.10368  0.60368     C
C      0.27087  0.39632  0.10368     C
C      0.27087  0.39632  0.89632     C
C      0.27087  0.60368  0.10368     C
C      0.27087  0.60368  0.89632     C
C      0.27087  0.89632  0.39632     C
C      0.27087  0.89632  0.60368     C
H       0.2747   0.0692   0.3673     H
H       0.2747   0.0692   0.6327     H
H       0.2747   0.1327   0.4308     H
H       0.2747   0.1327   0.5692     H
H       0.2747   0.3673   0.0692     H
H       0.2747   0.3673   0.9308     H
H       0.2747   0.4308   0.1327     H
H       0.2747   0.4308   0.8673     H
H       0.2747   0.5692   0.1327     H
H       0.2747   0.5692   0.8673     H
H       0.2747   0.6327   0.0692     H
H       0.2747   0.6327   0.9308     H
H       0.2747   0.8673   0.4308     H
H       0.2747   0.8673   0.5692     H
H       0.2747   0.9308   0.3673     H
H       0.2747   0.9308   0.6327     H
C      0.28377  0.07836  0.38364     C
C      0.28377  0.07836  0.61636     C
C      0.28377  0.11636  0.42164     C
C      0.28377  0.11636  0.57836     C
C      0.28377  0.38364  0.07836     C
C      0.28377  0.38364  0.92164     C
C      0.28377  0.42164  0.11636     C
C      0.28377  0.42164  0.88364     C
C      0.28377  0.57836  0.11636     C
C      0.28377  0.57836  0.88364     C
C      0.28377  0.61636  0.07836     C
C      0.28377  0.61636  0.92164     C
C      0.28377  0.88364  0.42164     C
C      0.28377  0.88364  0.57836     C
C      0.28377  0.92164  0.38364     C
C      0.28377  0.92164  0.61636     C
N      0.29273  0.12504   0.1452     N
N      0.29273  0.12504   0.8548     N
N      0.29273   0.1452  0.12504     N
N      0.29273   0.1452  0.87496     N
N      0.29273   0.3548  0.37496     N
N      0.29273   0.3548  0.62504     N
N      0.29273  0.37496   0.3548     N
N      0.29273  0.37496   0.6452     N
N      0.29273  0.62504   0.3548     N
N      0.29273  0.62504   0.6452     N
N      0.29273   0.6452  0.37496     N
N      0.29273   0.6452  0.62504     N
N      0.29273   0.8548  0.12504     N
N      0.29273   0.8548  0.87496     N
N      0.29273  0.87496   0.1452     N
N      0.29273  0.87496   0.8548     N
O       0.2935   0.1014   0.2065     O
O       0.2935   0.1014   0.7935     O
O       0.2935   0.2065   0.1014     O
O       0.2935   0.2065   0.8986     O
O       0.2935   0.2935   0.3986     O
O       0.2935   0.2935   0.6014     O
O       0.2935   0.3986   0.2935     O
O       0.2935   0.3986   0.7065     O
O       0.2935   0.6014   0.2935     O
O       0.2935   0.6014   0.7065     O
O       0.2935   0.7065   0.3986     O
O       0.2935   0.7065   0.6014     O
O       0.2935   0.7935   0.1014     O
O       0.2935   0.7935   0.8986     O
O       0.2935   0.8986   0.2065     O
O       0.2935   0.8986   0.7935     O
C      0.30997  0.06677  0.39524     C
C      0.30997  0.06677  0.60476     C
C      0.30997  0.10476  0.43323     C
C      0.30997  0.10476  0.56677     C
C      0.30997  0.39524  0.06677     C
C      0.30997  0.39524  0.93323     C
C      0.30997  0.43323  0.10476     C
C      0.30997  0.43323  0.89524     C
C      0.30997  0.56677  0.10476     C
C      0.30997  0.56677  0.89524     C
C      0.30997  0.60476  0.06677     C
C      0.30997  0.60476  0.93323     C
C      0.30997  0.89524  0.43323     C
C      0.30997  0.89524  0.56677     C
C      0.30997  0.93323  0.39524     C
C      0.30997  0.93323  0.60476     C
O         0.31   0.0835     0.19     O
O         0.31   0.0835     0.81     O
O         0.31     0.19   0.0835     O
O         0.31     0.19   0.9165     O
O         0.31     0.31   0.4165     O
O         0.31     0.31   0.5835     O
O         0.31   0.4165     0.31     O
O         0.31   0.4165     0.69     O
O         0.31   0.5835     0.31     O
O         0.31   0.5835     0.69     O
O         0.31     0.69   0.4165     O
O         0.31     0.69   0.5835     O
O         0.31     0.81   0.0835     O
O         0.31     0.81   0.9165     O
O         0.31   0.9165     0.19     O
O         0.31   0.9165     0.81     O
O       0.3131  0.03101  0.35653     O
O       0.3131  0.03101  0.64347     O
O       0.3131  0.14347  0.46899     O
O       0.3131  0.14347  0.53101     O
O       0.3131  0.35653  0.03101     O
O       0.3131  0.35653  0.96899     O
O       0.3131  0.46899  0.14347     O
O       0.3131  0.46899  0.85653     O
O       0.3131  0.53101  0.14347     O
O       0.3131  0.53101  0.85653     O
O       0.3131  0.64347  0.03101     O
O       0.3131  0.64347  0.96899     O
O       0.3131  0.85653  0.46899     O
O       0.3131  0.85653  0.53101     O
O       0.3131  0.96899  0.35653     O
O       0.3131  0.96899  0.64347     O
C      0.32274  0.07999  0.42001     C
C      0.32274  0.07999  0.57999     C
C      0.32274  0.42001  0.07999     C
C      0.32274  0.42001  0.92001     C
C      0.32274  0.57999  0.07999     C
C      0.32274  0.57999  0.92001     C
C      0.32274  0.92001  0.42001     C
C      0.32274  0.92001  0.57999     C
Cu      0.3238  0.12316   0.1762    Cu
Cu      0.3238  0.12316   0.8238    Cu
Cu      0.3238   0.1762  0.12316    Cu
Cu      0.3238   0.1762  0.87684    Cu
Cu      0.3238   0.3238  0.37684    Cu
Cu      0.3238   0.3238  0.62316    Cu
Cu      0.3238  0.37684   0.3238    Cu
Cu      0.3238  0.37684   0.6762    Cu
Cu      0.3238  0.62316   0.3238    Cu
Cu      0.3238  0.62316   0.6762    Cu
Cu      0.3238   0.6762  0.37684    Cu
Cu      0.3238   0.6762  0.62316    Cu
Cu      0.3238   0.8238  0.12316    Cu
Cu      0.3238   0.8238  0.87684    Cu
Cu      0.3238  0.87684   0.1762    Cu
Cu      0.3238  0.87684   0.8238    Cu
C      0.32489  0.04084  0.37987     C
C      0.32489  0.04084  0.62013     C
C      0.32489  0.12013  0.45916     C
C      0.32489  0.12013  0.54084     C
C      0.32489  0.37987  0.04084     C
C      0.32489  0.37987  0.95916     C
C      0.32489  0.45916  0.12013     C
C      0.32489  0.45916  0.87987     C
C      0.32489  0.54084  0.12013     C
C      0.32489  0.54084  0.87987     C
C      0.32489  0.62013  0.04084     C
C      0.32489  0.62013  0.95916     C
C      0.32489  0.87987  0.45916     C
C      0.32489  0.87987  0.54084     C
C      0.32489  0.95916  0.37987     C
C      0.32489  0.95916  0.62013     C
Cu     0.33146      0.0  0.33146    Cu
Cu     0.33146      0.0  0.66854    Cu
Cu     0.33146  0.16854      0.5    Cu
Cu     0.33146  0.33146      0.0    Cu
Cu     0.33146      0.5  0.16854    Cu
Cu     0.33146      0.5  0.83146    Cu
Cu     0.33146  0.66854      0.0    Cu
Cu     0.33146  0.83146      0.5    Cu
O       0.3348   0.1652   0.1652     O
O       0.3348   0.1652   0.8348     O
O       0.3348   0.3348   0.3348     O
O       0.3348   0.3348   0.6652     O
O       0.3348   0.6652   0.3348     O
O       0.3348   0.6652   0.6652     O
O       0.3348   0.8348   0.1652     O
O       0.3348   0.8348   0.8348     O
H       0.3403   0.0721   0.4279     H
H       0.3403   0.0721   0.5721     H
H       0.3403   0.4279   0.0721     H
H       0.3403   0.4279   0.9279     H
H       0.3403   0.5721   0.0721     H
H       0.3403   0.5721   0.9279     H
H       0.3403   0.9279   0.4279     H
H       0.3403   0.9279   0.5721     H
O      0.34865  0.03108  0.39198     O
O      0.34865  0.03108  0.60802     O
O      0.34865  0.10802  0.46892     O
O      0.34865  0.10802  0.53108     O
O      0.34865  0.39198  0.03108     O
O      0.34865  0.39198  0.96892     O
O      0.34865  0.46892  0.10802     O
O      0.34865  0.46892  0.89198     O
O      0.34865  0.53108  0.10802     O
O      0.34865  0.53108  0.89198     O
O      0.34865  0.60802  0.03108     O
O      0.34865  0.60802  0.96892     O
O      0.34865  0.89198  0.46892     O
O      0.34865  0.89198  0.53108     O
O      0.34865  0.96892  0.39198     O
O      0.34865  0.96892  0.60802     O
O        0.349   0.0872    0.151     O
O        0.349   0.0872    0.849     O
O        0.349    0.151   0.0872     O
O        0.349    0.151   0.9128     O
O        0.349    0.349   0.4128     O
O        0.349    0.349   0.5872     O
O        0.349   0.4128    0.349     O
O        0.349   0.4128    0.651     O
O        0.349   0.5872    0.349     O
O        0.349   0.5872    0.651     O
O        0.349    0.651   0.4128     O
O        0.349    0.651   0.5872     O
O        0.349    0.849   0.0872     O
O        0.349    0.849   0.9128     O
O        0.349   0.9128    0.151     O
O        0.349   0.9128    0.849     O
N       0.3548  0.12504  0.20727     N
N       0.3548  0.12504  0.79273     N
N       0.3548  0.20727  0.12504     N
N       0.3548  0.20727  0.87496     N
N       0.3548  0.29273  0.37496     N
N       0.3548  0.29273  0.62504     N
N       0.3548  0.37496  0.29273     N
N       0.3548  0.37496  0.70727     N
N       0.3548  0.62504  0.29273     N
N       0.3548  0.62504  0.70727     N
N       0.3548  0.70727  0.37496     N
N       0.3548  0.70727  0.62504     N
N       0.3548  0.79273  0.12504     N
N       0.3548  0.79273  0.87496     N
N       0.3548  0.87496  0.20727     N
N       0.3548  0.87496  0.79273     N
O      0.35653  0.03101   0.3131     O
O      0.35653  0.03101   0.6869     O
O      0.35653   0.1869  0.46899     O
O      0.35653   0.1869  0.53101     O
O      0.35653   0.3131  0.03101     O
O      0.35653   0.3131  0.96899     O
O      0.35653  0.46899   0.1869     O
O      0.35653  0.46899   0.8131     O
O      0.35653  0.53101   0.1869     O
O      0.35653  0.53101   0.8131     O
O      0.35653   0.6869  0.03101     O
O      0.35653   0.6869  0.96899     O
O      0.35653   0.8131  0.46899     O
O      0.35653   0.8131  0.53101     O
O      0.35653  0.96899   0.3131     O
O      0.35653  0.96899   0.6869     O
N      0.35934  0.10595  0.22978     N
N      0.35934  0.10595  0.77022     N
N      0.35934  0.22978  0.10595     N
N      0.35934  0.22978  0.89405     N
N      0.35934  0.27022  0.39405     N
N      0.35934  0.27022  0.60595     N
N      0.35934  0.39405  0.27022     N
N      0.35934  0.39405  0.72978     N
N      0.35934  0.60595  0.27022     N
N      0.35934  0.60595  0.72978     N
N      0.35934  0.72978  0.39405     N
N      0.35934  0.72978  0.60595     N
N      0.35934  0.77022  0.10595     N
N      0.35934  0.77022  0.89405     N
N      0.35934  0.89405  0.22978     N
N      0.35934  0.89405  0.77022     N
O       0.3655   0.1098   0.1345     O
O       0.3655   0.1098   0.8655     O
O       0.3655   0.1345   0.1098     O
O       0.3655   0.1345   0.8902     O
O       0.3655   0.3655   0.3902     O
O       0.3655   0.3655   0.6098     O
O       0.3655   0.3902   0.3655     O
O       0.3655   0.3902   0.6345     O
O       0.3655   0.6098   0.3655     O
O       0.3655   0.6098   0.6345     O
O       0.3655   0.6345   0.3902     O
O       0.3655   0.6345   0.6098     O
O       0.3655   0.8655   0.1098     O
O       0.3655   0.8655   0.8902     O
O       0.3655   0.8902   0.1345     O
O       0.3655   0.8902   0.8655     O
H       0.3673   0.0692   0.2747     H
H       0.3673   0.0692   0.7253     H
H       0.3673   0.2253   0.4308     H
H       0.3673   0.2253   0.5692     H
H       0.3673   0.2747   0.0692     H
H       0.3673   0.2747   0.9308     H
H       0.3673   0.4308   0.2253     H
H       0.3673   0.4308   0.7747     H
H       0.3673   0.5692   0.2253     H
H       0.3673   0.5692   0.7747     H
H       0.3673   0.7253   0.0692     H
H       0.3673   0.7253   0.9308     H
H       0.3673   0.7747   0.4308     H
H       0.3673   0.7747   0.5692     H
H       0.3673   0.9308   0.2747     H
H       0.3673   0.9308   0.7253     H
Cu     0.37348      0.0  0.37348    Cu
Cu     0.37348      0.0  0.62652    Cu
Cu     0.37348  0.12652      0.5    Cu
Cu     0.37348  0.37348      0.0    Cu
Cu     0.37348      0.5  0.12652    Cu
Cu     0.37348      0.5  0.87348    Cu
Cu     0.37348  0.62652      0.0    Cu
Cu     0.37348  0.87348      0.5    Cu
N      0.37496   0.1452  0.20727     N
N      0.37496   0.1452  0.79273     N
N      0.37496  0.20727   0.1452     N
N      0.37496  0.20727   0.8548     N
N      0.37496  0.29273   0.3548     N
N      0.37496  0.29273   0.6452     N
N      0.37496   0.3548  0.29273     N
N      0.37496   0.3548  0.70727     N
N      0.37496   0.6452  0.29273     N
N      0.37496   0.6452  0.70727     N
N      0.37496  0.70727   0.3548     N
N      0.37496  0.70727   0.6452     N
N      0.37496  0.79273   0.1452     N
N      0.37496  0.79273   0.8548     N
N      0.37496   0.8548  0.20727     N
N      0.37496   0.8548  0.79273     N
Cu     0.37684   0.1762   0.1762    Cu
Cu     0.37684   0.1762   0.8238    Cu
Cu     0.37684   0.3238   0.3238    Cu
Cu     0.37684   0.3238   0.6762    Cu
Cu     0.37684   0.6762   0.3238    Cu
Cu     0.37684   0.6762   0.6762    Cu
Cu     0.37684   0.8238   0.1762    Cu
Cu     0.37684   0.8238   0.8238    Cu
C      0.37987  0.04084  0.32489     C
C      0.37987  0.04084  0.67511     C
C      0.37987  0.17511  0.45916     C
C      0.37987  0.17511  0.54084     C
C      0.37987  0.32489  0.04084     C
C      0.37987  0.32489  0.95916     C
C      0.37987  0.45916  0.17511     C
C      0.37987  0.45916  0.82489     C
C      0.37987  0.54084  0.17511     C
C      0.37987  0.54084  0.82489     C
C      0.37987  0.67511  0.04084     C
C      0.37987  0.67511  0.95916     C
C      0.37987  0.82489  0.45916     C
C      0.37987  0.82489  0.54084     C
C      0.37987  0.95916  0.32489     C
C      0.37987  0.95916  0.67511     C
C       0.3832   0.1168   0.2429     C
C       0.3832   0.1168   0.7571     C
C       0.3832   0.2429   0.1168     C
C       0.3832   0.2429   0.8832     C
C       0.3832   0.2571   0.3832     C
C       0.3832   0.2571   0.6168     C
C       0.3832   0.3832   0.2571     C
C       0.3832   0.3832   0.7429     C
C       0.3832   0.6168   0.2571     C
C       0.3832   0.6168   0.7429     C
C       0.3832   0.7429   0.3832     C
C       0.3832   0.7429   0.6168     C
C       0.3832   0.7571   0.1168     C
C       0.3832   0.7571   0.8832     C
C       0.3832   0.8832   0.2429     C
C       0.3832   0.8832   0.7571     C
C      0.38364  0.07836  0.28377     C
C      0.38364  0.07836  0.71623     C
C      0.38364  0.21623  0.42164     C
C      0.38364  0.21623  0.57836     C
C      0.38364  0.28377  0.07836     C
C      0.38364  0.28377  0.92164     C
C      0.38364  0.42164  0.21623     C
C      0.38364  0.42164  0.78377     C
C      0.38364  0.57836  0.21623     C
C      0.38364  0.57836  0.78377     C
C      0.38364  0.71623  0.07836     C
C      0.38364  0.71623  0.92164     C
C      0.38364  0.78377  0.42164     C
C      0.38364  0.78377  0.57836     C
C      0.38364  0.92164  0.28377     C
C      0.38364  0.92164  0.71623     C
O       0.3902   0.1345   0.1345     O
O       0.3902   0.1345   0.8655     O
O       0.3902   0.3655   0.3655     O
O       0.3902   0.3655   0.6345     O
O       0.3902   0.6345   0.3655     O
O       0.3902   0.6345   0.6345     O
O       0.3902   0.8655   0.1345     O
O       0.3902   0.8655   0.8655     O
O      0.39198  0.03108  0.34865     O
O      0.39198  0.03108  0.65135     O
O      0.39198  0.15135  0.46892     O
O      0.39198  0.15135  0.53108     O
O      0.39198  0.34865  0.03108     O
O      0.39198  0.34865  0.96892     O
O      0.39198  0.46892  0.15135     O
O      0.39198  0.46892  0.84865     O
O      0.39198  0.53108  0.15135     O
O      0.39198  0.53108  0.84865     O
O      0.39198  0.65135  0.03108     O
O      0.39198  0.65135  0.96892     O
O      0.39198  0.84865  0.46892     O
O      0.39198  0.84865  0.53108     O
O      0.39198  0.96892  0.34865     O
O      0.39198  0.96892  0.65135     O
N      0.39405  0.14066  0.22978     N
N      0.39405  0.14066  0.77022     N
N      0.39405  0.22978  0.14066     N
N      0.39405  0.22978  0.85934     N
N      0.39405  0.27022  0.35934     N
N      0.39405  0.27022  0.64066     N
N      0.39405  0.35934  0.27022     N
N      0.39405  0.35934  0.72978     N
N      0.39405  0.64066  0.27022     N
N      0.39405  0.64066  0.72978     N
N      0.39405  0.72978  0.35934     N
N      0.39405  0.72978  0.64066     N
N      0.39405  0.77022  0.14066     N
N      0.39405  0.77022  0.85934     N
N      0.39405  0.85934  0.22978     N
N      0.39405  0.85934  0.77022     N
C      0.39524  0.06677  0.30997     C
C      0.39524  0.06677  0.69003     C
C      0.39524  0.19003  0.43323     C
C      0.39524  0.19003  0.56677     C
C      0.39524  0.30997  0.06677     C
C      0.39524  0.30997  0.93323     C
C      0.39524  0.43323  0.19003     C
C      0.39524  0.43323  0.80997     C
C      0.39524  0.56677  0.19003     C
C      0.39524  0.56677  0.80997     C
C      0.39524  0.69003  0.06677     C
C      0.39524  0.69003  0.93323     C
C      0.39524  0.80997  0.43323     C
C      0.39524  0.80997  0.56677     C
C      0.39524  0.93323  0.30997     C
C      0.39524  0.93323  0.69003     C
C      0.39632  0.10368  0.27087     C
C      0.39632  0.10368  0.72913     C
C      0.39632  0.22913  0.39632     C
C      0.39632  0.22913  0.60368     C
C      0.39632  0.27087  0.10368     C
C      0.39632  0.27087  0.89632     C
C      0.39632  0.39632  0.22913     C
C      0.39632  0.39632  0.77087     C
C      0.39632  0.60368  0.22913     C
C      0.39632  0.60368  0.77087     C
C      0.39632  0.72913  0.10368     C
C      0.39632  0.72913  0.89632     C
C      0.39632  0.77087  0.39632     C
C      0.39632  0.77087  0.60368     C
C      0.39632  0.89632  0.27087     C
C      0.39632  0.89632  0.72913     C
O       0.3986   0.2065   0.2065     O
O       0.3986   0.2065   0.7935     O
O       0.3986   0.2935   0.2935     O
O       0.3986   0.2935   0.7065     O
O       0.3986   0.7065   0.2935     O
O       0.3986   0.7065   0.7065     O
O       0.3986   0.7935   0.2065     O
O       0.3986   0.7935   0.7935     O
O       0.4128    0.151    0.151     O
O       0.4128    0.151    0.849     O
O       0.4128    0.349    0.349     O
O       0.4128    0.349    0.651     O
O       0.4128    0.651    0.349     O
O       0.4128    0.651    0.651     O
O       0.4128    0.849    0.151     O
O       0.4128    0.849    0.849     O
O       0.4165     0.19     0.19     O
O       0.4165     0.19     0.81     O
O       0.4165     0.31     0.31     O
O       0.4165     0.31     0.69     O
O       0.4165     0.69     0.31     O
O       0.4165     0.69     0.69     O
O       0.4165     0.81     0.19     O
O       0.4165     0.81     0.81     O
C      0.42001  0.07999  0.32274     C
C      0.42001  0.07999  0.67726     C
C      0.42001  0.17726  0.42001     C
C      0.42001  0.17726  0.57999     C
C      0.42001  0.32274  0.07999     C
C      0.42001  0.32274  0.92001     C
C      0.42001  0.42001  0.17726     C
C      0.42001  0.42001  0.82274     C
C      0.42001  0.57999  0.17726     C
C      0.42001  0.57999  0.82274     C
C      0.42001  0.67726  0.07999     C
C      0.42001  0.67726  0.92001     C
C      0.42001  0.82274  0.42001     C
C      0.42001  0.82274  0.57999     C
C      0.42001  0.92001  0.32274     C
C      0.42001  0.92001  0.67726     C
C      0.42164  0.11636  0.28377     C
C      0.42164  0.11636  0.71623     C
C      0.42164  0.21623  0.38364     C
C      0.42164  0.21623  0.61636     C
C      0.42164  0.28377  0.11636     C
C      0.42164  0.28377  0.88364     C
C      0.42164  0.38364  0.21623     C
C      0.42164  0.38364  0.78377     C
C      0.42164  0.61636  0.21623     C
C      0.42164  0.61636  0.78377     C
C      0.42164  0.71623  0.11636     C
C      0.42164  0.71623  0.88364     C
C      0.42164  0.78377  0.38364     C
C      0.42164  0.78377  0.61636     C
C      0.42164  0.88364  0.28377     C
C      0.42164  0.88364  0.71623     C
H       0.4279   0.0721   0.3403     H
H       0.4279   0.0721   0.6597     H
H       0.4279   0.1597   0.4279     H
H       0.4279   0.1597   0.5721     H
H       0.4279   0.3403   0.0721     H
H       0.4279   0.3403   0.9279     H
H       0.4279   0.4279   0.1597     H
H       0.4279   0.4279   0.8403     H
H       0.4279   0.5721   0.1597     H
H       0.4279   0.5721   0.8403     H
H       0.4279   0.6597   0.0721     H
H       0.4279   0.6597   0.9279     H
H       0.4279   0.8403   0.4279     H
H       0.4279   0.8403   0.5721     H
H       0.4279   0.9279   0.3403     H
H       0.4279   0.9279   0.6597     H
H       0.4308   0.1327   0.2747     H
H       0.4308   0.1327   0.7253     H
H       0.4308   0.2253   0.3673     H
H       0.4308   0.2253   0.6327     H
H       0.4308   0.2747   0.1327     H
H       0.4308   0.2747   0.8673     H
H       0.4308   0.3673   0.2253     H
H       0.4308   0.3673   0.7747     H
H       0.4308   0.6327   0.2253     H
H       0.4308   0.6327   0.7747     H
H       0.4308   0.7253   0.1327     H
H       0.4308   0.7253   0.8673     H
H       0.4308   0.7747   0.3673     H
H       0.4308   0.7747   0.6327     H
H       0.4308   0.8673   0.2747     H
H       0.4308   0.8673   0.7253     H
C      0.43323  0.10476  0.30997     C
C      0.43323  0.10476  0.69003     C
C      0.43323  0.19003  0.39524     C
C      0.43323  0.19003  0.60476     C
C      0.43323  0.30997  0.10476     C
C      0.43323  0.30997  0.89524     C
C      0.43323  0.39524  0.19003     C
C      0.43323  0.39524  0.80997     C
C      0.43323  0.60476  0.19003     C
C      0.43323  0.60476  0.80997     C
C      0.43323  0.69003  0.10476     C
C      0.43323  0.69003  0.89524     C
C      0.43323  0.80997  0.39524     C
C      0.43323  0.80997  0.60476     C
C      0.43323  0.89524  0.30997     C
C      0.43323  0.89524  0.69003     C
C      0.45916  0.12013  0.32489     C
C      0.45916  0.12013  0.67511     C
C      0.45916  0.17511  0.37987     C
C      0.45916  0.17511  0.62013     C
C      0.45916  0.32489  0.12013     C
C      0.45916  0.32489  0.87987     C
C      0.45916  0.37987  0.17511     C
C      0.45916  0.37987  0.82489     C
C      0.45916  0.62013  0.17511     C
C      0.45916  0.62013  0.82489     C
C      0.45916  0.67511  0.12013     C
C      0.45916  0.67511  0.87987     C
C      0.45916  0.82489  0.37987     C
C      0.45916  0.82489  0.62013     C
C      0.45916  0.87987  0.32489     C
C      0.45916  0.87987  0.67511     C
O      0.46892  0.10802  0.34865     O
O      0.46892  0.10802  0.65135     O
O      0.46892  0.15135  0.39198     O
O      0.46892  0.15135  0.60802     O
O      0.46892  0.34865  0.10802     O
O      0.46892  0.34865  0.89198     O
O      0.46892  0.39198  0.15135     O
O      0.46892  0.39198  0.84865     O
O      0.46892  0.60802  0.15135     O
O      0.46892  0.60802  0.84865     O
O      0.46892  0.65135  0.10802     O
O      0.46892  0.65135  0.89198     O
O      0.46892  0.84865  0.39198     O
O      0.46892  0.84865  0.60802     O
O      0.46892  0.89198  0.34865     O
O      0.46892  0.89198  0.65135     O
O      0.46899  0.14347   0.3131     O
O      0.46899  0.14347   0.6869     O
O      0.46899   0.1869  0.35653     O
O      0.46899   0.1869  0.64347     O
O      0.46899   0.3131  0.14347     O
O      0.46899   0.3131  0.85653     O
O      0.46899  0.35653   0.1869     O
O      0.46899  0.35653   0.8131     O
O      0.46899  0.64347   0.1869     O
O      0.46899  0.64347   0.8131     O
O      0.46899   0.6869  0.14347     O
O      0.46899   0.6869  0.85653     O
O      0.46899   0.8131  0.35653     O
O      0.46899   0.8131  0.64347     O
O      0.46899  0.85653   0.3131     O
O      0.46899  0.85653   0.6869     O
Cu         0.5  0.12652  0.37348    Cu
Cu         0.5  0.12652  0.62652    Cu
Cu         0.5  0.16854  0.33146    Cu
Cu         0.5  0.16854  0.66854    Cu
Cu         0.5  0.33146  0.16854    Cu
Cu         0.5  0.33146  0.83146    Cu
Cu         0.5  0.37348  0.12652    Cu
Cu         0.5  0.37348  0.87348    Cu
Cu         0.5  0.62652  0.12652    Cu
Cu         0.5  0.62652  0.87348    Cu
Cu         0.5  0.66854  0.16854    Cu
Cu         0.5  0.66854  0.83146    Cu
Cu         0.5  0.83146  0.33146    Cu
Cu         0.5  0.83146  0.66854    Cu
Cu         0.5  0.87348  0.37348    Cu
Cu         0.5  0.87348  0.62652    Cu
O      0.53101  0.14347   0.3131     O
O      0.53101  0.14347   0.6869     O
O      0.53101   0.1869  0.35653     O
O      0.53101   0.1869  0.64347     O
O      0.53101   0.3131  0.14347     O
O      0.53101   0.3131  0.85653     O
O      0.53101  0.35653   0.1869     O
O      0.53101  0.35653   0.8131     O
O      0.53101  0.64347   0.1869     O
O      0.53101  0.64347   0.8131     O
O      0.53101   0.6869  0.14347     O
O      0.53101   0.6869  0.85653     O
O      0.53101   0.8131  0.35653     O
O      0.53101   0.8131  0.64347     O
O      0.53101  0.85653   0.3131     O
O      0.53101  0.85653   0.6869     O
O      0.53108  0.10802  0.34865     O
O      0.53108  0.10802  0.65135     O
O      0.53108  0.15135  0.39198     O
O      0.53108  0.15135  0.60802     O
O      0.53108  0.34865  0.10802     O
O      0.53108  0.34865  0.89198     O
O      0.53108  0.39198  0.15135     O
O      0.53108  0.39198  0.84865     O
O      0.53108  0.60802  0.15135     O
O      0.53108  0.60802  0.84865     O
O      0.53108  0.65135  0.10802     O
O      0.53108  0.65135  0.89198     O
O      0.53108  0.84865  0.39198     O
O      0.53108  0.84865  0.60802     O
O      0.53108  0.89198  0.34865     O
O      0.53108  0.89198  0.65135     O
C      0.54084  0.12013  0.32489     C
C      0.54084  0.12013  0.67511     C
C      0.54084  0.17511  0.37987     C
C      0.54084  0.17511  0.62013     C
C      0.54084  0.32489  0.12013     C
C      0.54084  0.32489  0.87987     C
C      0.54084  0.37987  0.17511     C
C      0.54084  0.37987  0.82489     C
C      0.54084  0.62013  0.17511     C
C      0.54084  0.62013  0.82489     C
C      0.54084  0.67511  0.12013     C
C      0.54084  0.67511  0.87987     C
C      0.54084  0.82489  0.37987     C
C      0.54084  0.82489  0.62013     C
C      0.54084  0.87987  0.32489     C
C      0.54084  0.87987  0.67511     C
C      0.56677  0.10476  0.30997     C
C      0.56677  0.10476  0.69003     C
C      0.56677  0.19003  0.39524     C
C      0.56677  0.19003  0.60476     C
C      0.56677  0.30997  0.10476     C
C      0.56677  0.30997  0.89524     C
C      0.56677  0.39524  0.19003     C
C      0.56677  0.39524  0.80997     C
C      0.56677  0.60476  0.19003     C
C      0.56677  0.60476  0.80997     C
C      0.56677  0.69003  0.10476     C
C      0.56677  0.69003  0.89524     C
C      0.56677  0.80997  0.39524     C
C      0.56677  0.80997  0.60476     C
C      0.56677  0.89524  0.30997     C
C      0.56677  0.89524  0.69003     C
H       0.5692   0.1327   0.2747     H
H       0.5692   0.1327   0.7253     H
H       0.5692   0.2253   0.3673     H
H       0.5692   0.2253   0.6327     H
H       0.5692   0.2747   0.1327     H
H       0.5692   0.2747   0.8673     H
H       0.5692   0.3673   0.2253     H
H       0.5692   0.3673   0.7747     H
H       0.5692   0.6327   0.2253     H
H       0.5692   0.6327   0.7747     H
H       0.5692   0.7253   0.1327     H
H       0.5692   0.7253   0.8673     H
H       0.5692   0.7747   0.3673     H
H       0.5692   0.7747   0.6327     H
H       0.5692   0.8673   0.2747     H
H       0.5692   0.8673   0.7253     H
H       0.5721   0.0721   0.3403     H
H       0.5721   0.0721   0.6597     H
H       0.5721   0.1597   0.4279     H
H       0.5721   0.1597   0.5721     H
H       0.5721   0.3403   0.0721     H
H       0.5721   0.3403   0.9279     H
H       0.5721   0.4279   0.1597     H
H       0.5721   0.4279   0.8403     H
H       0.5721   0.5721   0.1597     H
H       0.5721   0.5721   0.8403     H
H       0.5721   0.6597   0.0721     H
H       0.5721   0.6597   0.9279     H
H       0.5721   0.8403   0.4279     H
H       0.5721   0.8403   0.5721     H
H       0.5721   0.9279   0.3403     H
H       0.5721   0.9279   0.6597     H
C      0.57836  0.11636  0.28377     C
C      0.57836  0.11636  0.71623     C
C      0.57836  0.21623  0.38364     C
C      0.57836  0.21623  0.61636     C
C      0.57836  0.28377  0.11636     C
C      0.57836  0.28377  0.88364     C
C      0.57836  0.38364  0.21623     C
C      0.57836  0.38364  0.78377     C
C      0.57836  0.61636  0.21623     C
C      0.57836  0.61636  0.78377     C
C      0.57836  0.71623  0.11636     C
C      0.57836  0.71623  0.88364     C
C      0.57836  0.78377  0.38364     C
C      0.57836  0.78377  0.61636     C
C      0.57836  0.88364  0.28377     C
C      0.57836  0.88364  0.71623     C
C      0.57999  0.07999  0.32274     C
C      0.57999  0.07999  0.67726     C
C      0.57999  0.17726  0.42001     C
C      0.57999  0.17726  0.57999     C
C      0.57999  0.32274  0.07999     C
C      0.57999  0.32274  0.92001     C
C      0.57999  0.42001  0.17726     C
C      0.57999  0.42001  0.82274     C
C      0.57999  0.57999  0.17726     C
C      0.57999  0.57999  0.82274     C
C      0.57999  0.67726  0.07999     C
C      0.57999  0.67726  0.92001     C
C      0.57999  0.82274  0.42001     C
C      0.57999  0.82274  0.57999     C
C      0.57999  0.92001  0.32274     C
C      0.57999  0.92001  0.67726     C
O       0.5835     0.19     0.19     O
O       0.5835     0.19     0.81     O
O       0.5835     0.31     0.31     O
O       0.5835     0.31     0.69     O
O       0.5835     0.69     0.31     O
O       0.5835     0.69     0.69     O
O       0.5835     0.81     0.19     O
O       0.5835     0.81     0.81     O
O       0.5872    0.151    0.151     O
O       0.5872    0.151    0.849     O
O       0.5872    0.349    0.349     O
O       0.5872    0.349    0.651     O
O       0.5872    0.651    0.349     O
O       0.5872    0.651    0.651     O
O       0.5872    0.849    0.151     O
O       0.5872    0.849    0.849     O
O       0.6014   0.2065   0.2065     O
O       0.6014   0.2065   0.7935     O
O       0.6014   0.2935   0.2935     O
O       0.6014   0.2935   0.7065     O
O       0.6014   0.7065   0.2935     O
O       0.6014   0.7065   0.7065     O
O       0.6014   0.7935   0.2065     O
O       0.6014   0.7935   0.7935     O
C      0.60368  0.10368  0.27087     C
C      0.60368  0.10368  0.72913     C
C      0.60368  0.22913  0.39632     C
C      0.60368  0.22913  0.60368     C
C      0.60368  0.27087  0.10368     C
C      0.60368  0.27087  0.89632     C
C      0.60368  0.39632  0.22913     C
C      0.60368  0.39632  0.77087     C
C      0.60368  0.60368  0.22913     C
C      0.60368  0.60368  0.77087     C
C      0.60368  0.72913  0.10368     C
C      0.60368  0.72913  0.89632     C
C      0.60368  0.77087  0.39632     C
C      0.60368  0.77087  0.60368     C
C      0.60368  0.89632  0.27087     C
C      0.60368  0.89632  0.72913     C
C      0.60476  0.06677  0.30997     C
C      0.60476  0.06677  0.69003     C
C      0.60476  0.19003  0.43323     C
C      0.60476  0.19003  0.56677     C
C      0.60476  0.30997  0.06677     C
C      0.60476  0.30997  0.93323     C
C      0.60476  0.43323  0.19003     C
C      0.60476  0.43323  0.80997     C
C      0.60476  0.56677  0.19003     C
C      0.60476  0.56677  0.80997     C
C      0.60476  0.69003  0.06677     C
C      0.60476  0.69003  0.93323     C
C      0.60476  0.80997  0.43323     C
C      0.60476  0.80997  0.56677     C
C      0.60476  0.93323  0.30997     C
C      0.60476  0.93323  0.69003     C
N      0.60595  0.14066  0.22978     N
N      0.60595  0.14066  0.77022     N
N      0.60595  0.22978  0.14066     N
N      0.60595  0.22978  0.85934     N
N      0.60595  0.27022  0.35934     N
N      0.60595  0.27022  0.64066     N
N      0.60595  0.35934  0.27022     N
N      0.60595  0.35934  0.72978     N
N      0.60595  0.64066  0.27022     N
N      0.60595  0.64066  0.72978     N
N      0.60595  0.72978  0.35934     N
N      0.60595  0.72978  0.64066     N
N      0.60595  0.77022  0.14066     N
N      0.60595  0.77022  0.85934     N
N      0.60595  0.85934  0.22978     N
N      0.60595  0.85934  0.77022     N
O      0.60802  0.03108  0.34865     O
O      0.60802  0.03108  0.65135     O
O      0.60802  0.15135  0.46892     O
O      0.60802  0.15135  0.53108     O
O      0.60802  0.34865  0.03108     O
O      0.60802  0.34865  0.96892     O
O      0.60802  0.46892  0.15135     O
O      0.60802  0.46892  0.84865     O
O      0.60802  0.53108  0.15135     O
O      0.60802  0.53108  0.84865     O
O      0.60802  0.65135  0.03108     O
O      0.60802  0.65135  0.96892     O
O      0.60802  0.84865  0.46892     O
O      0.60802  0.84865  0.53108     O
O      0.60802  0.96892  0.34865     O
O      0.60802  0.96892  0.65135     O
O       0.6098   0.1345   0.1345     O
O       0.6098   0.1345   0.8655     O
O       0.6098   0.3655   0.3655     O
O       0.6098   0.3655   0.6345     O
O       0.6098   0.6345   0.3655     O
O       0.6098   0.6345   0.6345     O
O       0.6098   0.8655   0.1345     O
O       0.6098   0.8655   0.8655     O
C      0.61636  0.07836  0.28377     C
C      0.61636  0.07836  0.71623     C
C      0.61636  0.21623  0.42164     C
C      0.61636  0.21623  0.57836     C
C      0.61636  0.28377  0.07836     C
C      0.61636  0.28377  0.92164     C
C      0.61636  0.42164  0.21623     C
C      0.61636  0.42164  0.78377     C
C      0.61636  0.57836  0.21623     C
C      0.61636  0.57836  0.78377     C
C      0.61636  0.71623  0.07836     C
C      0.61636  0.71623  0.92164     C
C      0.61636  0.78377  0.42164     C
C      0.61636  0.78377  0.57836     C
C      0.61636  0.92164  0.28377     C
C      0.61636  0.92164  0.71623     C
C       0.6168   0.1168   0.2429     C
C       0.6168   0.1168   0.7571     C
C       0.6168   0.2429   0.1168     C
C       0.6168   0.2429   0.8832     C
C       0.6168   0.2571   0.3832     C
C       0.6168   0.2571   0.6168     C
C       0.6168   0.3832   0.2571     C
C       0.6168   0.3832   0.7429     C
C       0.6168   0.6168   0.2571     C
C       0.6168   0.6168   0.7429     C
C       0.6168   0.7429   0.3832     C
C       0.6168   0.7429   0.6168     C
C       0.6168   0.7571   0.1168     C
C       0.6168   0.7571   0.8832     C
C       0.6168   0.8832   0.2429     C
C       0.6168   0.8832   0.7571     C
C      0.62013  0.04084  0.32489     C
C      0.62013  0.04084  0.67511     C
C      0.62013  0.17511  0.45916     C
C      0.62013  0.17511  0.54084     C
C      0.62013  0.32489  0.04084     C
C      0.62013  0.32489  0.95916     C
C      0.62013  0.45916  0.17511     C
C      0.62013  0.45916  0.82489     C
C      0.62013  0.54084  0.17511     C
C      0.62013  0.54084  0.82489     C
C      0.62013  0.67511  0.04084     C
C      0.62013  0.67511  0.95916     C
C      0.62013  0.82489  0.45916     C
C      0.62013  0.82489  0.54084     C
C      0.62013  0.95916  0.32489     C
C      0.62013  0.95916  0.67511     C
Cu     0.62316   0.1762   0.1762    Cu
Cu     0.62316   0.1762   0.8238    Cu
Cu     0.62316   0.3238   0.3238    Cu
Cu     0.62316   0.3238   0.6762    Cu
Cu     0.62316   0.6762   0.3238    Cu
Cu     0.62316   0.6762   0.6762    Cu
Cu     0.62316   0.8238   0.1762    Cu
Cu     0.62316   0.8238   0.8238    Cu
N      0.62504   0.1452  0.20727     N
N      0.62504   0.1452  0.79273     N
N      0.62504  0.20727   0.1452     N
N      0.62504  0.20727   0.8548     N
N      0.62504  0.29273   0.3548     N
N      0.62504  0.29273   0.6452     N
N      0.62504   0.3548  0.29273     N
N      0.62504   0.3548  0.70727     N
N      0.62504   0.6452  0.29273     N
N      0.62504   0.6452  0.70727     N
N      0.62504  0.70727   0.3548     N
N      0.62504  0.70727   0.6452     N
N      0.62504  0.79273   0.1452     N
N      0.62504  0.79273   0.8548     N
N      0.62504   0.8548  0.20727     N
N      0.62504   0.8548  0.79273     N
Cu     0.62652      0.0  0.37348    Cu
Cu     0.62652      0.0  0.62652    Cu
Cu     0.62652  0.12652      0.5    Cu
Cu     0.62652  0.37348      0.0    Cu
Cu     0.62652      0.5  0.12652    Cu
Cu     0.62652      0.5  0.87348    Cu
Cu     0.62652  0.62652      0.0    Cu
Cu     0.62652  0.87348      0.5    Cu
H       0.6327   0.0692   0.2747     H
H       0.6327   0.0692   0.7253     H
H       0.6327   0.2253   0.4308     H
H       0.6327   0.2253   0.5692     H
H       0.6327   0.2747   0.0692     H
H       0.6327   0.2747   0.9308     H
H       0.6327   0.4308   0.2253     H
H       0.6327   0.4308   0.7747     H
H       0.6327   0.5692   0.2253     H
H       0.6327   0.5692   0.7747     H
H       0.6327   0.7253   0.0692     H
H       0.6327   0.7253   0.9308     H
H       0.6327   0.7747   0.4308     H
H       0.6327   0.7747   0.5692     H
H       0.6327   0.9308   0.2747     H
H       0.6327   0.9308   0.7253     H
O       0.6345   0.1098   0.1345     O
O       0.6345   0.1098   0.8655     O
O       0.6345   0.1345   0.1098     O
O       0.6345   0.1345   0.8902     O
O       0.6345   0.3655   0.3902     O
O       0.6345   0.3655   0.6098     O
O       0.6345   0.3902   0.3655     O
O       0.6345   0.3902   0.6345     O
O       0.6345   0.6098   0.3655     O
O       0.6345   0.6098   0.6345     O
O       0.6345   0.6345   0.3902     O
O       0.6345   0.6345   0.6098     O
O       0.6345   0.8655   0.1098     O
O       0.6345   0.8655   0.8902     O
O       0.6345   0.8902   0.1345     O
O       0.6345   0.8902   0.8655     O
N      0.64066  0.10595  0.22978     N
N      0.64066  0.10595  0.77022     N
N      0.64066  0.22978  0.10595     N
N      0.64066  0.22978  0.89405     N
N      0.64066  0.27022  0.39405     N
N      0.64066  0.27022  0.60595     N
N      0.64066  0.39405  0.27022     N
N      0.64066  0.39405  0.72978     N
N      0.64066  0.60595  0.27022     N
N      0.64066  0.60595  0.72978     N
N      0.64066  0.72978  0.39405     N
N      0.64066  0.72978  0.60595     N
N      0.64066  0.77022  0.10595     N
N      0.64066  0.77022  0.89405     N
N      0.64066  0.89405  0.22978     N
N      0.64066  0.89405  0.77022     N
O      0.64347  0.03101   0.3131     O
O      0.64347  0.03101   0.6869     O
O      0.64347   0.1869  0.46899     O
O      0.64347   0.1869  0.53101     O
O      0.64347   0.3131  0.03101     O
O      0.64347   0.3131  0.96899     O
O      0.64347  0.46899   0.1869     O
O      0.64347  0.46899   0.8131     O
O      0.64347  0.53101   0.1869     O
O      0.64347  0.53101   0.8131     O
O      0.64347   0.6869  0.03101     O
O      0.64347   0.6869  0.96899     O
O      0.64347   0.8131  0.46899     O
O      0.64347   0.8131  0.53101     O
O      0.64347  0.96899   0.3131     O
O      0.64347  0.96899   0.6869     O
N       0.6452  0.12504  0.20727     N
N       0.6452  0.12504  0.79273     N
N       0.6452  0.20727  0.12504     N
N       0.6452  0.20727  0.87496     N
N       0.6452  0.29273  0.37496     N
N       0.6452  0.29273  0.62504     N
N       0.6452  0.37496  0.29273     N
N       0.6452  0.37496  0.70727     N
N       0.6452  0.62504  0.29273     N
N       0.6452  0.62504  0.70727     N
N       0.6452  0.70727  0.37496     N
N       0.6452  0.70727  0.62504     N
N       0.6452  0.79273  0.12504     N
N       0.6452  0.79273  0.87496     N
N       0.6452  0.87496  0.20727     N
N       0.6452  0.87496  0.79273     N
O        0.651   0.0872    0.151     O
O        0.651   0.0872    0.849     O
O        0.651    0.151   0.0872     O
O        0.651    0.151   0.9128     O
O        0.651    0.349   0.4128     O
O        0.651    0.349   0.5872     O
O        0.651   0.4128    0.349     O
O        0.651   0.4128    0.651     O
O        0.651   0.5872    0.349     O
O        0.651   0.5872    0.651     O
O        0.651    0.651   0.4128     O
O        0.651    0.651   0.5872     O
O        0.651    0.849   0.0872     O
O        0.651    0.849   0.9128     O
O        0.651   0.9128    0.151     O
O        0.651   0.9128    0.849     O
O      0.65135  0.03108  0.39198     O
O      0.65135  0.03108  0.60802     O
O      0.65135  0.10802  0.46892     O
O      0.65135  0.10802  0.53108     O
O      0.65135  0.39198  0.03108     O
O      0.65135  0.39198  0.96892     O
O      0.65135  0.46892  0.10802     O
O      0.65135  0.46892  0.89198     O
O      0.65135  0.53108  0.10802     O
O      0.65135  0.53108  0.89198     O
O      0.65135  0.60802  0.03108     O
O      0.65135  0.60802  0.96892     O
O      0.65135  0.89198  0.46892     O
O      0.65135  0.89198  0.53108     O
O      0.65135  0.96892  0.39198     O
O      0.65135  0.96892  0.60802     O
H       0.6597   0.0721   0.4279     H
H       0.6597   0.0721   0.5721     H
H       0.6597   0.4279   0.0721     H
H       0.6597   0.4279   0.9279     H
H       0.6597   0.5721   0.0721     H
H       0.6597   0.5721   0.9279     H
H       0.6597   0.9279   0.4279     H
H       0.6597   0.9279   0.5721     H
O       0.6652   0.1652   0.1652     O
O       0.6652   0.1652   0.8348     O
O       0.6652   0.3348   0.3348     O
O       0.6652   0.3348   0.6652     O
O       0.6652   0.6652   0.3348     O
O       0.6652   0.6652   0.6652     O
O       0.6652   0.8348   0.1652     O
O       0.6652   0.8348   0.8348     O
Cu     0.66854      0.0  0.33146    Cu
Cu     0.66854      0.0  0.66854    Cu
Cu     0.66854  0.16854      0.5    Cu
Cu     0.66854  0.33146      0.0    Cu
Cu     0.66854      0.5  0.16854    Cu
Cu     0.66854      0.5  0.83146    Cu
Cu     0.66854  0.66854      0.0    Cu
Cu     0.66854  0.83146      0.5    Cu
C      0.67511  0.04084  0.37987     C
C      0.67511  0.04084  0.62013     C
C      0.67511  0.12013  0.45916     C
C      0.67511  0.12013  0.54084     C
C      0.67511  0.37987  0.04084     C
C      0.67511  0.37987  0.95916     C
C      0.67511  0.45916  0.12013     C
C      0.67511  0.45916  0.87987     C
C      0.67511  0.54084  0.12013     C
C      0.67511  0.54084  0.87987     C
C      0.67511  0.62013  0.04084     C
C      0.67511  0.62013  0.95916     C
C      0.67511  0.87987  0.45916     C
C      0.67511  0.87987  0.54084     C
C      0.67511  0.95916  0.37987     C
C      0.67511  0.95916  0.62013     C
Cu      0.6762  0.12316   0.1762    Cu
Cu      0.6762  0.12316   0.8238    Cu
Cu      0.6762   0.1762  0.12316    Cu
Cu      0.6762   0.1762  0.87684    Cu
Cu      0.6762   0.3238  0.37684    Cu
Cu      0.6762   0.3238  0.62316    Cu
Cu      0.6762  0.37684   0.3238    Cu
Cu      0.6762  0.37684   0.6762    Cu
Cu      0.6762  0.62316   0.3238    Cu
Cu      0.6762  0.62316   0.6762    Cu
Cu      0.6762   0.6762  0.37684    Cu
Cu      0.6762   0.6762  0.62316    Cu
Cu      0.6762   0.8238  0.12316    Cu
Cu      0.6762   0.8238  0.87684    Cu
Cu      0.6762  0.87684   0.1762    Cu
Cu      0.6762  0.87684   0.8238    Cu
C      0.67726  0.07999  0.42001     C
C      0.67726  0.07999  0.57999     C
C      0.67726  0.42001  0.07999     C
C      0.67726  0.42001  0.92001     C
C      0.67726  0.57999  0.07999     C
C      0.67726  0.57999  0.92001     C
C      0.67726  0.92001  0.42001     C
C      0.67726  0.92001  0.57999     C
O       0.6869  0.03101  0.35653     O
O       0.6869  0.03101  0.64347     O
O       0.6869  0.14347  0.46899     O
O       0.6869  0.14347  0.53101     O
O       0.6869  0.35653  0.03101     O
O       0.6869  0.35653  0.96899     O
O       0.6869  0.46899  0.14347     O
O       0.6869  0.46899  0.85653     O
O       0.6869  0.53101  0.14347     O
O       0.6869  0.53101  0.85653     O
O       0.6869  0.64347  0.03101     O
O       0.6869  0.64347  0.96899     O
O       0.6869  0.85653  0.46899     O
O       0.6869  0.85653  0.53101     O
O       0.6869  0.96899  0.35653     O
O       0.6869  0.96899  0.64347     O
O         0.69   0.0835     0.19     O
O         0.69   0.0835     0.81     O
O         0.69     0.19   0.0835     O
O         0.69     0.19   0.9165     O
O         0.69     0.31   0.4165     O
O         0.69     0.31   0.5835     O
O         0.69   0.4165     0.31     O
O         0.69   0.4165     0.69     O
O         0.69   0.5835     0.31     O
O         0.69   0.5835     0.69     O
O         0.69     0.69   0.4165     O
O         0.69     0.69   0.5835     O
O         0.69     0.81   0.0835     O
O         0.69     0.81   0.9165     O
O         0.69   0.9165     0.19     O
O         0.69   0.9165     0.81     O
C      0.69003  0.06677  0.39524     C
C      0.69003  0.06677  0.60476     C
C      0.69003  0.10476  0.43323     C
C      0.69003  0.10476  0.56677     C
C      0.69003  0.39524  0.06677     C
C      0.69003  0.39524  0.93323     C
C      0.69003  0.43323  0.10476     C
C      0.69003  0.43323  0.89524     C
C      0.69003  0.56677  0.10476     C
C      0.69003  0.56677  0.89524     C
C      0.69003  0.60476  0.06677     C
C      0.69003  0.60476  0.93323     C
C      0.69003  0.89524  0.43323     C
C      0.69003  0.89524  0.56677     C
C      0.69003  0.93323  0.39524     C
C      0.69003  0.93323  0.60476     C
O       0.7065   0.1014   0.2065     O
O       0.7065   0.1014   0.7935     O
O       0.7065   0.2065   0.1014     O
O       0.7065   0.2065   0.8986     O
O       0.7065   0.2935   0.3986     O
O       0.7065   0.2935   0.6014     O
O       0.7065   0.3986   0.2935     O
O       0.7065   0.3986   0.7065     O
O       0.7065   0.6014   0.2935     O
O       0.7065   0.6014   0.7065     O
O       0.7065   0.7065   0.3986     O
O       0.7065   0.7065   0.6014     O
O       0.7065   0.7935   0.1014     O
O       0.7065   0.7935   0.8986     O
O       0.7065   0.8986   0.2065     O
O       0.7065   0.8986   0.7935     O
N      0.70727  0.12504   0.1452     N
N      0.70727  0.12504   0.8548     N
N      0.70727   0.1452  0.12504     N
N      0.70727   0.1452  0.87496     N
N      0.70727   0.3548  0.37496     N
N      0.70727   0.3548  0.62504     N
N      0.70727  0.37496   0.3548     N
N      0.70727  0.37496   0.6452     N
N      0.70727  0.62504   0.3548     N
N      0.70727  0.62504   0.6452     N
N      0.70727   0.6452  0.37496     N
N      0.70727   0.6452  0.62504     N
N      0.70727   0.8548  0.12504     N
N      0.70727   0.8548  0.87496     N
N      0.70727  0.87496   0.1452     N
N      0.70727  0.87496   0.8548     N
C      0.71623  0.07836  0.38364     C
C      0.71623  0.07836  0.61636     C
C      0.71623  0.11636  0.42164     C
C      0.71623  0.11636  0.57836     C
C      0.71623  0.38364  0.07836     C
C      0.71623  0.38364  0.92164     C
C      0.71623  0.42164  0.11636     C
C      0.71623  0.42164  0.88364     C
C      0.71623  0.57836  0.11636     C
C      0.71623  0.57836  0.88364     C
C      0.71623  0.61636  0.07836     C
C      0.71623  0.61636  0.92164     C
C      0.71623  0.88364  0.42164     C
C      0.71623  0.88364  0.57836     C
C      0.71623  0.92164  0.38364     C
C      0.71623  0.92164  0.61636     C
H       0.7253   0.0692   0.3673     H
H       0.7253   0.0692   0.6327     H
H       0.7253   0.1327   0.4308     H
H       0.7253   0.1327   0.5692     H
H       0.7253   0.3673   0.0692     H
H       0.7253   0.3673   0.9308     H
H       0.7253   0.4308   0.1327     H
H       0.7253   0.4308   0.8673     H
H       0.7253   0.5692   0.1327     H
H       0.7253   0.5692   0.8673     H
H       0.7253   0.6327   0.0692     H
H       0.7253   0.6327   0.9308     H
H       0.7253   0.8673   0.4308     H
H       0.7253   0.8673   0.5692     H
H       0.7253   0.9308   0.3673     H
H       0.7253   0.9308   0.6327     H
C      0.72913  0.10368  0.39632     C
C      0.72913  0.10368  0.60368     C
C      0.72913  0.39632  0.10368     C
C      0.72913  0.39632  0.89632     C
C      0.72913  0.60368  0.10368     C
C      0.72913  0.60368  0.89632     C
C      0.72913  0.89632  0.39632     C
C      0.72913  0.89632  0.60368     C
N      0.72978  0.10595  0.14066     N
N      0.72978  0.10595  0.85934     N
N      0.72978  0.14066  0.10595     N
N      0.72978  0.14066  0.89405     N
N      0.72978  0.35934  0.39405     N
N      0.72978  0.35934  0.60595     N
N      0.72978  0.39405  0.35934     N
N      0.72978  0.39405  0.64066     N
N      0.72978  0.60595  0.35934     N
N      0.72978  0.60595  0.64066     N
N      0.72978  0.64066  0.39405     N
N      0.72978  0.64066  0.60595     N
N      0.72978  0.85934  0.10595     N
N      0.72978  0.85934  0.89405     N
N      0.72978  0.89405  0.14066     N
N      0.72978  0.89405  0.85934     N
C       0.7429   0.1168   0.1168     C
C       0.7429   0.1168   0.8832     C
C       0.7429   0.3832   0.3832     C
C       0.7429   0.3832   0.6168     C
C       0.7429   0.6168   0.3832     C
C       0.7429   0.6168   0.6168     C
C       0.7429   0.8832   0.1168     C
C       0.7429   0.8832   0.8832     C
C       0.7571   0.1168   0.3832     C
C       0.7571   0.1168   0.6168     C
C       0.7571   0.3832   0.1168     C
C       0.7571   0.3832   0.8832     C
C       0.7571   0.6168   0.1168     C
C       0.7571   0.6168   0.8832     C
C       0.7571   0.8832   0.3832     C
C       0.7571   0.8832   0.6168     C
N      0.77022  0.10595  0.35934     N
N      0.77022  0.10595  0.64066     N
N      0.77022  0.14066  0.39405     N
N      0.77022  0.14066  0.60595     N
N      0.77022  0.35934  0.10595     N
N      0.77022  0.35934  0.89405     N
N      0.77022  0.39405  0.14066     N
N      0.77022  0.39405  0.85934     N
N      0.77022  0.60595  0.14066     N
N      0.77022  0.60595  0.85934     N
N      0.77022  0.64066  0.10595     N
N      0.77022  0.64066  0.89405     N
N      0.77022  0.85934  0.39405     N
N      0.77022  0.85934  0.60595     N
N      0.77022  0.89405  0.35934     N
N      0.77022  0.89405  0.64066     N
C      0.77087  0.10368  0.10368     C
C      0.77087  0.10368  0.89632     C
C      0.77087  0.39632  0.39632     C
C      0.77087  0.39632  0.60368     C
C      0.77087  0.60368  0.39632     C
C      0.77087  0.60368  0.60368     C
C      0.77087  0.89632  0.10368     C
C      0.77087  0.89632  0.89632     C
H       0.7747   0.0692   0.1327     H
H       0.7747   0.0692   0.8673     H
H       0.7747   0.1327   0.0692     H
H       0.7747   0.1327   0.9308     H
H       0.7747   0.3673   0.4308     H
H       0.7747   0.3673   0.5692     H
H       0.7747   0.4308   0.3673     H
H       0.7747   0.4308   0.6327     H
H       0.7747   0.5692   0.3673     H
H       0.7747   0.5692   0.6327     H
H       0.7747   0.6327   0.4308     H
H       0.7747   0.6327   0.5692     H
H       0.7747   0.8673   0.0692     H
H       0.7747   0.8673   0.9308     H
H       0.7747   0.9308   0.1327     H
H       0.7747   0.9308   0.8673     H
C      0.78377  0.07836  0.11636     C
C      0.78377  0.07836  0.88364     C
C      0.78377  0.11636  0.07836     C
C      0.78377  0.11636  0.92164     C
C      0.78377  0.38364  0.42164     C
C      0.78377  0.38364  0.57836     C
C      0.78377  0.42164  0.38364     C
C      0.78377  0.42164  0.61636     C
C      0.78377  0.57836  0.38364     C
C      0.78377  0.57836  0.61636     C
C      0.78377  0.61636  0.42164     C
C      0.78377  0.61636  0.57836     C
C      0.78377  0.88364  0.07836     C
C      0.78377  0.88364  0.92164     C
C      0.78377  0.92164  0.11636     C
C      0.78377  0.92164  0.88364     C
N      0.79273  0.12504   0.3548     N
N      0.79273  0.12504   0.6452     N
N      0.79273   0.1452  0.37496     N
N      0.79273   0.1452  0.62504     N
N      0.79273   0.3548  0.12504     N
N      0.79273   0.3548  0.87496     N
N      0.79273  0.37496   0.1452     N
N      0.79273  0.37496   0.8548     N
N      0.79273  0.62504   0.1452     N
N      0.79273  0.62504   0.8548     N
N      0.79273   0.6452  0.12504     N
N      0.79273   0.6452  0.87496     N
N      0.79273   0.8548  0.37496     N
N      0.79273   0.8548  0.62504     N
N      0.79273  0.87496   0.3548     N
N      0.79273  0.87496   0.6452     N
O       0.7935   0.1014   0.2935     O
O       0.7935   0.1014   0.7065     O
O       0.7935   0.2065   0.3986     O
O       0.7935   0.2065   0.6014     O
O       0.7935   0.2935   0.1014     O
O       0.7935   0.2935   0.8986     O
O       0.7935   0.3986   0.2065     O
O       0.7935   0.3986   0.7935     O
O       0.7935   0.6014   0.2065     O
O       0.7935   0.6014   0.7935     O
O       0.7935   0.7065   0.1014     O
O       0.7935   0.7065   0.8986     O
O       0.7935   0.7935   0.3986     O
O       0.7935   0.7935   0.6014     O
O       0.7935   0.8986   0.2935     O
O       0.7935   0.8986   0.7065     O
C      0.80997  0.06677  0.10476     C
C      0.80997  0.06677  0.89524     C
C      0.80997  0.10476  0.06677     C
C      0.80997  0.10476  0.93323     C
C      0.80997  0.39524  0.43323     C
C      0.80997  0.39524  0.56677     C
C      0.80997  0.43323  0.39524     C
C      0.80997  0.43323  0.60476     C
C      0.80997  0.56677  0.39524     C
C      0.80997  0.56677  0.60476     C
C      0.80997  0.60476  0.43323     C
C      0.80997  0.60476  0.56677     C
C      0.80997  0.89524  0.06677     C
C      0.80997  0.89524  0.93323     C
C      0.80997  0.93323  0.10476     C
C      0.80997  0.93323  0.89524     C
O         0.81   0.0835     0.31     O
O         0.81   0.0835     0.69     O
O         0.81     0.19   0.4165     O
O         0.81     0.19   0.5835     O
O         0.81     0.31   0.0835     O
O         0.81     0.31   0.9165     O
O         0.81   0.4165     0.19     O
O         0.81   0.4165     0.81     O
O         0.81   0.5835     0.19     O
O         0.81   0.5835     0.81     O
O         0.81     0.69   0.0835     O
O         0.81     0.69   0.9165     O
O         0.81     0.81   0.4165     O
O         0.81     0.81   0.5835     O
O         0.81   0.9165     0.31     O
O         0.81   0.9165     0.69     O
O       0.8131  0.03101  0.14347     O
O       0.8131  0.03101  0.85653     O
O       0.8131  0.14347  0.03101     O
O       0.8131  0.14347  0.96899     O
O       0.8131  0.35653  0.46899     O
O       0.8131  0.35653  0.53101     O
O       0.8131  0.46899  0.35653     O
O       0.8131  0.46899  0.64347     O
O       0.8131  0.53101  0.35653     O
O       0.8131  0.53101  0.64347     O
O       0.8131  0.64347  0.46899     O
O       0.8131  0.64347  0.53101     O
O       0.8131  0.85653  0.03101     O
O       0.8131  0.85653  0.96899     O
O       0.8131  0.96899  0.14347     O
O       0.8131  0.96899  0.85653     O
C      0.82274  0.07999  0.07999     C
C      0.82274  0.07999  0.92001     C
C      0.82274  0.42001  0.42001     C
C      0.82274  0.42001  0.57999     C
C      0.82274  0.57999  0.42001     C
C      0.82274  0.57999  0.57999     C
C      0.82274  0.92001  0.07999     C
C      0.82274  0.92001  0.92001     C
Cu      0.8238  0.12316   0.3238    Cu
Cu      0.8238  0.12316   0.6762    Cu
Cu      0.8238   0.1762  0.37684    Cu
Cu      0.8238   0.1762  0.62316    Cu
Cu      0.8238   0.3238  0.12316    Cu
Cu      0.8238   0.3238  0.87684    Cu
Cu      0.8238  0.37684   0.1762    Cu
Cu      0.8238  0.37684   0.8238    Cu
Cu      0.8238  0.62316   0.1762    Cu
Cu      0.8238  0.62316   0.8238    Cu
Cu      0.8238   0.6762  0.12316    Cu
Cu      0.8238   0.6762  0.87684    Cu
Cu      0.8238   0.8238  0.37684    Cu
Cu      0.8238   0.8238  0.62316    Cu
Cu      0.8238  0.87684   0.3238    Cu
Cu      0.8238  0.87684   0.6762    Cu
C      0.82489  0.04084  0.12013     C
C      0.82489  0.04084  0.87987     C
C      0.82489  0.12013  0.04084     C
C      0.82489  0.12013  0.95916     C
C      0.82489  0.37987  0.45916     C
C      0.82489  0.37987  0.54084     C
C      0.82489  0.45916  0.37987     C
C      0.82489  0.45916  0.62013     C
C      0.82489  0.54084  0.37987     C
C      0.82489  0.54084  0.62013     C
C      0.82489  0.62013  0.45916     C
C      0.82489  0.62013  0.54084     C
C      0.82489  0.87987  0.04084     C
C      0.82489  0.87987  0.95916     C
C      0.82489  0.95916  0.12013     C
C      0.82489  0.95916  0.87987     C
Cu     0.83146      0.0  0.16854    Cu
Cu     0.83146      0.0  0.83146    Cu
Cu     0.83146  0.16854      0.0    Cu
Cu     0.83146  0.33146      0.5    Cu
Cu     0.83146      0.5  0.33146    Cu
Cu     0.83146      0.5  0.66854    Cu
Cu     0.83146  0.66854      0.5    Cu
Cu     0.83146  0.83146      0.0    Cu
O       0.8348   0.1652   0.3348     O
O       0.8348   0.1652   0.6652     O
O       0.8348   0.3348   0.1652     O
O       0.8348   0.3348   0.8348     O
O       0.8348   0.6652   0.1652     O
O       0.8348   0.6652   0.8348     O
O       0.8348   0.8348   0.3348     O
O       0.8348   0.8348   0.6652     O
H       0.8403   0.0721   0.0721     H
H       0.8403   0.0721   0.9279     H
H       0.8403   0.4279   0.4279     H
H       0.8403   0.4279   0.5721     H
H       0.8403   0.5721   0.4279     H
H       0.8403   0.5721   0.5721     H
H       0.8403   0.9279   0.0721     H
H       0.8403   0.9279   0.9279     H
O      0.84865  0.03108  0.10802     O
O      0.84865  0.03108  0.89198     O
O      0.84865  0.10802  0.03108     O
O      0.84865  0.10802  0.96892     O
O      0.84865  0.39198  0.46892     O
O      0.84865  0.39198  0.53108     O
O      0.84865  0.46892  0.39198     O
O      0.84865  0.46892  0.60802     O
O      0.84865  0.53108  0.39198     O
O      0.84865  0.53108  0.60802     O
O      0.84865  0.60802  0.46892     O
O      0.84865  0.60802  0.53108     O
O      0.84865  0.89198  0.03108     O
O      0.84865  0.89198  0.96892     O
O      0.84865  0.96892  0.10802     O
O      0.84865  0.96892  0.89198     O
O        0.849   0.0872    0.349     O
O        0.849   0.0872    0.651     O
O        0.849    0.151   0.4128     O
O        0.849    0.151   0.5872     O
O        0.849    0.349   0.0872     O
O        0.849    0.349   0.9128     O
O        0.849   0.4128    0.151     O
O        0.849   0.4128    0.849     O
O        0.849   0.5872    0.151     O
O        0.849   0.5872    0.849     O
O        0.849    0.651   0.0872     O
O        0.849    0.651   0.9128     O
O        0.849    0.849   0.4128     O
O        0.849    0.849   0.5872     O
O        0.849   0.9128    0.349     O
O        0.849   0.9128    0.651     O
N       0.8548  0.12504  0.29273     N
N       0.8548  0.12504  0.70727     N
N       0.8548  0.20727  0.37496     N
N       0.8548  0.20727  0.62504     N
N       0.8548  0.29273  0.12504     N
N       0.8548  0.29273  0.87496     N
N       0.8548  0.37496  0.20727     N
N       0.8548  0.37496  0.79273     N
N       0.8548  0.62504  0.20727     N
N       0.8548  0.62504  0.79273     N
N       0.8548  0.70727  0.12504     N
N       0.8548  0.70727  0.87496     N
N       0.8548  0.79273  0.37496     N
N       0.8548  0.79273  0.62504     N
N       0.8548  0.87496  0.29273     N
N       0.8548  0.87496  0.70727     N
O      0.85653  0.03101   0.1869     O
O      0.85653  0.03101   0.8131     O
O      0.85653   0.1869  0.03101     O
O      0.85653   0.1869  0.96899     O
O      0.85653   0.3131  0.46899     O
O      0.85653   0.3131  0.53101     O
O      0.85653  0.46899   0.3131     O
O      0.85653  0.46899   0.6869     O
O      0.85653  0.53101   0.3131     O
O      0.85653  0.53101   0.6869     O
O      0.85653   0.6869  0.46899     O
O      0.85653   0.6869  0.53101     O
O      0.85653   0.8131  0.03101     O
O      0.85653   0.8131  0.96899     O
O      0.85653  0.96899   0.1869     O
O      0.85653  0.96899   0.8131     O
N      0.85934  0.10595  0.27022     N
N      0.85934  0.10595  0.72978     N
N      0.85934  0.22978  0.39405     N
N      0.85934  0.22978  0.60595     N
N      0.85934  0.27022  0.10595     N
N      0.85934  0.27022  0.89405     N
N      0.85934  0.39405  0.22978     N
N      0.85934  0.39405  0.77022     N
N      0.85934  0.60595  0.22978     N
N      0.85934  0.60595  0.77022     N
N      0.85934  0.72978  0.10595     N
N      0.85934  0.72978  0.89405     N
N      0.85934  0.77022  0.39405     N
N      0.85934  0.77022  0.60595     N
N      0.85934  0.89405  0.27022     N
N      0.85934  0.89405  0.72978     N
O       0.8655   0.1098   0.3655     O
O       0.8655   0.1098   0.6345     O
O       0.8655   0.1345   0.3902     O
O       0.8655   0.1345   0.6098     O
O       0.8655   0.3655   0.1098     O
O       0.8655   0.3655   0.8902     O
O       0.8655   0.3902   0.1345     O
O       0.8655   0.3902   0.8655     O
O       0.8655   0.6098   0.1345     O
O       0.8655   0.6098   0.8655     O
O       0.8655   0.6345   0.1098     O
O       0.8655   0.6345   0.8902     O
O       0.8655   0.8655   0.3902     O
O       0.8655   0.8655   0.6098     O
O       0.8655   0.8902   0.3655     O
O       0.8655   0.8902   0.6345     O
H       0.8673   0.0692   0.2253     H
H       0.8673   0.0692   0.7747     H
H       0.8673   0.2253   0.0692     H
H       0.8673   0.2253   0.9308     H
H       0.8673   0.2747   0.4308     H
H       0.8673   0.2747   0.5692     H
H       0.8673   0.4308   0.2747     H
H       0.8673   0.4308   0.7253     H
H       0.8673   0.5692   0.2747     H
H       0.8673   0.5692   0.7253     H
H       0.8673   0.7253   0.4308     H
H       0.8673   0.7253   0.5692     H
H       0.8673   0.7747   0.0692     H
H       0.8673   0.7747   0.9308     H
H       0.8673   0.9308   0.2253     H
H       0.8673   0.9308   0.7747     H
Cu     0.87348      0.0  0.12652    Cu
Cu     0.87348      0.0  0.87348    Cu
Cu     0.87348  0.12652      0.0    Cu
Cu     0.87348  0.37348      0.5    Cu
Cu     0.87348      0.5  0.37348    Cu
Cu     0.87348      0.5  0.62652    Cu
Cu     0.87348  0.62652      0.5    Cu
Cu     0.87348  0.87348      0.0    Cu
N      0.87496   0.1452  0.29273     N
N      0.87496   0.1452  0.70727     N
N      0.87496  0.20727   0.3548     N
N      0.87496  0.20727   0.6452     N
N      0.87496  0.29273   0.1452     N
N      0.87496  0.29273   0.8548     N
N      0.87496   0.3548  0.20727     N
N      0.87496   0.3548  0.79273     N
N      0.87496   0.6452  0.20727     N
N      0.87496   0.6452  0.79273     N
N      0.87496  0.70727   0.1452     N
N      0.87496  0.70727   0.8548     N
N      0.87496  0.79273   0.3548     N
N      0.87496  0.79273   0.6452     N
N      0.87496   0.8548  0.29273     N
N      0.87496   0.8548  0.70727     N
Cu     0.87684   0.1762   0.3238    Cu
Cu     0.87684   0.1762   0.6762    Cu
Cu     0.87684   0.3238   0.1762    Cu
Cu     0.87684   0.3238   0.8238    Cu
Cu     0.87684   0.6762   0.1762    Cu
Cu     0.87684   0.6762   0.8238    Cu
Cu     0.87684   0.8238   0.3238    Cu
Cu     0.87684   0.8238   0.6762    Cu
C      0.87987  0.04084  0.17511     C
C      0.87987  0.04084  0.82489     C
C      0.87987  0.17511  0.04084     C
C      0.87987  0.17511  0.95916     C
C      0.87987  0.32489  0.45916     C
C      0.87987  0.32489  0.54084     C
C      0.87987  0.45916  0.32489     C
C      0.87987  0.45916  0.67511     C
C      0.87987  0.54084  0.32489     C
C      0.87987  0.54084  0.67511     C
C      0.87987  0.67511  0.45916     C
C      0.87987  0.67511  0.54084     C
C      0.87987  0.82489  0.04084     C
C      0.87987  0.82489  0.95916     C
C      0.87987  0.95916  0.17511     C
C      0.87987  0.95916  0.82489     C
C       0.8832   0.1168   0.2571     C
C       0.8832   0.1168   0.7429     C
C       0.8832   0.2429   0.3832     C
C       0.8832   0.2429   0.6168     C
C       0.8832   0.2571   0.1168     C
C       0.8832   0.2571   0.8832     C
C       0.8832   0.3832   0.2429     C
C       0.8832   0.3832   0.7571     C
C       0.8832   0.6168   0.2429     C
C       0.8832   0.6168   0.7571     C
C       0.8832   0.7429   0.1168     C
C       0.8832   0.7429   0.8832     C
C       0.8832   0.7571   0.3832     C
C       0.8832   0.7571   0.6168     C
C       0.8832   0.8832   0.2571     C
C       0.8832   0.8832   0.7429     C
C      0.88364  0.07836  0.21623     C
C      0.88364  0.07836  0.78377     C
C      0.88364  0.21623  0.07836     C
C      0.88364  0.21623  0.92164     C
C      0.88364  0.28377  0.42164     C
C      0.88364  0.28377  0.57836     C
C      0.88364  0.42164  0.28377     C
C      0.88364  0.42164  0.71623     C
C      0.88364  0.57836  0.28377     C
C      0.88364  0.57836  0.71623     C
C      0.88364  0.71623  0.42164     C
C      0.88364  0.71623  0.57836     C
C      0.88364  0.78377  0.07836     C
C      0.88364  0.78377  0.92164     C
C      0.88364  0.92164  0.21623     C
C      0.88364  0.92164  0.78377     C
O       0.8902   0.1345   0.3655     O
O       0.8902   0.1345   0.6345     O
O       0.8902   0.3655   0.1345     O
O       0.8902   0.3655   0.8655     O
O       0.8902   0.6345   0.1345     O
O       0.8902   0.6345   0.8655     O
O       0.8902   0.8655   0.3655     O
O       0.8902   0.8655   0.6345     O
O      0.89198  0.03108  0.15135     O
O      0.89198  0.03108  0.84865     O
O      0.89198  0.15135  0.03108     O
O      0.89198  0.15135  0.96892     O
O      0.89198  0.34865  0.46892     O
O      0.89198  0.34865  0.53108     O
O      0.89198  0.46892  0.34865     O
O      0.89198  0.46892  0.65135     O
O      0.89198  0.53108  0.34865     O
O      0.89198  0.53108  0.65135     O
O      0.89198  0.65135  0.46892     O
O      0.89198  0.65135  0.53108     O
O      0.89198  0.84865  0.03108     O
O      0.89198  0.84865  0.96892     O
O      0.89198  0.96892  0.15135     O
O      0.89198  0.96892  0.84865     O
N      0.89405  0.14066  0.27022     N
N      0.89405  0.14066  0.72978     N
N      0.89405  0.22978  0.35934     N
N      0.89405  0.22978  0.64066     N
N      0.89405  0.27022  0.14066     N
N      0.89405  0.27022  0.85934     N
N      0.89405  0.35934  0.22978     N
N      0.89405  0.35934  0.77022     N
N      0.89405  0.64066  0.22978     N
N      0.89405  0.64066  0.77022     N
N      0.89405  0.72978  0.14066     N
N      0.89405  0.72978  0.85934     N
N      0.89405  0.77022  0.35934     N
N      0.89405  0.77022  0.64066     N
N      0.89405  0.85934  0.27022     N
N      0.89405  0.85934  0.72978     N
C      0.89524  0.06677  0.19003     C
C      0.89524  0.06677  0.80997     C
C      0.89524  0.19003  0.06677     C
C      0.89524  0.19003  0.93323     C
C      0.89524  0.30997  0.43323     C
C      0.89524  0.30997  0.56677     C
C      0.89524  0.43323  0.30997     C
C      0.89524  0.43323  0.69003     C
C      0.89524  0.56677  0.30997     C
C      0.89524  0.56677  0.69003     C
C      0.89524  0.69003  0.43323     C
C      0.89524  0.69003  0.56677     C
C      0.89524  0.80997  0.06677     C
C      0.89524  0.80997  0.93323     C
C      0.89524  0.93323  0.19003     C
C      0.89524  0.93323  0.80997     C
C      0.89632  0.10368  0.22913     C
C      0.89632  0.10368  0.77087     C
C      0.89632  0.22913  0.10368     C
C      0.89632  0.22913  0.89632     C
C      0.89632  0.27087  0.39632     C
C      0.89632  0.27087  0.60368     C
C      0.89632  0.39632  0.27087     C
C      0.89632  0.39632  0.72913     C
C      0.89632  0.60368  0.27087     C
C      0.89632  0.60368  0.72913     C
C      0.89632  0.72913  0.39632     C
C      0.89632  0.72913  0.60368     C
C      0.89632  0.77087  0.10368     C
C      0.89632  0.77087  0.89632     C
C      0.89632  0.89632  0.22913     C
C      0.89632  0.89632  0.77087     C
O       0.8986   0.2065   0.2935     O
O       0.8986   0.2065   0.7065     O
O       0.8986   0.2935   0.2065     O
O       0.8986   0.2935   0.7935     O
O       0.8986   0.7065   0.2065     O
O       0.8986   0.7065   0.7935     O
O       0.8986   0.7935   0.2935     O
O       0.8986   0.7935   0.7065     O
O       0.9128    0.151    0.349     O
O       0.9128    0.151    0.651     O
O       0.9128    0.349    0.151     O
O       0.9128    0.349    0.849     O
O       0.9128    0.651    0.151     O
O       0.9128    0.651    0.849     O
O       0.9128    0.849    0.349     O
O       0.9128    0.849    0.651     O
O       0.9165     0.19     0.31     O
O       0.9165     0.19     0.69     O
O       0.9165     0.31     0.19     O
O       0.9165     0.31     0.81     O
O       0.9165     0.69     0.19     O
O       0.9165     0.69     0.81     O
O       0.9165     0.81     0.31     O
O       0.9165     0.81     0.69     O
C      0.92001  0.07999  0.17726     C
C      0.92001  0.07999  0.82274     C
C      0.92001  0.17726  0.07999     C
C      0.92001  0.17726  0.92001     C
C      0.92001  0.32274  0.42001     C
C      0.92001  0.32274  0.57999     C
C      0.92001  0.42001  0.32274     C
C      0.92001  0.42001  0.67726     C
C      0.92001  0.57999  0.32274     C
C      0.92001  0.57999  0.67726     C
C      0.92001  0.67726  0.42001     C
C      0.92001  0.67726  0.57999     C
C      0.92001  0.82274  0.07999     C
C      0.92001  0.82274  0.92001     C
C      0.92001  0.92001  0.17726     C
C      0.92001  0.92001  0.82274     C
C      0.92164  0.11636  0.21623     C
C      0.92164  0.11636  0.78377     C
C      0.92164  0.21623  0.11636     C
C      0.92164  0.21623  0.88364     C
C      0.92164  0.28377  0.38364     C
C      0.92164  0.28377  0.61636     C
C      0.92164  0.38364  0.28377     C
C      0.92164  0.38364  0.71623     C
C      0.92164  0.61636  0.28377     C
C      0.92164  0.61636  0.71623     C
C      0.92164  0.71623  0.38364     C
C      0.92164  0.71623  0.61636     C
C      0.92164  0.78377  0.11636     C
C      0.92164  0.78377  0.88364     C
C      0.92164  0.88364  0.21623     C
C      0.92164  0.88364  0.78377     C
H       0.9279   0.0721   0.1597     H
H       0.9279   0.0721   0.8403     H
H       0.9279   0.1597   0.0721     H
H       0.9279   0.1597   0.9279     H
H       0.9279   0.3403   0.4279     H
H       0.9279   0.3403   0.5721     H
H       0.9279   0.4279   0.3403     H
H       0.9279   0.4279   0.6597     H
H       0.9279   0.5721   0.3403     H
H       0.9279   0.5721   0.6597     H
H       0.9279   0.6597   0.4279     H
H       0.9279   0.6597   0.5721     H
H       0.9279   0.8403   0.0721     H
H       0.9279   0.8403   0.9279     H
H       0.9279   0.9279   0.1597     H
H       0.9279   0.9279   0.8403     H
H       0.9308   0.1327   0.2253     H
H       0.9308   0.1327   0.7747     H
H       0.9308   0.2253   0.1327     H
H       0.9308   0.2253   0.8673     H
H       0.9308   0.2747   0.3673     H
H       0.9308   0.2747   0.6327     H
H       0.9308   0.3673   0.2747     H
H       0.9308   0.3673   0.7253     H
H       0.9308   0.6327   0.2747     H
H       0.9308   0.6327   0.7253     H
H       0.9308   0.7253   0.3673     H
H       0.9308   0.7253   0.6327     H
H       0.9308   0.7747   0.1327     H
H       0.9308   0.7747   0.8673     H
H       0.9308   0.8673   0.2253     H
H       0.9308   0.8673   0.7747     H
C      0.93323  0.10476  0.19003     C
C      0.93323  0.10476  0.80997     C
C      0.93323  0.19003  0.10476     C
C      0.93323  0.19003  0.89524     C
C      0.93323  0.30997  0.39524     C
C      0.93323  0.30997  0.60476     C
C      0.93323  0.39524  0.30997     C
C      0.93323  0.39524  0.69003     C
C      0.93323  0.60476  0.30997     C
C      0.93323  0.60476  0.69003     C
C      0.93323  0.69003  0.39524     C
C      0.93323  0.69003  0.60476     C
C      0.93323  0.80997  0.10476     C
C      0.93323  0.80997  0.89524     C
C      0.93323  0.89524  0.19003     C
C      0.93323  0.89524  0.80997     C
C      0.95916  0.12013  0.17511     C
C      0.95916  0.12013  0.82489     C
C      0.95916  0.17511  0.12013     C
C      0.95916  0.17511  0.87987     C
C      0.95916  0.32489  0.37987     C
C      0.95916  0.32489  0.62013     C
C      0.95916  0.37987  0.32489     C
C      0.95916  0.37987  0.67511     C
C      0.95916  0.62013  0.32489     C
C      0.95916  0.62013  0.67511     C
C      0.95916  0.67511  0.37987     C
C      0.95916  0.67511  0.62013     C
C      0.95916  0.82489  0.12013     C
C      0.95916  0.82489  0.87987     C
C      0.95916  0.87987  0.17511     C
C      0.95916  0.87987  0.82489     C
O      0.96892  0.10802  0.15135     O
O      0.96892  0.10802  0.84865     O
O      0.96892  0.15135  0.10802     O
O      0.96892  0.15135  0.89198     O
O      0.96892  0.34865  0.39198     O
O      0.96892  0.34865  0.60802     O
O      0.96892  0.39198  0.34865     O
O      0.96892  0.39198  0.65135     O
O      0.96892  0.60802  0.34865     O
O      0.96892  0.60802  0.65135     O
O      0.96892  0.65135  0.39198     O
O      0.96892  0.65135  0.60802     O
O      0.96892  0.84865  0.10802     O
O      0.96892  0.84865  0.89198     O
O      0.96892  0.89198  0.15135     O
O      0.96892  0.89198  0.84865     O
O      0.96899  0.14347   0.1869     O
O      0.96899  0.14347   0.8131     O
O      0.96899   0.1869  0.14347     O
O      0.96899   0.1869  0.85653     O
O      0.96899   0.3131  0.35653     O
O      0.96899   0.3131  0.64347     O
O      0.96899  0.35653   0.3131     O
O      0.96899  0.35653   0.6869     O
O      0.96899  0.64347   0.3131     O
O      0.96899  0.64347   0.6869     O
O      0.96899   0.6869  0.35653     O
O      0.96899   0.6869  0.64347     O
O      0.96899   0.8131  0.14347     O
O      0.96899   0.8131  0.85653     O
O      0.96899  0.85653   0.1869     O
O      0.96899  0.85653   0.8131     O
