data_I
_chemical_name_common  '/home/zhangsd/repos/MofS-CGCNN/ML/data/TSD/clean_cifs/OMIPEH_clean'
_cell_length_a 44.47420
_cell_length_b 44.47420
_cell_length_c 44.47420
_cell_angle_alpha 90.00000
_cell_angle_beta  90.00000
_cell_angle_gamma 90.00000
_space_group_name_H-M_alt      'P 1'


loop_
_space_group_symop_operation_xyz
  'x, y, z' 

loop_
_atom_site_label
_atom_site_fract_x
_atom_site_fract_y
_atom_site_fract_z
_atom_site_type_symbol
Cu         0.0  0.12656  0.12656    Cu
Cu         0.0  0.12656  0.87344    Cu
Cu         0.0  0.16867  0.16867    Cu
Cu         0.0  0.16867  0.83133    Cu
Cu         0.0  0.33133  0.33133    Cu
Cu         0.0  0.33133  0.66867    Cu
Cu         0.0  0.37344  0.37344    Cu
Cu         0.0  0.37344  0.62656    Cu
Cu         0.0  0.62656  0.37344    Cu
Cu         0.0  0.62656  0.62656    Cu
Cu         0.0  0.66867  0.33133    Cu
Cu         0.0  0.66867  0.66867    Cu
Cu         0.0  0.83133  0.16867    Cu
Cu         0.0  0.83133  0.83133    Cu
Cu         0.0  0.87344  0.12656    Cu
Cu         0.0  0.87344  0.87344    Cu
O      0.03059  0.14352  0.18716     O
O      0.03059  0.14352  0.81284     O
O      0.03059  0.18716  0.14352     O
O      0.03059  0.18716  0.85648     O
O      0.03059  0.31284  0.35648     O
O      0.03059  0.31284  0.64352     O
O      0.03059  0.35648  0.31284     O
O      0.03059  0.35648  0.68716     O
O      0.03059  0.64352  0.31284     O
O      0.03059  0.64352  0.68716     O
O      0.03059  0.68716  0.35648     O
O      0.03059  0.68716  0.64352     O
O      0.03059  0.81284  0.14352     O
O      0.03059  0.81284  0.85648     O
O      0.03059  0.85648  0.18716     O
O      0.03059  0.85648  0.81284     O
O       0.0308  0.10747   0.1518     O
O       0.0308  0.10747   0.8482     O
O       0.0308   0.1518  0.10747     O
O       0.0308   0.1518  0.89253     O
O       0.0308   0.3482  0.39253     O
O       0.0308   0.3482  0.60747     O
O       0.0308  0.39253   0.3482     O
O       0.0308  0.39253   0.6518     O
O       0.0308  0.60747   0.3482     O
O       0.0308  0.60747   0.6518     O
O       0.0308   0.6518  0.39253     O
O       0.0308   0.6518  0.60747     O
O       0.0308   0.8482  0.10747     O
O       0.0308   0.8482  0.89253     O
O       0.0308  0.89253   0.1518     O
O       0.0308  0.89253   0.8482     O
C      0.04004  0.12091  0.17482     C
C      0.04004  0.12091  0.82518     C
C      0.04004  0.17482  0.12091     C
C      0.04004  0.17482  0.87909     C
C      0.04004  0.32518  0.37909     C
C      0.04004  0.32518  0.62091     C
C      0.04004  0.37909  0.32518     C
C      0.04004  0.37909  0.67482     C
C      0.04004  0.62091  0.32518     C
C      0.04004  0.62091  0.67482     C
C      0.04004  0.67482  0.37909     C
C      0.04004  0.67482  0.62091     C
C      0.04004  0.82518  0.12091     C
C      0.04004  0.82518  0.87909     C
C      0.04004  0.87909  0.17482     C
C      0.04004  0.87909  0.82518     C
C      0.06648  0.10528  0.19021     C
C      0.06648  0.10528  0.80979     C
C      0.06648  0.19021  0.10528     C
C      0.06648  0.19021  0.89472     C
C      0.06648  0.30979  0.39472     C
C      0.06648  0.30979  0.60528     C
C      0.06648  0.39472  0.30979     C
C      0.06648  0.39472  0.69021     C
C      0.06648  0.60528  0.30979     C
C      0.06648  0.60528  0.69021     C
C      0.06648  0.69021  0.39472     C
C      0.06648  0.69021  0.60528     C
C      0.06648  0.80979  0.10528     C
C      0.06648  0.80979  0.89472     C
C      0.06648  0.89472  0.19021     C
C      0.06648  0.89472  0.80979     C
H      0.06731  0.13161  0.22654     H
H      0.06731  0.13161  0.77346     H
H      0.06731  0.22654  0.13161     H
H      0.06731  0.22654  0.86839     H
H      0.06731  0.27346  0.36839     H
H      0.06731  0.27346  0.63161     H
H      0.06731  0.36839  0.27346     H
H      0.06731  0.36839  0.72654     H
H      0.06731  0.63161  0.27346     H
H      0.06731  0.63161  0.72654     H
H      0.06731  0.72654  0.36839     H
H      0.06731  0.72654  0.63161     H
H      0.06731  0.77346  0.13161     H
H      0.06731  0.77346  0.86839     H
H      0.06731  0.86839  0.22654     H
H      0.06731  0.86839  0.77346     H
H      0.07278  0.07278  0.15955     H
H      0.07278  0.07278  0.84045     H
H      0.07278  0.15955  0.07278     H
H      0.07278  0.15955  0.92722     H
H      0.07278  0.34045  0.42722     H
H      0.07278  0.34045  0.57278     H
H      0.07278  0.42722  0.34045     H
H      0.07278  0.42722  0.65955     H
H      0.07278  0.57278  0.34045     H
H      0.07278  0.57278  0.65955     H
H      0.07278  0.65955  0.42722     H
H      0.07278  0.65955  0.57278     H
H      0.07278  0.84045  0.07278     H
H      0.07278  0.84045  0.92722     H
H      0.07278  0.92722  0.15955     H
H      0.07278  0.92722  0.84045     H
C      0.07728  0.11625  0.21645     C
C      0.07728  0.11625  0.78355     C
C      0.07728  0.21645  0.11625     C
C      0.07728  0.21645  0.88375     C
C      0.07728  0.28355  0.38375     C
C      0.07728  0.28355  0.61625     C
C      0.07728  0.38375  0.28355     C
C      0.07728  0.38375  0.71645     C
C      0.07728  0.61625  0.28355     C
C      0.07728  0.61625  0.71645     C
C      0.07728  0.71645  0.38375     C
C      0.07728  0.71645  0.61625     C
C      0.07728  0.78355  0.11625     C
C      0.07728  0.78355  0.88375     C
C      0.07728  0.88375  0.21645     C
C      0.07728  0.88375  0.78355     C
C      0.08043  0.08043  0.17745     C
C      0.08043  0.08043  0.82255     C
C      0.08043  0.17745  0.08043     C
C      0.08043  0.17745  0.91957     C
C      0.08043  0.32255  0.41957     C
C      0.08043  0.32255  0.58043     C
C      0.08043  0.41957  0.32255     C
C      0.08043  0.41957  0.67745     C
C      0.08043  0.58043  0.32255     C
C      0.08043  0.58043  0.67745     C
C      0.08043  0.67745  0.41957     C
C      0.08043  0.67745  0.58043     C
C      0.08043  0.82255  0.08043     C
C      0.08043  0.82255  0.91957     C
C      0.08043  0.91957  0.17745     C
C      0.08043  0.91957  0.82255     C
N      0.10352  0.13891  0.27094     N
N      0.10352  0.13891  0.72906     N
N      0.10352  0.22906  0.36109     N
N      0.10352  0.22906  0.63891     N
N      0.10352  0.27094  0.13891     N
N      0.10352  0.27094  0.86109     N
N      0.10352  0.36109  0.22906     N
N      0.10352  0.36109  0.77094     N
N      0.10352  0.63891  0.22906     N
N      0.10352  0.63891  0.77094     N
N      0.10352  0.72906  0.13891     N
N      0.10352  0.72906  0.86109     N
N      0.10352  0.77094  0.36109     N
N      0.10352  0.77094  0.63891     N
N      0.10352  0.86109  0.27094     N
N      0.10352  0.86109  0.72906     N
C       0.1039   0.1039   0.2281     C
C       0.1039   0.1039   0.7719     C
C       0.1039   0.2281   0.1039     C
C       0.1039   0.2281   0.8961     C
C       0.1039   0.2719   0.3961     C
C       0.1039   0.2719   0.6039     C
C       0.1039   0.3961   0.2719     C
C       0.1039   0.3961   0.7281     C
C       0.1039   0.6039   0.2719     C
C       0.1039   0.6039   0.7281     C
C       0.1039   0.7281   0.3961     C
C       0.1039   0.7281   0.6039     C
C       0.1039   0.7719   0.1039     C
C       0.1039   0.7719   0.8961     C
C       0.1039   0.8961   0.2281     C
C       0.1039   0.8961   0.7719     C
C      0.10528  0.06648  0.19021     C
C      0.10528  0.06648  0.80979     C
C      0.10528  0.19021  0.06648     C
C      0.10528  0.19021  0.93352     C
C      0.10528  0.30979  0.43352     C
C      0.10528  0.30979  0.56648     C
C      0.10528  0.43352  0.30979     C
C      0.10528  0.43352  0.69021     C
C      0.10528  0.56648  0.30979     C
C      0.10528  0.56648  0.69021     C
C      0.10528  0.69021  0.43352     C
C      0.10528  0.69021  0.56648     C
C      0.10528  0.80979  0.06648     C
C      0.10528  0.80979  0.93352     C
C      0.10528  0.93352  0.19021     C
C      0.10528  0.93352  0.80979     C
O      0.10747   0.0308   0.1518     O
O      0.10747   0.0308   0.8482     O
O      0.10747   0.1518   0.0308     O
O      0.10747   0.1518   0.9692     O
O      0.10747   0.3482   0.4692     O
O      0.10747   0.3482   0.5308     O
O      0.10747   0.4692   0.3482     O
O      0.10747   0.4692   0.6518     O
O      0.10747   0.5308   0.3482     O
O      0.10747   0.5308   0.6518     O
O      0.10747   0.6518   0.4692     O
O      0.10747   0.6518   0.5308     O
O      0.10747   0.8482   0.0308     O
O      0.10747   0.8482   0.9692     O
O      0.10747   0.9692   0.1518     O
O      0.10747   0.9692   0.8482     O
C      0.11625  0.07728  0.21645     C
C      0.11625  0.07728  0.78355     C
C      0.11625  0.21645  0.07728     C
C      0.11625  0.21645  0.92272     C
C      0.11625  0.28355  0.42272     C
C      0.11625  0.28355  0.57728     C
C      0.11625  0.42272  0.28355     C
C      0.11625  0.42272  0.71645     C
C      0.11625  0.57728  0.28355     C
C      0.11625  0.57728  0.71645     C
C      0.11625  0.71645  0.42272     C
C      0.11625  0.71645  0.57728     C
C      0.11625  0.78355  0.07728     C
C      0.11625  0.78355  0.92272     C
C      0.11625  0.92272  0.21645     C
C      0.11625  0.92272  0.78355     C
C      0.11874  0.11874    0.256     C
C      0.11874  0.11874    0.744     C
C      0.11874    0.244  0.38126     C
C      0.11874    0.244  0.61874     C
C      0.11874    0.256  0.11874     C
C      0.11874    0.256  0.88126     C
C      0.11874  0.38126    0.244     C
C      0.11874  0.38126    0.756     C
C      0.11874  0.61874    0.244     C
C      0.11874  0.61874    0.756     C
C      0.11874    0.744  0.11874     C
C      0.11874    0.744  0.88126     C
C      0.11874    0.756  0.38126     C
C      0.11874    0.756  0.61874     C
C      0.11874  0.88126    0.256     C
C      0.11874  0.88126    0.744     C
C      0.12091  0.04004  0.17482     C
C      0.12091  0.04004  0.82518     C
C      0.12091  0.17482  0.04004     C
C      0.12091  0.17482  0.95996     C
C      0.12091  0.32518  0.45996     C
C      0.12091  0.32518  0.54004     C
C      0.12091  0.45996  0.32518     C
C      0.12091  0.45996  0.67482     C
C      0.12091  0.54004  0.32518     C
C      0.12091  0.54004  0.67482     C
C      0.12091  0.67482  0.45996     C
C      0.12091  0.67482  0.54004     C
C      0.12091  0.82518  0.04004     C
C      0.12091  0.82518  0.95996     C
C      0.12091  0.95996  0.17482     C
C      0.12091  0.95996  0.82518     C
Cu     0.12195  0.17496  0.32504    Cu
Cu     0.12195  0.17496  0.67496    Cu
Cu     0.12195  0.32504  0.17496    Cu
Cu     0.12195  0.32504  0.82504    Cu
Cu     0.12195  0.67496  0.17496    Cu
Cu     0.12195  0.67496  0.82504    Cu
Cu     0.12195  0.82504  0.32504    Cu
Cu     0.12195  0.82504  0.67496    Cu
N      0.12575  0.14567  0.29256     N
N      0.12575  0.14567  0.70744     N
N      0.12575  0.20744  0.35433     N
N      0.12575  0.20744  0.64567     N
N      0.12575  0.29256  0.14567     N
N      0.12575  0.29256  0.85433     N
N      0.12575  0.35433  0.20744     N
N      0.12575  0.35433  0.79256     N
N      0.12575  0.64567  0.20744     N
N      0.12575  0.64567  0.79256     N
N      0.12575  0.70744  0.14567     N
N      0.12575  0.70744  0.85433     N
N      0.12575  0.79256  0.35433     N
N      0.12575  0.79256  0.64567     N
N      0.12575  0.85433  0.29256     N
N      0.12575  0.85433  0.70744     N
Cu     0.12656      0.0  0.12656    Cu
Cu     0.12656      0.0  0.87344    Cu
Cu     0.12656  0.12656      0.0    Cu
Cu     0.12656  0.37344      0.5    Cu
Cu     0.12656      0.5  0.37344    Cu
Cu     0.12656      0.5  0.62656    Cu
Cu     0.12656  0.62656      0.5    Cu
Cu     0.12656  0.87344      0.0    Cu
H      0.13161  0.06731  0.22654     H
H      0.13161  0.06731  0.77346     H
H      0.13161  0.22654  0.06731     H
H      0.13161  0.22654  0.93269     H
H      0.13161  0.27346  0.43269     H
H      0.13161  0.27346  0.56731     H
H      0.13161  0.43269  0.27346     H
H      0.13161  0.43269  0.72654     H
H      0.13161  0.56731  0.27346     H
H      0.13161  0.56731  0.72654     H
H      0.13161  0.72654  0.43269     H
H      0.13161  0.72654  0.56731     H
H      0.13161  0.77346  0.06731     H
H      0.13161  0.77346  0.93269     H
H      0.13161  0.93269  0.22654     H
H      0.13161  0.93269  0.77346     H
N      0.13891  0.10352  0.27094     N
N      0.13891  0.10352  0.72906     N
N      0.13891  0.22906  0.39648     N
N      0.13891  0.22906  0.60352     N
N      0.13891  0.27094  0.10352     N
N      0.13891  0.27094  0.89648     N
N      0.13891  0.39648  0.22906     N
N      0.13891  0.39648  0.77094     N
N      0.13891  0.60352  0.22906     N
N      0.13891  0.60352  0.77094     N
N      0.13891  0.72906  0.10352     N
N      0.13891  0.72906  0.89648     N
N      0.13891  0.77094  0.39648     N
N      0.13891  0.77094  0.60352     N
N      0.13891  0.89648  0.27094     N
N      0.13891  0.89648  0.72906     N
O      0.14352  0.03059  0.18716     O
O      0.14352  0.03059  0.81284     O
O      0.14352  0.18716  0.03059     O
O      0.14352  0.18716  0.96941     O
O      0.14352  0.31284  0.46941     O
O      0.14352  0.31284  0.53059     O
O      0.14352  0.46941  0.31284     O
O      0.14352  0.46941  0.68716     O
O      0.14352  0.53059  0.31284     O
O      0.14352  0.53059  0.68716     O
O      0.14352  0.68716  0.46941     O
O      0.14352  0.68716  0.53059     O
O      0.14352  0.81284  0.03059     O
O      0.14352  0.81284  0.96941     O
O      0.14352  0.96941  0.18716     O
O      0.14352  0.96941  0.81284     O
N      0.14567  0.12575  0.29256     N
N      0.14567  0.12575  0.70744     N
N      0.14567  0.20744  0.37425     N
N      0.14567  0.20744  0.62575     N
N      0.14567  0.29256  0.12575     N
N      0.14567  0.29256  0.87425     N
N      0.14567  0.37425  0.20744     N
N      0.14567  0.37425  0.79256     N
N      0.14567  0.62575  0.20744     N
N      0.14567  0.62575  0.79256     N
N      0.14567  0.70744  0.12575     N
N      0.14567  0.70744  0.87425     N
N      0.14567  0.79256  0.37425     N
N      0.14567  0.79256  0.62575     N
N      0.14567  0.87425  0.29256     N
N      0.14567  0.87425  0.70744     N
O       0.1518   0.0308  0.10747     O
O       0.1518   0.0308  0.89253     O
O       0.1518  0.10747   0.0308     O
O       0.1518  0.10747   0.9692     O
O       0.1518  0.39253   0.4692     O
O       0.1518  0.39253   0.5308     O
O       0.1518   0.4692  0.39253     O
O       0.1518   0.4692  0.60747     O
O       0.1518   0.5308  0.39253     O
O       0.1518   0.5308  0.60747     O
O       0.1518  0.60747   0.4692     O
O       0.1518  0.60747   0.5308     O
O       0.1518  0.89253   0.0308     O
O       0.1518  0.89253   0.9692     O
O       0.1518   0.9692  0.10747     O
O       0.1518   0.9692  0.89253     O
H      0.15955  0.07278  0.07278     H
H      0.15955  0.07278  0.92722     H
H      0.15955  0.42722  0.42722     H
H      0.15955  0.42722  0.57278     H
H      0.15955  0.57278  0.42722     H
H      0.15955  0.57278  0.57278     H
H      0.15955  0.92722  0.07278     H
H      0.15955  0.92722  0.92722     H
O       0.1607   0.1607   0.3393     O
O       0.1607   0.1607   0.6607     O
O       0.1607   0.3393   0.1607     O
O       0.1607   0.3393   0.8393     O
O       0.1607   0.6607   0.1607     O
O       0.1607   0.6607   0.8393     O
O       0.1607   0.8393   0.3393     O
O       0.1607   0.8393   0.6607     O
Cu     0.16867      0.0  0.16867    Cu
Cu     0.16867      0.0  0.83133    Cu
Cu     0.16867  0.16867      0.0    Cu
Cu     0.16867  0.33133      0.5    Cu
Cu     0.16867      0.5  0.33133    Cu
Cu     0.16867      0.5  0.66867    Cu
Cu     0.16867  0.66867      0.5    Cu
Cu     0.16867  0.83133      0.0    Cu
C      0.17482  0.04004  0.12091     C
C      0.17482  0.04004  0.87909     C
C      0.17482  0.12091  0.04004     C
C      0.17482  0.12091  0.95996     C
C      0.17482  0.37909  0.45996     C
C      0.17482  0.37909  0.54004     C
C      0.17482  0.45996  0.37909     C
C      0.17482  0.45996  0.62091     C
C      0.17482  0.54004  0.37909     C
C      0.17482  0.54004  0.62091     C
C      0.17482  0.62091  0.45996     C
C      0.17482  0.62091  0.54004     C
C      0.17482  0.87909  0.04004     C
C      0.17482  0.87909  0.95996     C
C      0.17482  0.95996  0.12091     C
C      0.17482  0.95996  0.87909     C
Cu     0.17496  0.12195  0.32504    Cu
Cu     0.17496  0.12195  0.67496    Cu
Cu     0.17496  0.17496  0.37805    Cu
Cu     0.17496  0.17496  0.62195    Cu
Cu     0.17496  0.32504  0.12195    Cu
Cu     0.17496  0.32504  0.87805    Cu
Cu     0.17496  0.37805  0.17496    Cu
Cu     0.17496  0.37805  0.82504    Cu
Cu     0.17496  0.62195  0.17496    Cu
Cu     0.17496  0.62195  0.82504    Cu
Cu     0.17496  0.67496  0.12195    Cu
Cu     0.17496  0.67496  0.87805    Cu
Cu     0.17496  0.82504  0.37805    Cu
Cu     0.17496  0.82504  0.62195    Cu
Cu     0.17496  0.87805  0.32504    Cu
Cu     0.17496  0.87805  0.67496    Cu
C      0.17745  0.08043  0.08043     C
C      0.17745  0.08043  0.91957     C
C      0.17745  0.41957  0.41957     C
C      0.17745  0.41957  0.58043     C
C      0.17745  0.58043  0.41957     C
C      0.17745  0.58043  0.58043     C
C      0.17745  0.91957  0.08043     C
C      0.17745  0.91957  0.91957     C
O      0.18716  0.03059  0.14352     O
O      0.18716  0.03059  0.85648     O
O      0.18716  0.14352  0.03059     O
O      0.18716  0.14352  0.96941     O
O      0.18716  0.35648  0.46941     O
O      0.18716  0.35648  0.53059     O
O      0.18716  0.46941  0.35648     O
O      0.18716  0.46941  0.64352     O
O      0.18716  0.53059  0.35648     O
O      0.18716  0.53059  0.64352     O
O      0.18716  0.64352  0.46941     O
O      0.18716  0.64352  0.53059     O
O      0.18716  0.85648  0.03059     O
O      0.18716  0.85648  0.96941     O
O      0.18716  0.96941  0.14352     O
O      0.18716  0.96941  0.85648     O
C      0.19021  0.06648  0.10528     C
C      0.19021  0.06648  0.89472     C
C      0.19021  0.10528  0.06648     C
C      0.19021  0.10528  0.93352     C
C      0.19021  0.39472  0.43352     C
C      0.19021  0.39472  0.56648     C
C      0.19021  0.43352  0.39472     C
C      0.19021  0.43352  0.60528     C
C      0.19021  0.56648  0.39472     C
C      0.19021  0.56648  0.60528     C
C      0.19021  0.60528  0.43352     C
C      0.19021  0.60528  0.56648     C
C      0.19021  0.89472  0.06648     C
C      0.19021  0.89472  0.93352     C
C      0.19021  0.93352  0.10528     C
C      0.19021  0.93352  0.89472     C
N      0.20744  0.12575  0.35433     N
N      0.20744  0.12575  0.64567     N
N      0.20744  0.14567  0.37425     N
N      0.20744  0.14567  0.62575     N
N      0.20744  0.35433  0.12575     N
N      0.20744  0.35433  0.87425     N
N      0.20744  0.37425  0.14567     N
N      0.20744  0.37425  0.85433     N
N      0.20744  0.62575  0.14567     N
N      0.20744  0.62575  0.85433     N
N      0.20744  0.64567  0.12575     N
N      0.20744  0.64567  0.87425     N
N      0.20744  0.85433  0.37425     N
N      0.20744  0.85433  0.62575     N
N      0.20744  0.87425  0.35433     N
N      0.20744  0.87425  0.64567     N
C      0.21645  0.07728  0.11625     C
C      0.21645  0.07728  0.88375     C
C      0.21645  0.11625  0.07728     C
C      0.21645  0.11625  0.92272     C
C      0.21645  0.38375  0.42272     C
C      0.21645  0.38375  0.57728     C
C      0.21645  0.42272  0.38375     C
C      0.21645  0.42272  0.61625     C
C      0.21645  0.57728  0.38375     C
C      0.21645  0.57728  0.61625     C
C      0.21645  0.61625  0.42272     C
C      0.21645  0.61625  0.57728     C
C      0.21645  0.88375  0.07728     C
C      0.21645  0.88375  0.92272     C
C      0.21645  0.92272  0.11625     C
C      0.21645  0.92272  0.88375     C
H      0.22654  0.06731  0.13161     H
H      0.22654  0.06731  0.86839     H
H      0.22654  0.13161  0.06731     H
H      0.22654  0.13161  0.93269     H
H      0.22654  0.36839  0.43269     H
H      0.22654  0.36839  0.56731     H
H      0.22654  0.43269  0.36839     H
H      0.22654  0.43269  0.63161     H
H      0.22654  0.56731  0.36839     H
H      0.22654  0.56731  0.63161     H
H      0.22654  0.63161  0.43269     H
H      0.22654  0.63161  0.56731     H
H      0.22654  0.86839  0.06731     H
H      0.22654  0.86839  0.93269     H
H      0.22654  0.93269  0.13161     H
H      0.22654  0.93269  0.86839     H
C       0.2281   0.1039   0.1039     C
C       0.2281   0.1039   0.8961     C
C       0.2281   0.3961   0.3961     C
C       0.2281   0.3961   0.6039     C
C       0.2281   0.6039   0.3961     C
C       0.2281   0.6039   0.6039     C
C       0.2281   0.8961   0.1039     C
C       0.2281   0.8961   0.8961     C
N      0.22906  0.10352  0.36109     N
N      0.22906  0.10352  0.63891     N
N      0.22906  0.13891  0.39648     N
N      0.22906  0.13891  0.60352     N
N      0.22906  0.36109  0.10352     N
N      0.22906  0.36109  0.89648     N
N      0.22906  0.39648  0.13891     N
N      0.22906  0.39648  0.86109     N
N      0.22906  0.60352  0.13891     N
N      0.22906  0.60352  0.86109     N
N      0.22906  0.63891  0.10352     N
N      0.22906  0.63891  0.89648     N
N      0.22906  0.86109  0.39648     N
N      0.22906  0.86109  0.60352     N
N      0.22906  0.89648  0.36109     N
N      0.22906  0.89648  0.63891     N
C        0.244  0.11874  0.38126     C
C        0.244  0.11874  0.61874     C
C        0.244  0.38126  0.11874     C
C        0.244  0.38126  0.88126     C
C        0.244  0.61874  0.11874     C
C        0.244  0.61874  0.88126     C
C        0.244  0.88126  0.38126     C
C        0.244  0.88126  0.61874     C
C        0.256  0.11874  0.11874     C
C        0.256  0.11874  0.88126     C
C        0.256  0.38126  0.38126     C
C        0.256  0.38126  0.61874     C
C        0.256  0.61874  0.38126     C
C        0.256  0.61874  0.61874     C
C        0.256  0.88126  0.11874     C
C        0.256  0.88126  0.88126     C
N      0.27094  0.10352  0.13891     N
N      0.27094  0.10352  0.86109     N
N      0.27094  0.13891  0.10352     N
N      0.27094  0.13891  0.89648     N
N      0.27094  0.36109  0.39648     N
N      0.27094  0.36109  0.60352     N
N      0.27094  0.39648  0.36109     N
N      0.27094  0.39648  0.63891     N
N      0.27094  0.60352  0.36109     N
N      0.27094  0.60352  0.63891     N
N      0.27094  0.63891  0.39648     N
N      0.27094  0.63891  0.60352     N
N      0.27094  0.86109  0.10352     N
N      0.27094  0.86109  0.89648     N
N      0.27094  0.89648  0.13891     N
N      0.27094  0.89648  0.86109     N
C       0.2719   0.1039   0.3961     C
C       0.2719   0.1039   0.6039     C
C       0.2719   0.3961   0.1039     C
C       0.2719   0.3961   0.8961     C
C       0.2719   0.6039   0.1039     C
C       0.2719   0.6039   0.8961     C
C       0.2719   0.8961   0.3961     C
C       0.2719   0.8961   0.6039     C
H      0.27346  0.06731  0.36839     H
H      0.27346  0.06731  0.63161     H
H      0.27346  0.13161  0.43269     H
H      0.27346  0.13161  0.56731     H
H      0.27346  0.36839  0.06731     H
H      0.27346  0.36839  0.93269     H
H      0.27346  0.43269  0.13161     H
H      0.27346  0.43269  0.86839     H
H      0.27346  0.56731  0.13161     H
H      0.27346  0.56731  0.86839     H
H      0.27346  0.63161  0.06731     H
H      0.27346  0.63161  0.93269     H
H      0.27346  0.86839  0.43269     H
H      0.27346  0.86839  0.56731     H
H      0.27346  0.93269  0.36839     H
H      0.27346  0.93269  0.63161     H
C      0.28355  0.07728  0.38375     C
C      0.28355  0.07728  0.61625     C
C      0.28355  0.11625  0.42272     C
C      0.28355  0.11625  0.57728     C
C      0.28355  0.38375  0.07728     C
C      0.28355  0.38375  0.92272     C
C      0.28355  0.42272  0.11625     C
C      0.28355  0.42272  0.88375     C
C      0.28355  0.57728  0.11625     C
C      0.28355  0.57728  0.88375     C
C      0.28355  0.61625  0.07728     C
C      0.28355  0.61625  0.92272     C
C      0.28355  0.88375  0.42272     C
C      0.28355  0.88375  0.57728     C
C      0.28355  0.92272  0.38375     C
C      0.28355  0.92272  0.61625     C
N      0.29256  0.12575  0.14567     N
N      0.29256  0.12575  0.85433     N
N      0.29256  0.14567  0.12575     N
N      0.29256  0.14567  0.87425     N
N      0.29256  0.35433  0.37425     N
N      0.29256  0.35433  0.62575     N
N      0.29256  0.37425  0.35433     N
N      0.29256  0.37425  0.64567     N
N      0.29256  0.62575  0.35433     N
N      0.29256  0.62575  0.64567     N
N      0.29256  0.64567  0.37425     N
N      0.29256  0.64567  0.62575     N
N      0.29256  0.85433  0.12575     N
N      0.29256  0.85433  0.87425     N
N      0.29256  0.87425  0.14567     N
N      0.29256  0.87425  0.85433     N
C      0.30979  0.06648  0.39472     C
C      0.30979  0.06648  0.60528     C
C      0.30979  0.10528  0.43352     C
C      0.30979  0.10528  0.56648     C
C      0.30979  0.39472  0.06648     C
C      0.30979  0.39472  0.93352     C
C      0.30979  0.43352  0.10528     C
C      0.30979  0.43352  0.89472     C
C      0.30979  0.56648  0.10528     C
C      0.30979  0.56648  0.89472     C
C      0.30979  0.60528  0.06648     C
C      0.30979  0.60528  0.93352     C
C      0.30979  0.89472  0.43352     C
C      0.30979  0.89472  0.56648     C
C      0.30979  0.93352  0.39472     C
C      0.30979  0.93352  0.60528     C
O      0.31284  0.03059  0.35648     O
O      0.31284  0.03059  0.64352     O
O      0.31284  0.14352  0.46941     O
O      0.31284  0.14352  0.53059     O
O      0.31284  0.35648  0.03059     O
O      0.31284  0.35648  0.96941     O
O      0.31284  0.46941  0.14352     O
O      0.31284  0.46941  0.85648     O
O      0.31284  0.53059  0.14352     O
O      0.31284  0.53059  0.85648     O
O      0.31284  0.64352  0.03059     O
O      0.31284  0.64352  0.96941     O
O      0.31284  0.85648  0.46941     O
O      0.31284  0.85648  0.53059     O
O      0.31284  0.96941  0.35648     O
O      0.31284  0.96941  0.64352     O
C      0.32255  0.08043  0.41957     C
C      0.32255  0.08043  0.58043     C
C      0.32255  0.41957  0.08043     C
C      0.32255  0.41957  0.91957     C
C      0.32255  0.58043  0.08043     C
C      0.32255  0.58043  0.91957     C
C      0.32255  0.91957  0.41957     C
C      0.32255  0.91957  0.58043     C
Cu     0.32504  0.12195  0.17496    Cu
Cu     0.32504  0.12195  0.82504    Cu
Cu     0.32504  0.17496  0.12195    Cu
Cu     0.32504  0.17496  0.87805    Cu
Cu     0.32504  0.32504  0.37805    Cu
Cu     0.32504  0.32504  0.62195    Cu
Cu     0.32504  0.37805  0.32504    Cu
Cu     0.32504  0.37805  0.67496    Cu
Cu     0.32504  0.62195  0.32504    Cu
Cu     0.32504  0.62195  0.67496    Cu
Cu     0.32504  0.67496  0.37805    Cu
Cu     0.32504  0.67496  0.62195    Cu
Cu     0.32504  0.82504  0.12195    Cu
Cu     0.32504  0.82504  0.87805    Cu
Cu     0.32504  0.87805  0.17496    Cu
Cu     0.32504  0.87805  0.82504    Cu
C      0.32518  0.04004  0.37909     C
C      0.32518  0.04004  0.62091     C
C      0.32518  0.12091  0.45996     C
C      0.32518  0.12091  0.54004     C
C      0.32518  0.37909  0.04004     C
C      0.32518  0.37909  0.95996     C
C      0.32518  0.45996  0.12091     C
C      0.32518  0.45996  0.87909     C
C      0.32518  0.54004  0.12091     C
C      0.32518  0.54004  0.87909     C
C      0.32518  0.62091  0.04004     C
C      0.32518  0.62091  0.95996     C
C      0.32518  0.87909  0.45996     C
C      0.32518  0.87909  0.54004     C
C      0.32518  0.95996  0.37909     C
C      0.32518  0.95996  0.62091     C
Cu     0.33133      0.0  0.33133    Cu
Cu     0.33133      0.0  0.66867    Cu
Cu     0.33133  0.16867      0.5    Cu
Cu     0.33133  0.33133      0.0    Cu
Cu     0.33133      0.5  0.16867    Cu
Cu     0.33133      0.5  0.83133    Cu
Cu     0.33133  0.66867      0.0    Cu
Cu     0.33133  0.83133      0.5    Cu
O       0.3393   0.1607   0.1607     O
O       0.3393   0.1607   0.8393     O
O       0.3393   0.3393   0.3393     O
O       0.3393   0.3393   0.6607     O
O       0.3393   0.6607   0.3393     O
O       0.3393   0.6607   0.6607     O
O       0.3393   0.8393   0.1607     O
O       0.3393   0.8393   0.8393     O
H      0.34045  0.07278  0.42722     H
H      0.34045  0.07278  0.57278     H
H      0.34045  0.42722  0.07278     H
H      0.34045  0.42722  0.92722     H
H      0.34045  0.57278  0.07278     H
H      0.34045  0.57278  0.92722     H
H      0.34045  0.92722  0.42722     H
H      0.34045  0.92722  0.57278     H
O       0.3482   0.0308  0.39253     O
O       0.3482   0.0308  0.60747     O
O       0.3482  0.10747   0.4692     O
O       0.3482  0.10747   0.5308     O
O       0.3482  0.39253   0.0308     O
O       0.3482  0.39253   0.9692     O
O       0.3482   0.4692  0.10747     O
O       0.3482   0.4692  0.89253     O
O       0.3482   0.5308  0.10747     O
O       0.3482   0.5308  0.89253     O
O       0.3482  0.60747   0.0308     O
O       0.3482  0.60747   0.9692     O
O       0.3482  0.89253   0.4692     O
O       0.3482  0.89253   0.5308     O
O       0.3482   0.9692  0.39253     O
O       0.3482   0.9692  0.60747     O
N      0.35433  0.12575  0.20744     N
N      0.35433  0.12575  0.79256     N
N      0.35433  0.20744  0.12575     N
N      0.35433  0.20744  0.87425     N
N      0.35433  0.29256  0.37425     N
N      0.35433  0.29256  0.62575     N
N      0.35433  0.37425  0.29256     N
N      0.35433  0.37425  0.70744     N
N      0.35433  0.62575  0.29256     N
N      0.35433  0.62575  0.70744     N
N      0.35433  0.70744  0.37425     N
N      0.35433  0.70744  0.62575     N
N      0.35433  0.79256  0.12575     N
N      0.35433  0.79256  0.87425     N
N      0.35433  0.87425  0.20744     N
N      0.35433  0.87425  0.79256     N
O      0.35648  0.03059  0.31284     O
O      0.35648  0.03059  0.68716     O
O      0.35648  0.18716  0.46941     O
O      0.35648  0.18716  0.53059     O
O      0.35648  0.31284  0.03059     O
O      0.35648  0.31284  0.96941     O
O      0.35648  0.46941  0.18716     O
O      0.35648  0.46941  0.81284     O
O      0.35648  0.53059  0.18716     O
O      0.35648  0.53059  0.81284     O
O      0.35648  0.68716  0.03059     O
O      0.35648  0.68716  0.96941     O
O      0.35648  0.81284  0.46941     O
O      0.35648  0.81284  0.53059     O
O      0.35648  0.96941  0.31284     O
O      0.35648  0.96941  0.68716     O
N      0.36109  0.10352  0.22906     N
N      0.36109  0.10352  0.77094     N
N      0.36109  0.22906  0.10352     N
N      0.36109  0.22906  0.89648     N
N      0.36109  0.27094  0.39648     N
N      0.36109  0.27094  0.60352     N
N      0.36109  0.39648  0.27094     N
N      0.36109  0.39648  0.72906     N
N      0.36109  0.60352  0.27094     N
N      0.36109  0.60352  0.72906     N
N      0.36109  0.72906  0.39648     N
N      0.36109  0.72906  0.60352     N
N      0.36109  0.77094  0.10352     N
N      0.36109  0.77094  0.89648     N
N      0.36109  0.89648  0.22906     N
N      0.36109  0.89648  0.77094     N
H      0.36839  0.06731  0.27346     H
H      0.36839  0.06731  0.72654     H
H      0.36839  0.22654  0.43269     H
H      0.36839  0.22654  0.56731     H
H      0.36839  0.27346  0.06731     H
H      0.36839  0.27346  0.93269     H
H      0.36839  0.43269  0.22654     H
H      0.36839  0.43269  0.77346     H
H      0.36839  0.56731  0.22654     H
H      0.36839  0.56731  0.77346     H
H      0.36839  0.72654  0.06731     H
H      0.36839  0.72654  0.93269     H
H      0.36839  0.77346  0.43269     H
H      0.36839  0.77346  0.56731     H
H      0.36839  0.93269  0.27346     H
H      0.36839  0.93269  0.72654     H
Cu     0.37344      0.0  0.37344    Cu
Cu     0.37344      0.0  0.62656    Cu
Cu     0.37344  0.12656      0.5    Cu
Cu     0.37344  0.37344      0.0    Cu
Cu     0.37344      0.5  0.12656    Cu
Cu     0.37344      0.5  0.87344    Cu
Cu     0.37344  0.62656      0.0    Cu
Cu     0.37344  0.87344      0.5    Cu
N      0.37425  0.14567  0.20744     N
N      0.37425  0.14567  0.79256     N
N      0.37425  0.20744  0.14567     N
N      0.37425  0.20744  0.85433     N
N      0.37425  0.29256  0.35433     N
N      0.37425  0.29256  0.64567     N
N      0.37425  0.35433  0.29256     N
N      0.37425  0.35433  0.70744     N
N      0.37425  0.64567  0.29256     N
N      0.37425  0.64567  0.70744     N
N      0.37425  0.70744  0.35433     N
N      0.37425  0.70744  0.64567     N
N      0.37425  0.79256  0.14567     N
N      0.37425  0.79256  0.85433     N
N      0.37425  0.85433  0.20744     N
N      0.37425  0.85433  0.79256     N
Cu     0.37805  0.17496  0.17496    Cu
Cu     0.37805  0.17496  0.82504    Cu
Cu     0.37805  0.32504  0.32504    Cu
Cu     0.37805  0.32504  0.67496    Cu
Cu     0.37805  0.67496  0.32504    Cu
Cu     0.37805  0.67496  0.67496    Cu
Cu     0.37805  0.82504  0.17496    Cu
Cu     0.37805  0.82504  0.82504    Cu
C      0.37909  0.04004  0.32518     C
C      0.37909  0.04004  0.67482     C
C      0.37909  0.17482  0.45996     C
C      0.37909  0.17482  0.54004     C
C      0.37909  0.32518  0.04004     C
C      0.37909  0.32518  0.95996     C
C      0.37909  0.45996  0.17482     C
C      0.37909  0.45996  0.82518     C
C      0.37909  0.54004  0.17482     C
C      0.37909  0.54004  0.82518     C
C      0.37909  0.67482  0.04004     C
C      0.37909  0.67482  0.95996     C
C      0.37909  0.82518  0.45996     C
C      0.37909  0.82518  0.54004     C
C      0.37909  0.95996  0.32518     C
C      0.37909  0.95996  0.67482     C
C      0.38126  0.11874    0.244     C
C      0.38126  0.11874    0.756     C
C      0.38126    0.244  0.11874     C
C      0.38126    0.244  0.88126     C
C      0.38126    0.256  0.38126     C
C      0.38126    0.256  0.61874     C
C      0.38126  0.38126    0.256     C
C      0.38126  0.38126    0.744     C
C      0.38126  0.61874    0.256     C
C      0.38126  0.61874    0.744     C
C      0.38126    0.744  0.38126     C
C      0.38126    0.744  0.61874     C
C      0.38126    0.756  0.11874     C
C      0.38126    0.756  0.88126     C
C      0.38126  0.88126    0.244     C
C      0.38126  0.88126    0.756     C
C      0.38375  0.07728  0.28355     C
C      0.38375  0.07728  0.71645     C
C      0.38375  0.21645  0.42272     C
C      0.38375  0.21645  0.57728     C
C      0.38375  0.28355  0.07728     C
C      0.38375  0.28355  0.92272     C
C      0.38375  0.42272  0.21645     C
C      0.38375  0.42272  0.78355     C
C      0.38375  0.57728  0.21645     C
C      0.38375  0.57728  0.78355     C
C      0.38375  0.71645  0.07728     C
C      0.38375  0.71645  0.92272     C
C      0.38375  0.78355  0.42272     C
C      0.38375  0.78355  0.57728     C
C      0.38375  0.92272  0.28355     C
C      0.38375  0.92272  0.71645     C
O      0.39253   0.0308   0.3482     O
O      0.39253   0.0308   0.6518     O
O      0.39253   0.1518   0.4692     O
O      0.39253   0.1518   0.5308     O
O      0.39253   0.3482   0.0308     O
O      0.39253   0.3482   0.9692     O
O      0.39253   0.4692   0.1518     O
O      0.39253   0.4692   0.8482     O
O      0.39253   0.5308   0.1518     O
O      0.39253   0.5308   0.8482     O
O      0.39253   0.6518   0.0308     O
O      0.39253   0.6518   0.9692     O
O      0.39253   0.8482   0.4692     O
O      0.39253   0.8482   0.5308     O
O      0.39253   0.9692   0.3482     O
O      0.39253   0.9692   0.6518     O
C      0.39472  0.06648  0.30979     C
C      0.39472  0.06648  0.69021     C
C      0.39472  0.19021  0.43352     C
C      0.39472  0.19021  0.56648     C
C      0.39472  0.30979  0.06648     C
C      0.39472  0.30979  0.93352     C
C      0.39472  0.43352  0.19021     C
C      0.39472  0.43352  0.80979     C
C      0.39472  0.56648  0.19021     C
C      0.39472  0.56648  0.80979     C
C      0.39472  0.69021  0.06648     C
C      0.39472  0.69021  0.93352     C
C      0.39472  0.80979  0.43352     C
C      0.39472  0.80979  0.56648     C
C      0.39472  0.93352  0.30979     C
C      0.39472  0.93352  0.69021     C
C       0.3961   0.1039   0.2719     C
C       0.3961   0.1039   0.7281     C
C       0.3961   0.2281   0.3961     C
C       0.3961   0.2281   0.6039     C
C       0.3961   0.2719   0.1039     C
C       0.3961   0.2719   0.8961     C
C       0.3961   0.3961   0.2281     C
C       0.3961   0.3961   0.7719     C
C       0.3961   0.6039   0.2281     C
C       0.3961   0.6039   0.7719     C
C       0.3961   0.7281   0.1039     C
C       0.3961   0.7281   0.8961     C
C       0.3961   0.7719   0.3961     C
C       0.3961   0.7719   0.6039     C
C       0.3961   0.8961   0.2719     C
C       0.3961   0.8961   0.7281     C
N      0.39648  0.13891  0.22906     N
N      0.39648  0.13891  0.77094     N
N      0.39648  0.22906  0.13891     N
N      0.39648  0.22906  0.86109     N
N      0.39648  0.27094  0.36109     N
N      0.39648  0.27094  0.63891     N
N      0.39648  0.36109  0.27094     N
N      0.39648  0.36109  0.72906     N
N      0.39648  0.63891  0.27094     N
N      0.39648  0.63891  0.72906     N
N      0.39648  0.72906  0.36109     N
N      0.39648  0.72906  0.63891     N
N      0.39648  0.77094  0.13891     N
N      0.39648  0.77094  0.86109     N
N      0.39648  0.86109  0.22906     N
N      0.39648  0.86109  0.77094     N
C      0.41957  0.08043  0.32255     C
C      0.41957  0.08043  0.67745     C
C      0.41957  0.17745  0.41957     C
C      0.41957  0.17745  0.58043     C
C      0.41957  0.32255  0.08043     C
C      0.41957  0.32255  0.91957     C
C      0.41957  0.41957  0.17745     C
C      0.41957  0.41957  0.82255     C
C      0.41957  0.58043  0.17745     C
C      0.41957  0.58043  0.82255     C
C      0.41957  0.67745  0.08043     C
C      0.41957  0.67745  0.91957     C
C      0.41957  0.82255  0.41957     C
C      0.41957  0.82255  0.58043     C
C      0.41957  0.91957  0.32255     C
C      0.41957  0.91957  0.67745     C
C      0.42272  0.11625  0.28355     C
C      0.42272  0.11625  0.71645     C
C      0.42272  0.21645  0.38375     C
C      0.42272  0.21645  0.61625     C
C      0.42272  0.28355  0.11625     C
C      0.42272  0.28355  0.88375     C
C      0.42272  0.38375  0.21645     C
C      0.42272  0.38375  0.78355     C
C      0.42272  0.61625  0.21645     C
C      0.42272  0.61625  0.78355     C
C      0.42272  0.71645  0.11625     C
C      0.42272  0.71645  0.88375     C
C      0.42272  0.78355  0.38375     C
C      0.42272  0.78355  0.61625     C
C      0.42272  0.88375  0.28355     C
C      0.42272  0.88375  0.71645     C
H      0.42722  0.07278  0.34045     H
H      0.42722  0.07278  0.65955     H
H      0.42722  0.15955  0.42722     H
H      0.42722  0.15955  0.57278     H
H      0.42722  0.34045  0.07278     H
H      0.42722  0.34045  0.92722     H
H      0.42722  0.42722  0.15955     H
H      0.42722  0.42722  0.84045     H
H      0.42722  0.57278  0.15955     H
H      0.42722  0.57278  0.84045     H
H      0.42722  0.65955  0.07278     H
H      0.42722  0.65955  0.92722     H
H      0.42722  0.84045  0.42722     H
H      0.42722  0.84045  0.57278     H
H      0.42722  0.92722  0.34045     H
H      0.42722  0.92722  0.65955     H
H      0.43269  0.13161  0.27346     H
H      0.43269  0.13161  0.72654     H
H      0.43269  0.22654  0.36839     H
H      0.43269  0.22654  0.63161     H
H      0.43269  0.27346  0.13161     H
H      0.43269  0.27346  0.86839     H
H      0.43269  0.36839  0.22654     H
H      0.43269  0.36839  0.77346     H
H      0.43269  0.63161  0.22654     H
H      0.43269  0.63161  0.77346     H
H      0.43269  0.72654  0.13161     H
H      0.43269  0.72654  0.86839     H
H      0.43269  0.77346  0.36839     H
H      0.43269  0.77346  0.63161     H
H      0.43269  0.86839  0.27346     H
H      0.43269  0.86839  0.72654     H
C      0.43352  0.10528  0.30979     C
C      0.43352  0.10528  0.69021     C
C      0.43352  0.19021  0.39472     C
C      0.43352  0.19021  0.60528     C
C      0.43352  0.30979  0.10528     C
C      0.43352  0.30979  0.89472     C
C      0.43352  0.39472  0.19021     C
C      0.43352  0.39472  0.80979     C
C      0.43352  0.60528  0.19021     C
C      0.43352  0.60528  0.80979     C
C      0.43352  0.69021  0.10528     C
C      0.43352  0.69021  0.89472     C
C      0.43352  0.80979  0.39472     C
C      0.43352  0.80979  0.60528     C
C      0.43352  0.89472  0.30979     C
C      0.43352  0.89472  0.69021     C
C      0.45996  0.12091  0.32518     C
C      0.45996  0.12091  0.67482     C
C      0.45996  0.17482  0.37909     C
C      0.45996  0.17482  0.62091     C
C      0.45996  0.32518  0.12091     C
C      0.45996  0.32518  0.87909     C
C      0.45996  0.37909  0.17482     C
C      0.45996  0.37909  0.82518     C
C      0.45996  0.62091  0.17482     C
C      0.45996  0.62091  0.82518     C
C      0.45996  0.67482  0.12091     C
C      0.45996  0.67482  0.87909     C
C      0.45996  0.82518  0.37909     C
C      0.45996  0.82518  0.62091     C
C      0.45996  0.87909  0.32518     C
C      0.45996  0.87909  0.67482     C
O       0.4692  0.10747   0.3482     O
O       0.4692  0.10747   0.6518     O
O       0.4692   0.1518  0.39253     O
O       0.4692   0.1518  0.60747     O
O       0.4692   0.3482  0.10747     O
O       0.4692   0.3482  0.89253     O
O       0.4692  0.39253   0.1518     O
O       0.4692  0.39253   0.8482     O
O       0.4692  0.60747   0.1518     O
O       0.4692  0.60747   0.8482     O
O       0.4692   0.6518  0.10747     O
O       0.4692   0.6518  0.89253     O
O       0.4692   0.8482  0.39253     O
O       0.4692   0.8482  0.60747     O
O       0.4692  0.89253   0.3482     O
O       0.4692  0.89253   0.6518     O
O      0.46941  0.14352  0.31284     O
O      0.46941  0.14352  0.68716     O
O      0.46941  0.18716  0.35648     O
O      0.46941  0.18716  0.64352     O
O      0.46941  0.31284  0.14352     O
O      0.46941  0.31284  0.85648     O
O      0.46941  0.35648  0.18716     O
O      0.46941  0.35648  0.81284     O
O      0.46941  0.64352  0.18716     O
O      0.46941  0.64352  0.81284     O
O      0.46941  0.68716  0.14352     O
O      0.46941  0.68716  0.85648     O
O      0.46941  0.81284  0.35648     O
O      0.46941  0.81284  0.64352     O
O      0.46941  0.85648  0.31284     O
O      0.46941  0.85648  0.68716     O
Cu         0.5  0.12656  0.37344    Cu
Cu         0.5  0.12656  0.62656    Cu
Cu         0.5  0.16867  0.33133    Cu
Cu         0.5  0.16867  0.66867    Cu
Cu         0.5  0.33133  0.16867    Cu
Cu         0.5  0.33133  0.83133    Cu
Cu         0.5  0.37344  0.12656    Cu
Cu         0.5  0.37344  0.87344    Cu
Cu         0.5  0.62656  0.12656    Cu
Cu         0.5  0.62656  0.87344    Cu
Cu         0.5  0.66867  0.16867    Cu
Cu         0.5  0.66867  0.83133    Cu
Cu         0.5  0.83133  0.33133    Cu
Cu         0.5  0.83133  0.66867    Cu
Cu         0.5  0.87344  0.37344    Cu
Cu         0.5  0.87344  0.62656    Cu
O      0.53059  0.14352  0.31284     O
O      0.53059  0.14352  0.68716     O
O      0.53059  0.18716  0.35648     O
O      0.53059  0.18716  0.64352     O
O      0.53059  0.31284  0.14352     O
O      0.53059  0.31284  0.85648     O
O      0.53059  0.35648  0.18716     O
O      0.53059  0.35648  0.81284     O
O      0.53059  0.64352  0.18716     O
O      0.53059  0.64352  0.81284     O
O      0.53059  0.68716  0.14352     O
O      0.53059  0.68716  0.85648     O
O      0.53059  0.81284  0.35648     O
O      0.53059  0.81284  0.64352     O
O      0.53059  0.85648  0.31284     O
O      0.53059  0.85648  0.68716     O
O       0.5308  0.10747   0.3482     O
O       0.5308  0.10747   0.6518     O
O       0.5308   0.1518  0.39253     O
O       0.5308   0.1518  0.60747     O
O       0.5308   0.3482  0.10747     O
O       0.5308   0.3482  0.89253     O
O       0.5308  0.39253   0.1518     O
O       0.5308  0.39253   0.8482     O
O       0.5308  0.60747   0.1518     O
O       0.5308  0.60747   0.8482     O
O       0.5308   0.6518  0.10747     O
O       0.5308   0.6518  0.89253     O
O       0.5308   0.8482  0.39253     O
O       0.5308   0.8482  0.60747     O
O       0.5308  0.89253   0.3482     O
O       0.5308  0.89253   0.6518     O
C      0.54004  0.12091  0.32518     C
C      0.54004  0.12091  0.67482     C
C      0.54004  0.17482  0.37909     C
C      0.54004  0.17482  0.62091     C
C      0.54004  0.32518  0.12091     C
C      0.54004  0.32518  0.87909     C
C      0.54004  0.37909  0.17482     C
C      0.54004  0.37909  0.82518     C
C      0.54004  0.62091  0.17482     C
C      0.54004  0.62091  0.82518     C
C      0.54004  0.67482  0.12091     C
C      0.54004  0.67482  0.87909     C
C      0.54004  0.82518  0.37909     C
C      0.54004  0.82518  0.62091     C
C      0.54004  0.87909  0.32518     C
C      0.54004  0.87909  0.67482     C
C      0.56648  0.10528  0.30979     C
C      0.56648  0.10528  0.69021     C
C      0.56648  0.19021  0.39472     C
C      0.56648  0.19021  0.60528     C
C      0.56648  0.30979  0.10528     C
C      0.56648  0.30979  0.89472     C
C      0.56648  0.39472  0.19021     C
C      0.56648  0.39472  0.80979     C
C      0.56648  0.60528  0.19021     C
C      0.56648  0.60528  0.80979     C
C      0.56648  0.69021  0.10528     C
C      0.56648  0.69021  0.89472     C
C      0.56648  0.80979  0.39472     C
C      0.56648  0.80979  0.60528     C
C      0.56648  0.89472  0.30979     C
C      0.56648  0.89472  0.69021     C
H      0.56731  0.13161  0.27346     H
H      0.56731  0.13161  0.72654     H
H      0.56731  0.22654  0.36839     H
H      0.56731  0.22654  0.63161     H
H      0.56731  0.27346  0.13161     H
H      0.56731  0.27346  0.86839     H
H      0.56731  0.36839  0.22654     H
H      0.56731  0.36839  0.77346     H
H      0.56731  0.63161  0.22654     H
H      0.56731  0.63161  0.77346     H
H      0.56731  0.72654  0.13161     H
H      0.56731  0.72654  0.86839     H
H      0.56731  0.77346  0.36839     H
H      0.56731  0.77346  0.63161     H
H      0.56731  0.86839  0.27346     H
H      0.56731  0.86839  0.72654     H
H      0.57278  0.07278  0.34045     H
H      0.57278  0.07278  0.65955     H
H      0.57278  0.15955  0.42722     H
H      0.57278  0.15955  0.57278     H
H      0.57278  0.34045  0.07278     H
H      0.57278  0.34045  0.92722     H
H      0.57278  0.42722  0.15955     H
H      0.57278  0.42722  0.84045     H
H      0.57278  0.57278  0.15955     H
H      0.57278  0.57278  0.84045     H
H      0.57278  0.65955  0.07278     H
H      0.57278  0.65955  0.92722     H
H      0.57278  0.84045  0.42722     H
H      0.57278  0.84045  0.57278     H
H      0.57278  0.92722  0.34045     H
H      0.57278  0.92722  0.65955     H
C      0.57728  0.11625  0.28355     C
C      0.57728  0.11625  0.71645     C
C      0.57728  0.21645  0.38375     C
C      0.57728  0.21645  0.61625     C
C      0.57728  0.28355  0.11625     C
C      0.57728  0.28355  0.88375     C
C      0.57728  0.38375  0.21645     C
C      0.57728  0.38375  0.78355     C
C      0.57728  0.61625  0.21645     C
C      0.57728  0.61625  0.78355     C
C      0.57728  0.71645  0.11625     C
C      0.57728  0.71645  0.88375     C
C      0.57728  0.78355  0.38375     C
C      0.57728  0.78355  0.61625     C
C      0.57728  0.88375  0.28355     C
C      0.57728  0.88375  0.71645     C
C      0.58043  0.08043  0.32255     C
C      0.58043  0.08043  0.67745     C
C      0.58043  0.17745  0.41957     C
C      0.58043  0.17745  0.58043     C
C      0.58043  0.32255  0.08043     C
C      0.58043  0.32255  0.91957     C
C      0.58043  0.41957  0.17745     C
C      0.58043  0.41957  0.82255     C
C      0.58043  0.58043  0.17745     C
C      0.58043  0.58043  0.82255     C
C      0.58043  0.67745  0.08043     C
C      0.58043  0.67745  0.91957     C
C      0.58043  0.82255  0.41957     C
C      0.58043  0.82255  0.58043     C
C      0.58043  0.91957  0.32255     C
C      0.58043  0.91957  0.67745     C
N      0.60352  0.13891  0.22906     N
N      0.60352  0.13891  0.77094     N
N      0.60352  0.22906  0.13891     N
N      0.60352  0.22906  0.86109     N
N      0.60352  0.27094  0.36109     N
N      0.60352  0.27094  0.63891     N
N      0.60352  0.36109  0.27094     N
N      0.60352  0.36109  0.72906     N
N      0.60352  0.63891  0.27094     N
N      0.60352  0.63891  0.72906     N
N      0.60352  0.72906  0.36109     N
N      0.60352  0.72906  0.63891     N
N      0.60352  0.77094  0.13891     N
N      0.60352  0.77094  0.86109     N
N      0.60352  0.86109  0.22906     N
N      0.60352  0.86109  0.77094     N
C       0.6039   0.1039   0.2719     C
C       0.6039   0.1039   0.7281     C
C       0.6039   0.2281   0.3961     C
C       0.6039   0.2281   0.6039     C
C       0.6039   0.2719   0.1039     C
C       0.6039   0.2719   0.8961     C
C       0.6039   0.3961   0.2281     C
C       0.6039   0.3961   0.7719     C
C       0.6039   0.6039   0.2281     C
C       0.6039   0.6039   0.7719     C
C       0.6039   0.7281   0.1039     C
C       0.6039   0.7281   0.8961     C
C       0.6039   0.7719   0.3961     C
C       0.6039   0.7719   0.6039     C
C       0.6039   0.8961   0.2719     C
C       0.6039   0.8961   0.7281     C
C      0.60528  0.06648  0.30979     C
C      0.60528  0.06648  0.69021     C
C      0.60528  0.19021  0.43352     C
C      0.60528  0.19021  0.56648     C
C      0.60528  0.30979  0.06648     C
C      0.60528  0.30979  0.93352     C
C      0.60528  0.43352  0.19021     C
C      0.60528  0.43352  0.80979     C
C      0.60528  0.56648  0.19021     C
C      0.60528  0.56648  0.80979     C
C      0.60528  0.69021  0.06648     C
C      0.60528  0.69021  0.93352     C
C      0.60528  0.80979  0.43352     C
C      0.60528  0.80979  0.56648     C
C      0.60528  0.93352  0.30979     C
C      0.60528  0.93352  0.69021     C
O      0.60747   0.0308   0.3482     O
O      0.60747   0.0308   0.6518     O
O      0.60747   0.1518   0.4692     O
O      0.60747   0.1518   0.5308     O
O      0.60747   0.3482   0.0308     O
O      0.60747   0.3482   0.9692     O
O      0.60747   0.4692   0.1518     O
O      0.60747   0.4692   0.8482     O
O      0.60747   0.5308   0.1518     O
O      0.60747   0.5308   0.8482     O
O      0.60747   0.6518   0.0308     O
O      0.60747   0.6518   0.9692     O
O      0.60747   0.8482   0.4692     O
O      0.60747   0.8482   0.5308     O
O      0.60747   0.9692   0.3482     O
O      0.60747   0.9692   0.6518     O
C      0.61625  0.07728  0.28355     C
C      0.61625  0.07728  0.71645     C
C      0.61625  0.21645  0.42272     C
C      0.61625  0.21645  0.57728     C
C      0.61625  0.28355  0.07728     C
C      0.61625  0.28355  0.92272     C
C      0.61625  0.42272  0.21645     C
C      0.61625  0.42272  0.78355     C
C      0.61625  0.57728  0.21645     C
C      0.61625  0.57728  0.78355     C
C      0.61625  0.71645  0.07728     C
C      0.61625  0.71645  0.92272     C
C      0.61625  0.78355  0.42272     C
C      0.61625  0.78355  0.57728     C
C      0.61625  0.92272  0.28355     C
C      0.61625  0.92272  0.71645     C
C      0.61874  0.11874    0.244     C
C      0.61874  0.11874    0.756     C
C      0.61874    0.244  0.11874     C
C      0.61874    0.244  0.88126     C
C      0.61874    0.256  0.38126     C
C      0.61874    0.256  0.61874     C
C      0.61874  0.38126    0.256     C
C      0.61874  0.38126    0.744     C
C      0.61874  0.61874    0.256     C
C      0.61874  0.61874    0.744     C
C      0.61874    0.744  0.38126     C
C      0.61874    0.744  0.61874     C
C      0.61874    0.756  0.11874     C
C      0.61874    0.756  0.88126     C
C      0.61874  0.88126    0.244     C
C      0.61874  0.88126    0.756     C
C      0.62091  0.04004  0.32518     C
C      0.62091  0.04004  0.67482     C
C      0.62091  0.17482  0.45996     C
C      0.62091  0.17482  0.54004     C
C      0.62091  0.32518  0.04004     C
C      0.62091  0.32518  0.95996     C
C      0.62091  0.45996  0.17482     C
C      0.62091  0.45996  0.82518     C
C      0.62091  0.54004  0.17482     C
C      0.62091  0.54004  0.82518     C
C      0.62091  0.67482  0.04004     C
C      0.62091  0.67482  0.95996     C
C      0.62091  0.82518  0.45996     C
C      0.62091  0.82518  0.54004     C
C      0.62091  0.95996  0.32518     C
C      0.62091  0.95996  0.67482     C
Cu     0.62195  0.17496  0.17496    Cu
Cu     0.62195  0.17496  0.82504    Cu
Cu     0.62195  0.32504  0.32504    Cu
Cu     0.62195  0.32504  0.67496    Cu
Cu     0.62195  0.67496  0.32504    Cu
Cu     0.62195  0.67496  0.67496    Cu
Cu     0.62195  0.82504  0.17496    Cu
Cu     0.62195  0.82504  0.82504    Cu
N      0.62575  0.14567  0.20744     N
N      0.62575  0.14567  0.79256     N
N      0.62575  0.20744  0.14567     N
N      0.62575  0.20744  0.85433     N
N      0.62575  0.29256  0.35433     N
N      0.62575  0.29256  0.64567     N
N      0.62575  0.35433  0.29256     N
N      0.62575  0.35433  0.70744     N
N      0.62575  0.64567  0.29256     N
N      0.62575  0.64567  0.70744     N
N      0.62575  0.70744  0.35433     N
N      0.62575  0.70744  0.64567     N
N      0.62575  0.79256  0.14567     N
N      0.62575  0.79256  0.85433     N
N      0.62575  0.85433  0.20744     N
N      0.62575  0.85433  0.79256     N
Cu     0.62656      0.0  0.37344    Cu
Cu     0.62656      0.0  0.62656    Cu
Cu     0.62656  0.12656      0.5    Cu
Cu     0.62656  0.37344      0.0    Cu
Cu     0.62656      0.5  0.12656    Cu
Cu     0.62656      0.5  0.87344    Cu
Cu     0.62656  0.62656      0.0    Cu
Cu     0.62656  0.87344      0.5    Cu
H      0.63161  0.06731  0.27346     H
H      0.63161  0.06731  0.72654     H
H      0.63161  0.22654  0.43269     H
H      0.63161  0.22654  0.56731     H
H      0.63161  0.27346  0.06731     H
H      0.63161  0.27346  0.93269     H
H      0.63161  0.43269  0.22654     H
H      0.63161  0.43269  0.77346     H
H      0.63161  0.56731  0.22654     H
H      0.63161  0.56731  0.77346     H
H      0.63161  0.72654  0.06731     H
H      0.63161  0.72654  0.93269     H
H      0.63161  0.77346  0.43269     H
H      0.63161  0.77346  0.56731     H
H      0.63161  0.93269  0.27346     H
H      0.63161  0.93269  0.72654     H
N      0.63891  0.10352  0.22906     N
N      0.63891  0.10352  0.77094     N
N      0.63891  0.22906  0.10352     N
N      0.63891  0.22906  0.89648     N
N      0.63891  0.27094  0.39648     N
N      0.63891  0.27094  0.60352     N
N      0.63891  0.39648  0.27094     N
N      0.63891  0.39648  0.72906     N
N      0.63891  0.60352  0.27094     N
N      0.63891  0.60352  0.72906     N
N      0.63891  0.72906  0.39648     N
N      0.63891  0.72906  0.60352     N
N      0.63891  0.77094  0.10352     N
N      0.63891  0.77094  0.89648     N
N      0.63891  0.89648  0.22906     N
N      0.63891  0.89648  0.77094     N
O      0.64352  0.03059  0.31284     O
O      0.64352  0.03059  0.68716     O
O      0.64352  0.18716  0.46941     O
O      0.64352  0.18716  0.53059     O
O      0.64352  0.31284  0.03059     O
O      0.64352  0.31284  0.96941     O
O      0.64352  0.46941  0.18716     O
O      0.64352  0.46941  0.81284     O
O      0.64352  0.53059  0.18716     O
O      0.64352  0.53059  0.81284     O
O      0.64352  0.68716  0.03059     O
O      0.64352  0.68716  0.96941     O
O      0.64352  0.81284  0.46941     O
O      0.64352  0.81284  0.53059     O
O      0.64352  0.96941  0.31284     O
O      0.64352  0.96941  0.68716     O
N      0.64567  0.12575  0.20744     N
N      0.64567  0.12575  0.79256     N
N      0.64567  0.20744  0.12575     N
N      0.64567  0.20744  0.87425     N
N      0.64567  0.29256  0.37425     N
N      0.64567  0.29256  0.62575     N
N      0.64567  0.37425  0.29256     N
N      0.64567  0.37425  0.70744     N
N      0.64567  0.62575  0.29256     N
N      0.64567  0.62575  0.70744     N
N      0.64567  0.70744  0.37425     N
N      0.64567  0.70744  0.62575     N
N      0.64567  0.79256  0.12575     N
N      0.64567  0.79256  0.87425     N
N      0.64567  0.87425  0.20744     N
N      0.64567  0.87425  0.79256     N
O       0.6518   0.0308  0.39253     O
O       0.6518   0.0308  0.60747     O
O       0.6518  0.10747   0.4692     O
O       0.6518  0.10747   0.5308     O
O       0.6518  0.39253   0.0308     O
O       0.6518  0.39253   0.9692     O
O       0.6518   0.4692  0.10747     O
O       0.6518   0.4692  0.89253     O
O       0.6518   0.5308  0.10747     O
O       0.6518   0.5308  0.89253     O
O       0.6518  0.60747   0.0308     O
O       0.6518  0.60747   0.9692     O
O       0.6518  0.89253   0.4692     O
O       0.6518  0.89253   0.5308     O
O       0.6518   0.9692  0.39253     O
O       0.6518   0.9692  0.60747     O
H      0.65955  0.07278  0.42722     H
H      0.65955  0.07278  0.57278     H
H      0.65955  0.42722  0.07278     H
H      0.65955  0.42722  0.92722     H
H      0.65955  0.57278  0.07278     H
H      0.65955  0.57278  0.92722     H
H      0.65955  0.92722  0.42722     H
H      0.65955  0.92722  0.57278     H
O       0.6607   0.1607   0.1607     O
O       0.6607   0.1607   0.8393     O
O       0.6607   0.3393   0.3393     O
O       0.6607   0.3393   0.6607     O
O       0.6607   0.6607   0.3393     O
O       0.6607   0.6607   0.6607     O
O       0.6607   0.8393   0.1607     O
O       0.6607   0.8393   0.8393     O
Cu     0.66867      0.0  0.33133    Cu
Cu     0.66867      0.0  0.66867    Cu
Cu     0.66867  0.16867      0.5    Cu
Cu     0.66867  0.33133      0.0    Cu
Cu     0.66867      0.5  0.16867    Cu
Cu     0.66867      0.5  0.83133    Cu
Cu     0.66867  0.66867      0.0    Cu
Cu     0.66867  0.83133      0.5    Cu
C      0.67482  0.04004  0.37909     C
C      0.67482  0.04004  0.62091     C
C      0.67482  0.12091  0.45996     C
C      0.67482  0.12091  0.54004     C
C      0.67482  0.37909  0.04004     C
C      0.67482  0.37909  0.95996     C
C      0.67482  0.45996  0.12091     C
C      0.67482  0.45996  0.87909     C
C      0.67482  0.54004  0.12091     C
C      0.67482  0.54004  0.87909     C
C      0.67482  0.62091  0.04004     C
C      0.67482  0.62091  0.95996     C
C      0.67482  0.87909  0.45996     C
C      0.67482  0.87909  0.54004     C
C      0.67482  0.95996  0.37909     C
C      0.67482  0.95996  0.62091     C
Cu     0.67496  0.12195  0.17496    Cu
Cu     0.67496  0.12195  0.82504    Cu
Cu     0.67496  0.17496  0.12195    Cu
Cu     0.67496  0.17496  0.87805    Cu
Cu     0.67496  0.32504  0.37805    Cu
Cu     0.67496  0.32504  0.62195    Cu
Cu     0.67496  0.37805  0.32504    Cu
Cu     0.67496  0.37805  0.67496    Cu
Cu     0.67496  0.62195  0.32504    Cu
Cu     0.67496  0.62195  0.67496    Cu
Cu     0.67496  0.67496  0.37805    Cu
Cu     0.67496  0.67496  0.62195    Cu
Cu     0.67496  0.82504  0.12195    Cu
Cu     0.67496  0.82504  0.87805    Cu
Cu     0.67496  0.87805  0.17496    Cu
Cu     0.67496  0.87805  0.82504    Cu
C      0.67745  0.08043  0.41957     C
C      0.67745  0.08043  0.58043     C
C      0.67745  0.41957  0.08043     C
C      0.67745  0.41957  0.91957     C
C      0.67745  0.58043  0.08043     C
C      0.67745  0.58043  0.91957     C
C      0.67745  0.91957  0.41957     C
C      0.67745  0.91957  0.58043     C
O      0.68716  0.03059  0.35648     O
O      0.68716  0.03059  0.64352     O
O      0.68716  0.14352  0.46941     O
O      0.68716  0.14352  0.53059     O
O      0.68716  0.35648  0.03059     O
O      0.68716  0.35648  0.96941     O
O      0.68716  0.46941  0.14352     O
O      0.68716  0.46941  0.85648     O
O      0.68716  0.53059  0.14352     O
O      0.68716  0.53059  0.85648     O
O      0.68716  0.64352  0.03059     O
O      0.68716  0.64352  0.96941     O
O      0.68716  0.85648  0.46941     O
O      0.68716  0.85648  0.53059     O
O      0.68716  0.96941  0.35648     O
O      0.68716  0.96941  0.64352     O
C      0.69021  0.06648  0.39472     C
C      0.69021  0.06648  0.60528     C
C      0.69021  0.10528  0.43352     C
C      0.69021  0.10528  0.56648     C
C      0.69021  0.39472  0.06648     C
C      0.69021  0.39472  0.93352     C
C      0.69021  0.43352  0.10528     C
C      0.69021  0.43352  0.89472     C
C      0.69021  0.56648  0.10528     C
C      0.69021  0.56648  0.89472     C
C      0.69021  0.60528  0.06648     C
C      0.69021  0.60528  0.93352     C
C      0.69021  0.89472  0.43352     C
C      0.69021  0.89472  0.56648     C
C      0.69021  0.93352  0.39472     C
C      0.69021  0.93352  0.60528     C
N      0.70744  0.12575  0.14567     N
N      0.70744  0.12575  0.85433     N
N      0.70744  0.14567  0.12575     N
N      0.70744  0.14567  0.87425     N
N      0.70744  0.35433  0.37425     N
N      0.70744  0.35433  0.62575     N
N      0.70744  0.37425  0.35433     N
N      0.70744  0.37425  0.64567     N
N      0.70744  0.62575  0.35433     N
N      0.70744  0.62575  0.64567     N
N      0.70744  0.64567  0.37425     N
N      0.70744  0.64567  0.62575     N
N      0.70744  0.85433  0.12575     N
N      0.70744  0.85433  0.87425     N
N      0.70744  0.87425  0.14567     N
N      0.70744  0.87425  0.85433     N
C      0.71645  0.07728  0.38375     C
C      0.71645  0.07728  0.61625     C
C      0.71645  0.11625  0.42272     C
C      0.71645  0.11625  0.57728     C
C      0.71645  0.38375  0.07728     C
C      0.71645  0.38375  0.92272     C
C      0.71645  0.42272  0.11625     C
C      0.71645  0.42272  0.88375     C
C      0.71645  0.57728  0.11625     C
C      0.71645  0.57728  0.88375     C
C      0.71645  0.61625  0.07728     C
C      0.71645  0.61625  0.92272     C
C      0.71645  0.88375  0.42272     C
C      0.71645  0.88375  0.57728     C
C      0.71645  0.92272  0.38375     C
C      0.71645  0.92272  0.61625     C
H      0.72654  0.06731  0.36839     H
H      0.72654  0.06731  0.63161     H
H      0.72654  0.13161  0.43269     H
H      0.72654  0.13161  0.56731     H
H      0.72654  0.36839  0.06731     H
H      0.72654  0.36839  0.93269     H
H      0.72654  0.43269  0.13161     H
H      0.72654  0.43269  0.86839     H
H      0.72654  0.56731  0.13161     H
H      0.72654  0.56731  0.86839     H
H      0.72654  0.63161  0.06731     H
H      0.72654  0.63161  0.93269     H
H      0.72654  0.86839  0.43269     H
H      0.72654  0.86839  0.56731     H
H      0.72654  0.93269  0.36839     H
H      0.72654  0.93269  0.63161     H
C       0.7281   0.1039   0.3961     C
C       0.7281   0.1039   0.6039     C
C       0.7281   0.3961   0.1039     C
C       0.7281   0.3961   0.8961     C
C       0.7281   0.6039   0.1039     C
C       0.7281   0.6039   0.8961     C
C       0.7281   0.8961   0.3961     C
C       0.7281   0.8961   0.6039     C
N      0.72906  0.10352  0.13891     N
N      0.72906  0.10352  0.86109     N
N      0.72906  0.13891  0.10352     N
N      0.72906  0.13891  0.89648     N
N      0.72906  0.36109  0.39648     N
N      0.72906  0.36109  0.60352     N
N      0.72906  0.39648  0.36109     N
N      0.72906  0.39648  0.63891     N
N      0.72906  0.60352  0.36109     N
N      0.72906  0.60352  0.63891     N
N      0.72906  0.63891  0.39648     N
N      0.72906  0.63891  0.60352     N
N      0.72906  0.86109  0.10352     N
N      0.72906  0.86109  0.89648     N
N      0.72906  0.89648  0.13891     N
N      0.72906  0.89648  0.86109     N
C        0.744  0.11874  0.11874     C
C        0.744  0.11874  0.88126     C
C        0.744  0.38126  0.38126     C
C        0.744  0.38126  0.61874     C
C        0.744  0.61874  0.38126     C
C        0.744  0.61874  0.61874     C
C        0.744  0.88126  0.11874     C
C        0.744  0.88126  0.88126     C
C        0.756  0.11874  0.38126     C
C        0.756  0.11874  0.61874     C
C        0.756  0.38126  0.11874     C
C        0.756  0.38126  0.88126     C
C        0.756  0.61874  0.11874     C
C        0.756  0.61874  0.88126     C
C        0.756  0.88126  0.38126     C
C        0.756  0.88126  0.61874     C
N      0.77094  0.10352  0.36109     N
N      0.77094  0.10352  0.63891     N
N      0.77094  0.13891  0.39648     N
N      0.77094  0.13891  0.60352     N
N      0.77094  0.36109  0.10352     N
N      0.77094  0.36109  0.89648     N
N      0.77094  0.39648  0.13891     N
N      0.77094  0.39648  0.86109     N
N      0.77094  0.60352  0.13891     N
N      0.77094  0.60352  0.86109     N
N      0.77094  0.63891  0.10352     N
N      0.77094  0.63891  0.89648     N
N      0.77094  0.86109  0.39648     N
N      0.77094  0.86109  0.60352     N
N      0.77094  0.89648  0.36109     N
N      0.77094  0.89648  0.63891     N
C       0.7719   0.1039   0.1039     C
C       0.7719   0.1039   0.8961     C
C       0.7719   0.3961   0.3961     C
C       0.7719   0.3961   0.6039     C
C       0.7719   0.6039   0.3961     C
C       0.7719   0.6039   0.6039     C
C       0.7719   0.8961   0.1039     C
C       0.7719   0.8961   0.8961     C
H      0.77346  0.06731  0.13161     H
H      0.77346  0.06731  0.86839     H
H      0.77346  0.13161  0.06731     H
H      0.77346  0.13161  0.93269     H
H      0.77346  0.36839  0.43269     H
H      0.77346  0.36839  0.56731     H
H      0.77346  0.43269  0.36839     H
H      0.77346  0.43269  0.63161     H
H      0.77346  0.56731  0.36839     H
H      0.77346  0.56731  0.63161     H
H      0.77346  0.63161  0.43269     H
H      0.77346  0.63161  0.56731     H
H      0.77346  0.86839  0.06731     H
H      0.77346  0.86839  0.93269     H
H      0.77346  0.93269  0.13161     H
H      0.77346  0.93269  0.86839     H
C      0.78355  0.07728  0.11625     C
C      0.78355  0.07728  0.88375     C
C      0.78355  0.11625  0.07728     C
C      0.78355  0.11625  0.92272     C
C      0.78355  0.38375  0.42272     C
C      0.78355  0.38375  0.57728     C
C      0.78355  0.42272  0.38375     C
C      0.78355  0.42272  0.61625     C
C      0.78355  0.57728  0.38375     C
C      0.78355  0.57728  0.61625     C
C      0.78355  0.61625  0.42272     C
C      0.78355  0.61625  0.57728     C
C      0.78355  0.88375  0.07728     C
C      0.78355  0.88375  0.92272     C
C      0.78355  0.92272  0.11625     C
C      0.78355  0.92272  0.88375     C
N      0.79256  0.12575  0.35433     N
N      0.79256  0.12575  0.64567     N
N      0.79256  0.14567  0.37425     N
N      0.79256  0.14567  0.62575     N
N      0.79256  0.35433  0.12575     N
N      0.79256  0.35433  0.87425     N
N      0.79256  0.37425  0.14567     N
N      0.79256  0.37425  0.85433     N
N      0.79256  0.62575  0.14567     N
N      0.79256  0.62575  0.85433     N
N      0.79256  0.64567  0.12575     N
N      0.79256  0.64567  0.87425     N
N      0.79256  0.85433  0.37425     N
N      0.79256  0.85433  0.62575     N
N      0.79256  0.87425  0.35433     N
N      0.79256  0.87425  0.64567     N
C      0.80979  0.06648  0.10528     C
C      0.80979  0.06648  0.89472     C
C      0.80979  0.10528  0.06648     C
C      0.80979  0.10528  0.93352     C
C      0.80979  0.39472  0.43352     C
C      0.80979  0.39472  0.56648     C
C      0.80979  0.43352  0.39472     C
C      0.80979  0.43352  0.60528     C
C      0.80979  0.56648  0.39472     C
C      0.80979  0.56648  0.60528     C
C      0.80979  0.60528  0.43352     C
C      0.80979  0.60528  0.56648     C
C      0.80979  0.89472  0.06648     C
C      0.80979  0.89472  0.93352     C
C      0.80979  0.93352  0.10528     C
C      0.80979  0.93352  0.89472     C
O      0.81284  0.03059  0.14352     O
O      0.81284  0.03059  0.85648     O
O      0.81284  0.14352  0.03059     O
O      0.81284  0.14352  0.96941     O
O      0.81284  0.35648  0.46941     O
O      0.81284  0.35648  0.53059     O
O      0.81284  0.46941  0.35648     O
O      0.81284  0.46941  0.64352     O
O      0.81284  0.53059  0.35648     O
O      0.81284  0.53059  0.64352     O
O      0.81284  0.64352  0.46941     O
O      0.81284  0.64352  0.53059     O
O      0.81284  0.85648  0.03059     O
O      0.81284  0.85648  0.96941     O
O      0.81284  0.96941  0.14352     O
O      0.81284  0.96941  0.85648     O
C      0.82255  0.08043  0.08043     C
C      0.82255  0.08043  0.91957     C
C      0.82255  0.41957  0.41957     C
C      0.82255  0.41957  0.58043     C
C      0.82255  0.58043  0.41957     C
C      0.82255  0.58043  0.58043     C
C      0.82255  0.91957  0.08043     C
C      0.82255  0.91957  0.91957     C
Cu     0.82504  0.12195  0.32504    Cu
Cu     0.82504  0.12195  0.67496    Cu
Cu     0.82504  0.17496  0.37805    Cu
Cu     0.82504  0.17496  0.62195    Cu
Cu     0.82504  0.32504  0.12195    Cu
Cu     0.82504  0.32504  0.87805    Cu
Cu     0.82504  0.37805  0.17496    Cu
Cu     0.82504  0.37805  0.82504    Cu
Cu     0.82504  0.62195  0.17496    Cu
Cu     0.82504  0.62195  0.82504    Cu
Cu     0.82504  0.67496  0.12195    Cu
Cu     0.82504  0.67496  0.87805    Cu
Cu     0.82504  0.82504  0.37805    Cu
Cu     0.82504  0.82504  0.62195    Cu
Cu     0.82504  0.87805  0.32504    Cu
Cu     0.82504  0.87805  0.67496    Cu
C      0.82518  0.04004  0.12091     C
C      0.82518  0.04004  0.87909     C
C      0.82518  0.12091  0.04004     C
C      0.82518  0.12091  0.95996     C
C      0.82518  0.37909  0.45996     C
C      0.82518  0.37909  0.54004     C
C      0.82518  0.45996  0.37909     C
C      0.82518  0.45996  0.62091     C
C      0.82518  0.54004  0.37909     C
C      0.82518  0.54004  0.62091     C
C      0.82518  0.62091  0.45996     C
C      0.82518  0.62091  0.54004     C
C      0.82518  0.87909  0.04004     C
C      0.82518  0.87909  0.95996     C
C      0.82518  0.95996  0.12091     C
C      0.82518  0.95996  0.87909     C
Cu     0.83133      0.0  0.16867    Cu
Cu     0.83133      0.0  0.83133    Cu
Cu     0.83133  0.16867      0.0    Cu
Cu     0.83133  0.33133      0.5    Cu
Cu     0.83133      0.5  0.33133    Cu
Cu     0.83133      0.5  0.66867    Cu
Cu     0.83133  0.66867      0.5    Cu
Cu     0.83133  0.83133      0.0    Cu
O       0.8393   0.1607   0.3393     O
O       0.8393   0.1607   0.6607     O
O       0.8393   0.3393   0.1607     O
O       0.8393   0.3393   0.8393     O
O       0.8393   0.6607   0.1607     O
O       0.8393   0.6607   0.8393     O
O       0.8393   0.8393   0.3393     O
O       0.8393   0.8393   0.6607     O
H      0.84045  0.07278  0.07278     H
H      0.84045  0.07278  0.92722     H
H      0.84045  0.42722  0.42722     H
H      0.84045  0.42722  0.57278     H
H      0.84045  0.57278  0.42722     H
H      0.84045  0.57278  0.57278     H
H      0.84045  0.92722  0.07278     H
H      0.84045  0.92722  0.92722     H
O       0.8482   0.0308  0.10747     O
O       0.8482   0.0308  0.89253     O
O       0.8482  0.10747   0.0308     O
O       0.8482  0.10747   0.9692     O
O       0.8482  0.39253   0.4692     O
O       0.8482  0.39253   0.5308     O
O       0.8482   0.4692  0.39253     O
O       0.8482   0.4692  0.60747     O
O       0.8482   0.5308  0.39253     O
O       0.8482   0.5308  0.60747     O
O       0.8482  0.60747   0.4692     O
O       0.8482  0.60747   0.5308     O
O       0.8482  0.89253   0.0308     O
O       0.8482  0.89253   0.9692     O
O       0.8482   0.9692  0.10747     O
O       0.8482   0.9692  0.89253     O
N      0.85433  0.12575  0.29256     N
N      0.85433  0.12575  0.70744     N
N      0.85433  0.20744  0.37425     N
N      0.85433  0.20744  0.62575     N
N      0.85433  0.29256  0.12575     N
N      0.85433  0.29256  0.87425     N
N      0.85433  0.37425  0.20744     N
N      0.85433  0.37425  0.79256     N
N      0.85433  0.62575  0.20744     N
N      0.85433  0.62575  0.79256     N
N      0.85433  0.70744  0.12575     N
N      0.85433  0.70744  0.87425     N
N      0.85433  0.79256  0.37425     N
N      0.85433  0.79256  0.62575     N
N      0.85433  0.87425  0.29256     N
N      0.85433  0.87425  0.70744     N
O      0.85648  0.03059  0.18716     O
O      0.85648  0.03059  0.81284     O
O      0.85648  0.18716  0.03059     O
O      0.85648  0.18716  0.96941     O
O      0.85648  0.31284  0.46941     O
O      0.85648  0.31284  0.53059     O
O      0.85648  0.46941  0.31284     O
O      0.85648  0.46941  0.68716     O
O      0.85648  0.53059  0.31284     O
O      0.85648  0.53059  0.68716     O
O      0.85648  0.68716  0.46941     O
O      0.85648  0.68716  0.53059     O
O      0.85648  0.81284  0.03059     O
O      0.85648  0.81284  0.96941     O
O      0.85648  0.96941  0.18716     O
O      0.85648  0.96941  0.81284     O
N      0.86109  0.10352  0.27094     N
N      0.86109  0.10352  0.72906     N
N      0.86109  0.22906  0.39648     N
N      0.86109  0.22906  0.60352     N
N      0.86109  0.27094  0.10352     N
N      0.86109  0.27094  0.89648     N
N      0.86109  0.39648  0.22906     N
N      0.86109  0.39648  0.77094     N
N      0.86109  0.60352  0.22906     N
N      0.86109  0.60352  0.77094     N
N      0.86109  0.72906  0.10352     N
N      0.86109  0.72906  0.89648     N
N      0.86109  0.77094  0.39648     N
N      0.86109  0.77094  0.60352     N
N      0.86109  0.89648  0.27094     N
N      0.86109  0.89648  0.72906     N
H      0.86839  0.06731  0.22654     H
H      0.86839  0.06731  0.77346     H
H      0.86839  0.22654  0.06731     H
H      0.86839  0.22654  0.93269     H
H      0.86839  0.27346  0.43269     H
H      0.86839  0.27346  0.56731     H
H      0.86839  0.43269  0.27346     H
H      0.86839  0.43269  0.72654     H
H      0.86839  0.56731  0.27346     H
H      0.86839  0.56731  0.72654     H
H      0.86839  0.72654  0.43269     H
H      0.86839  0.72654  0.56731     H
H      0.86839  0.77346  0.06731     H
H      0.86839  0.77346  0.93269     H
H      0.86839  0.93269  0.22654     H
H      0.86839  0.93269  0.77346     H
Cu     0.87344      0.0  0.12656    Cu
Cu     0.87344      0.0  0.87344    Cu
Cu     0.87344  0.12656      0.0    Cu
Cu     0.87344  0.37344      0.5    Cu
Cu     0.87344      0.5  0.37344    Cu
Cu     0.87344      0.5  0.62656    Cu
Cu     0.87344  0.62656      0.5    Cu
Cu     0.87344  0.87344      0.0    Cu
N      0.87425  0.14567  0.29256     N
N      0.87425  0.14567  0.70744     N
N      0.87425  0.20744  0.35433     N
N      0.87425  0.20744  0.64567     N
N      0.87425  0.29256  0.14567     N
N      0.87425  0.29256  0.85433     N
N      0.87425  0.35433  0.20744     N
N      0.87425  0.35433  0.79256     N
N      0.87425  0.64567  0.20744     N
N      0.87425  0.64567  0.79256     N
N      0.87425  0.70744  0.14567     N
N      0.87425  0.70744  0.85433     N
N      0.87425  0.79256  0.35433     N
N      0.87425  0.79256  0.64567     N
N      0.87425  0.85433  0.29256     N
N      0.87425  0.85433  0.70744     N
Cu     0.87805  0.17496  0.32504    Cu
Cu     0.87805  0.17496  0.67496    Cu
Cu     0.87805  0.32504  0.17496    Cu
Cu     0.87805  0.32504  0.82504    Cu
Cu     0.87805  0.67496  0.17496    Cu
Cu     0.87805  0.67496  0.82504    Cu
Cu     0.87805  0.82504  0.32504    Cu
Cu     0.87805  0.82504  0.67496    Cu
C      0.87909  0.04004  0.17482     C
C      0.87909  0.04004  0.82518     C
C      0.87909  0.17482  0.04004     C
C      0.87909  0.17482  0.95996     C
C      0.87909  0.32518  0.45996     C
C      0.87909  0.32518  0.54004     C
C      0.87909  0.45996  0.32518     C
C      0.87909  0.45996  0.67482     C
C      0.87909  0.54004  0.32518     C
C      0.87909  0.54004  0.67482     C
C      0.87909  0.67482  0.45996     C
C      0.87909  0.67482  0.54004     C
C      0.87909  0.82518  0.04004     C
C      0.87909  0.82518  0.95996     C
C      0.87909  0.95996  0.17482     C
C      0.87909  0.95996  0.82518     C
C      0.88126  0.11874    0.256     C
C      0.88126  0.11874    0.744     C
C      0.88126    0.244  0.38126     C
C      0.88126    0.244  0.61874     C
C      0.88126    0.256  0.11874     C
C      0.88126    0.256  0.88126     C
C      0.88126  0.38126    0.244     C
C      0.88126  0.38126    0.756     C
C      0.88126  0.61874    0.244     C
C      0.88126  0.61874    0.756     C
C      0.88126    0.744  0.11874     C
C      0.88126    0.744  0.88126     C
C      0.88126    0.756  0.38126     C
C      0.88126    0.756  0.61874     C
C      0.88126  0.88126    0.256     C
C      0.88126  0.88126    0.744     C
C      0.88375  0.07728  0.21645     C
C      0.88375  0.07728  0.78355     C
C      0.88375  0.21645  0.07728     C
C      0.88375  0.21645  0.92272     C
C      0.88375  0.28355  0.42272     C
C      0.88375  0.28355  0.57728     C
C      0.88375  0.42272  0.28355     C
C      0.88375  0.42272  0.71645     C
C      0.88375  0.57728  0.28355     C
C      0.88375  0.57728  0.71645     C
C      0.88375  0.71645  0.42272     C
C      0.88375  0.71645  0.57728     C
C      0.88375  0.78355  0.07728     C
C      0.88375  0.78355  0.92272     C
C      0.88375  0.92272  0.21645     C
C      0.88375  0.92272  0.78355     C
O      0.89253   0.0308   0.1518     O
O      0.89253   0.0308   0.8482     O
O      0.89253   0.1518   0.0308     O
O      0.89253   0.1518   0.9692     O
O      0.89253   0.3482   0.4692     O
O      0.89253   0.3482   0.5308     O
O      0.89253   0.4692   0.3482     O
O      0.89253   0.4692   0.6518     O
O      0.89253   0.5308   0.3482     O
O      0.89253   0.5308   0.6518     O
O      0.89253   0.6518   0.4692     O
O      0.89253   0.6518   0.5308     O
O      0.89253   0.8482   0.0308     O
O      0.89253   0.8482   0.9692     O
O      0.89253   0.9692   0.1518     O
O      0.89253   0.9692   0.8482     O
C      0.89472  0.06648  0.19021     C
C      0.89472  0.06648  0.80979     C
C      0.89472  0.19021  0.06648     C
C      0.89472  0.19021  0.93352     C
C      0.89472  0.30979  0.43352     C
C      0.89472  0.30979  0.56648     C
C      0.89472  0.43352  0.30979     C
C      0.89472  0.43352  0.69021     C
C      0.89472  0.56648  0.30979     C
C      0.89472  0.56648  0.69021     C
C      0.89472  0.69021  0.43352     C
C      0.89472  0.69021  0.56648     C
C      0.89472  0.80979  0.06648     C
C      0.89472  0.80979  0.93352     C
C      0.89472  0.93352  0.19021     C
C      0.89472  0.93352  0.80979     C
C       0.8961   0.1039   0.2281     C
C       0.8961   0.1039   0.7719     C
C       0.8961   0.2281   0.1039     C
C       0.8961   0.2281   0.8961     C
C       0.8961   0.2719   0.3961     C
C       0.8961   0.2719   0.6039     C
C       0.8961   0.3961   0.2719     C
C       0.8961   0.3961   0.7281     C
C       0.8961   0.6039   0.2719     C
C       0.8961   0.6039   0.7281     C
C       0.8961   0.7281   0.3961     C
C       0.8961   0.7281   0.6039     C
C       0.8961   0.7719   0.1039     C
C       0.8961   0.7719   0.8961     C
C       0.8961   0.8961   0.2281     C
C       0.8961   0.8961   0.7719     C
N      0.89648  0.13891  0.27094     N
N      0.89648  0.13891  0.72906     N
N      0.89648  0.22906  0.36109     N
N      0.89648  0.22906  0.63891     N
N      0.89648  0.27094  0.13891     N
N      0.89648  0.27094  0.86109     N
N      0.89648  0.36109  0.22906     N
N      0.89648  0.36109  0.77094     N
N      0.89648  0.63891  0.22906     N
N      0.89648  0.63891  0.77094     N
N      0.89648  0.72906  0.13891     N
N      0.89648  0.72906  0.86109     N
N      0.89648  0.77094  0.36109     N
N      0.89648  0.77094  0.63891     N
N      0.89648  0.86109  0.27094     N
N      0.89648  0.86109  0.72906     N
C      0.91957  0.08043  0.17745     C
C      0.91957  0.08043  0.82255     C
C      0.91957  0.17745  0.08043     C
C      0.91957  0.17745  0.91957     C
C      0.91957  0.32255  0.41957     C
C      0.91957  0.32255  0.58043     C
C      0.91957  0.41957  0.32255     C
C      0.91957  0.41957  0.67745     C
C      0.91957  0.58043  0.32255     C
C      0.91957  0.58043  0.67745     C
C      0.91957  0.67745  0.41957     C
C      0.91957  0.67745  0.58043     C
C      0.91957  0.82255  0.08043     C
C      0.91957  0.82255  0.91957     C
C      0.91957  0.91957  0.17745     C
C      0.91957  0.91957  0.82255     C
C      0.92272  0.11625  0.21645     C
C      0.92272  0.11625  0.78355     C
C      0.92272  0.21645  0.11625     C
C      0.92272  0.21645  0.88375     C
C      0.92272  0.28355  0.38375     C
C      0.92272  0.28355  0.61625     C
C      0.92272  0.38375  0.28355     C
C      0.92272  0.38375  0.71645     C
C      0.92272  0.61625  0.28355     C
C      0.92272  0.61625  0.71645     C
C      0.92272  0.71645  0.38375     C
C      0.92272  0.71645  0.61625     C
C      0.92272  0.78355  0.11625     C
C      0.92272  0.78355  0.88375     C
C      0.92272  0.88375  0.21645     C
C      0.92272  0.88375  0.78355     C
H      0.92722  0.07278  0.15955     H
H      0.92722  0.07278  0.84045     H
H      0.92722  0.15955  0.07278     H
H      0.92722  0.15955  0.92722     H
H      0.92722  0.34045  0.42722     H
H      0.92722  0.34045  0.57278     H
H      0.92722  0.42722  0.34045     H
H      0.92722  0.42722  0.65955     H
H      0.92722  0.57278  0.34045     H
H      0.92722  0.57278  0.65955     H
H      0.92722  0.65955  0.42722     H
H      0.92722  0.65955  0.57278     H
H      0.92722  0.84045  0.07278     H
H      0.92722  0.84045  0.92722     H
H      0.92722  0.92722  0.15955     H
H      0.92722  0.92722  0.84045     H
H      0.93269  0.13161  0.22654     H
H      0.93269  0.13161  0.77346     H
H      0.93269  0.22654  0.13161     H
H      0.93269  0.22654  0.86839     H
H      0.93269  0.27346  0.36839     H
H      0.93269  0.27346  0.63161     H
H      0.93269  0.36839  0.27346     H
H      0.93269  0.36839  0.72654     H
H      0.93269  0.63161  0.27346     H
H      0.93269  0.63161  0.72654     H
H      0.93269  0.72654  0.36839     H
H      0.93269  0.72654  0.63161     H
H      0.93269  0.77346  0.13161     H
H      0.93269  0.77346  0.86839     H
H      0.93269  0.86839  0.22654     H
H      0.93269  0.86839  0.77346     H
C      0.93352  0.10528  0.19021     C
C      0.93352  0.10528  0.80979     C
C      0.93352  0.19021  0.10528     C
C      0.93352  0.19021  0.89472     C
C      0.93352  0.30979  0.39472     C
C      0.93352  0.30979  0.60528     C
C      0.93352  0.39472  0.30979     C
C      0.93352  0.39472  0.69021     C
C      0.93352  0.60528  0.30979     C
C      0.93352  0.60528  0.69021     C
C      0.93352  0.69021  0.39472     C
C      0.93352  0.69021  0.60528     C
C      0.93352  0.80979  0.10528     C
C      0.93352  0.80979  0.89472     C
C      0.93352  0.89472  0.19021     C
C      0.93352  0.89472  0.80979     C
C      0.95996  0.12091  0.17482     C
C      0.95996  0.12091  0.82518     C
C      0.95996  0.17482  0.12091     C
C      0.95996  0.17482  0.87909     C
C      0.95996  0.32518  0.37909     C
C      0.95996  0.32518  0.62091     C
C      0.95996  0.37909  0.32518     C
C      0.95996  0.37909  0.67482     C
C      0.95996  0.62091  0.32518     C
C      0.95996  0.62091  0.67482     C
C      0.95996  0.67482  0.37909     C
C      0.95996  0.67482  0.62091     C
C      0.95996  0.82518  0.12091     C
C      0.95996  0.82518  0.87909     C
C      0.95996  0.87909  0.17482     C
C      0.95996  0.87909  0.82518     C
O       0.9692  0.10747   0.1518     O
O       0.9692  0.10747   0.8482     O
O       0.9692   0.1518  0.10747     O
O       0.9692   0.1518  0.89253     O
O       0.9692   0.3482  0.39253     O
O       0.9692   0.3482  0.60747     O
O       0.9692  0.39253   0.3482     O
O       0.9692  0.39253   0.6518     O
O       0.9692  0.60747   0.3482     O
O       0.9692  0.60747   0.6518     O
O       0.9692   0.6518  0.39253     O
O       0.9692   0.6518  0.60747     O
O       0.9692   0.8482  0.10747     O
O       0.9692   0.8482  0.89253     O
O       0.9692  0.89253   0.1518     O
O       0.9692  0.89253   0.8482     O
O      0.96941  0.14352  0.18716     O
O      0.96941  0.14352  0.81284     O
O      0.96941  0.18716  0.14352     O
O      0.96941  0.18716  0.85648     O
O      0.96941  0.31284  0.35648     O
O      0.96941  0.31284  0.64352     O
O      0.96941  0.35648  0.31284     O
O      0.96941  0.35648  0.68716     O
O      0.96941  0.64352  0.31284     O
O      0.96941  0.64352  0.68716     O
O      0.96941  0.68716  0.35648     O
O      0.96941  0.68716  0.64352     O
O      0.96941  0.81284  0.14352     O
O      0.96941  0.81284  0.85648     O
O      0.96941  0.85648  0.18716     O
O      0.96941  0.85648  0.81284     O
