data_I
_chemical_name_common  '/home/zhangsd/repos/MofS-CGCNN/ML/data/TSD/clean_cifs/OPOBOL_clean'
_cell_length_a  7.49590
_cell_length_b 10.60920
_cell_length_c 10.86570
_cell_angle_alpha 119.22200
_cell_angle_beta  110.17800
_cell_angle_gamma 90.00000
_space_group_name_H-M_alt      'P 1'


loop_
_space_group_symop_operation_xyz
  'x, y, z' 

loop_
_atom_site_label
_atom_site_fract_x
_atom_site_fract_y
_atom_site_fract_z
_atom_site_type_symbol
C      0.01538  0.24478  0.21796     C
O      0.03595  0.37689   0.3215     O
C      0.05485  0.17955   0.7871     C
N      0.08403  0.32613  0.84146     N
O      0.11558  0.15597  0.23216     O
H       0.1469   0.0242   0.8328     H
C      0.16849  0.12519  0.87098     C
O      0.19809  0.62259  0.23618     O
O      0.21445  0.55539   0.6785     O
C      0.23477  0.42007  0.97634     C
N      0.24257  0.67387  0.15854     N
C      0.25843  0.57993  0.02366     C
H       0.2647   0.8848   0.3082     H
C      0.26775  0.82045   0.2129     C
C      0.28789  0.63219  0.93578     C
C      0.29742  0.52682  0.78204     C
C      0.29751  0.87481  0.12902     C
C      0.30319  0.77999  0.98758     C
H       0.3141   0.9758   0.1672     H
C      0.31561  0.22001  0.01242     C
H       0.3171    0.816    0.928     H
Ba     0.33312  0.61751      0.5    Ba
C      0.35211  0.36781  0.06422     C
O      0.38342  0.42381  0.76784     O
H       0.3891    0.184    0.072     H
H       0.4565   0.0766   0.6918     H
O      0.46191  0.88641  0.76382     O
C      0.51538  0.47318  0.21796     C
O      0.53595  0.44461   0.3215     O
C      0.55485  0.10755   0.7871     C
N      0.58403  0.01533  0.84146     N
O      0.61558  0.57619  0.23216     O
H       0.6469   0.3086   0.8328     H
C      0.66849  0.24579  0.87098     C
O      0.69809  0.11359  0.23618     O
O      0.71445  0.62311   0.6785     O
C      0.73477  0.05627  0.97634     C
N      0.74257  0.98467  0.15854     N
C      0.75843  0.94373  0.02366     C
H       0.7647   0.9234   0.3082     H
C      0.76775  0.89245   0.2129     C
C      0.78789  0.80359  0.93578     C
C      0.79742  0.75522  0.78204     C
C      0.79751  0.75421  0.12902     C
C      0.80319  0.70759  0.98758     C
H       0.8141   0.6914   0.1672     H
C      0.81561  0.29241  0.01242     C
H       0.8171    0.612    0.928     H
Ba     0.83312  0.38249      0.5    Ba
C      0.85211  0.19641  0.06422     C
O      0.88342  0.84403  0.76784     O
H       0.8891    0.388    0.072     H
H       0.9565   0.1152   0.6918     H
O      0.96191  0.37741  0.76382     O
