data_I
_chemical_name_common  '/home/zhangsd/repos/MofS-CGCNN/ML/data/TSD/clean_cifs/OSAVUA_clean'
_cell_length_a  9.66500
_cell_length_b 10.25690
_cell_length_c 10.34550
_cell_angle_alpha 119.71700
_cell_angle_beta  94.51810
_cell_angle_gamma 90.00000
_space_group_name_H-M_alt      'P 1'


loop_
_space_group_symop_operation_xyz
  'x, y, z' 

loop_
_atom_site_label
_atom_site_fract_x
_atom_site_fract_y
_atom_site_fract_z
_atom_site_type_symbol
C       0.0158  0.99659  0.63398     C
C       0.0292  0.99553  0.77966     C
O      0.07584  0.99378  0.15616     O
C       0.1127  0.98075   0.4193     C
C       0.1306  0.97624  0.55148     C
O        0.151  0.98751  0.82942     O
H       0.1889   0.9683   0.3652     H
O       0.2407  0.35584  0.40568     O
H       0.2413   0.2791   0.3242     H
Ca        0.25  0.92175      0.0    Ca
H       0.2587   0.9549   0.6758     H
O       0.2593  0.95016  0.59432     O
H       0.3111   0.6031   0.6348     H
O        0.349  0.15809  0.17058     O
C       0.3694  0.42476  0.44852     C
C       0.3873  0.56145   0.5807     C
O      0.42416  0.83762  0.84384     O
C       0.4708  0.21587  0.22034     C
C       0.4842  0.36261  0.36602     C
C       0.5158  0.63739  0.63398     C
C       0.5292  0.78413  0.77966     C
O      0.57584  0.16238  0.15616     O
C       0.6127  0.43855   0.4193     C
C       0.6306  0.57524  0.55148     C
O        0.651  0.84191  0.82942     O
H       0.6889   0.3969   0.3652     H
O       0.7407  0.04984  0.40568     O
H       0.7413   0.0451   0.3242     H
Ca        0.75  0.07825      0.0    Ca
H       0.7587   0.7209   0.6758     H
O       0.7593  0.64416  0.59432     O
H       0.8111   0.0317   0.6348     H
O        0.849  0.01249  0.17058     O
C       0.8694  0.02376  0.44852     C
C       0.8873  0.01925   0.5807     C
O      0.92416  0.00622  0.84384     O
C       0.9708  0.00447  0.22034     C
C       0.9842  0.00341  0.36602     C
