data_I
_chemical_name_common  '/home/zhangsd/repos/MofS-CGCNN/ML/data/TSD/clean_cifs/OSAWEL_clean'
_cell_length_a  8.33280
_cell_length_b  8.67940
_cell_length_c  9.93930
_cell_angle_alpha 70.52000
_cell_angle_beta  84.45900
_cell_angle_gamma 73.72200
_space_group_name_H-M_alt      'P 1'


loop_
_space_group_symop_operation_xyz
  'x, y, z' 

loop_
_atom_site_label
_atom_site_fract_x
_atom_site_fract_y
_atom_site_fract_z
_atom_site_type_symbol
C       0.0264   0.5083   0.6342     C
C       0.0267   0.8414   0.9851     C
H       0.0449   0.7351   0.9749     H
C       0.0489   0.5235   0.7759     C
O       0.0764   0.4189   0.1596     O
C       0.1308   0.0473   0.0383     C
C       0.1332   0.4652   0.4135     C
C       0.1585   0.8869   0.0239     C
C       0.1623   0.4713   0.5454     C
O        0.197   0.4761   0.8228     O
H       0.2239   0.4426   0.3542     H
O       0.2575   0.0968   0.0752     O
O       0.3229   0.4392   0.5853     O
H       0.3242   0.4424   0.6668     H
Ca     0.32648  0.36337  0.04249    Ca
C       0.3308   0.7679   0.0426     C
H       0.3455   0.0234   0.0793     H
O       0.3541   0.6228   0.0346     O
O       0.4503   0.8209   0.0615     O
O       0.5497   0.1791   0.9385     O
O       0.6459   0.3772   0.9654     O
H       0.6545   0.9766   0.9207     H
C       0.6692   0.2321   0.9574     C
Ca     0.67352  0.63663  0.95751    Ca
H       0.6758   0.5576   0.3332     H
O       0.6771   0.5608   0.4147     O
O       0.7425   0.9032   0.9248     O
H       0.7761   0.5574   0.6458     H
O        0.803   0.5239   0.1772     O
C       0.8377   0.5287   0.4546     C
C       0.8415   0.1131   0.9761     C
C       0.8668   0.5348   0.5865     C
C       0.8692   0.9527   0.9617     C
O       0.9236   0.5811   0.8404     O
C       0.9511   0.4765   0.2241     C
H       0.9551   0.2649   0.0251     H
C       0.9733   0.1586   0.0149     C
C       0.9736   0.4917   0.3658     C
