data_I
_chemical_name_common  '/home/zhangsd/repos/MofS-CGCNN/ML/data/TSD/clean_cifs/OSAXAI_clean'
_cell_length_a 11.43600
_cell_length_b 13.37170
_cell_length_c 18.38600
_cell_angle_alpha 100.38900
_cell_angle_beta  90.00000
_cell_angle_gamma 115.31700
_space_group_name_H-M_alt      'P 1'


loop_
_space_group_symop_operation_xyz
  'x, y, z' 

loop_
_atom_site_label
_atom_site_fract_x
_atom_site_fract_y
_atom_site_fract_z
_atom_site_type_symbol
C      0.01398  0.32996   0.9425     C
C      0.01884  0.61668  0.10677     C
Zn     0.02625  0.60698  0.59681    Zn
O      0.04558  0.60236   0.7448     O
H       0.0456   0.7064   0.0256     H
H       0.0543   0.4684   0.8113     H
O      0.06548   0.6814  0.50884     O
C      0.07289  0.43318  0.84592     C
O      0.07663  0.55946  0.41201     O
H       0.0905   0.4616   0.1388     H
C      0.09285   0.6555  0.44393     C
C      0.11455   0.7001  0.73912     C
O      0.11485  0.73916  0.68089     O
C      0.13534  0.33108  0.94381     C
H       0.1397   0.2956   0.4775     H
C      0.14558  0.61096  0.10644     C
C      0.15006  0.74872  0.40124     C
H       0.1551   0.6516   0.3048     H
H       0.1559   0.2956   0.9775     H
N      0.15665   0.3811  0.39873     N
C      0.15999  0.51978   0.1236     C
H       0.1679   0.8758   0.4856     H
H       0.1681   0.4544   0.6293     H
C      0.17258  0.72516  0.32734     C
C       0.1807   0.8592  0.43571     C
H       0.1856   0.6714   0.8695     H
C      0.19158  0.43056  0.85017     C
C      0.19574  0.33108  0.44381     C
C      0.21057  0.78154  0.80318     C
H       0.2127   0.4646   0.3179     H
N      0.21358  0.59616  0.59672     N
C      0.22048  0.80956  0.28722     C
N      0.22445   0.3811  0.89873     N
C      0.23039  0.94478  0.39543     C
H       0.2321   0.9812   0.0816     H
C      0.23297  0.74634   0.8654     C
H       0.2335    0.793   0.2374     H
C      0.23776  0.51632   0.6178     C
C      0.23898  0.43056  0.35017     C
C      0.24948  0.92016   0.3216     C
H       0.2509   0.0188   0.4184     H
H       0.2519   0.4646   0.8179     H
H       0.2526   0.7616   0.0781     H
C      0.25603  0.69686   0.0878     C
H       0.2665   0.9168   0.7576     H
C      0.27856  0.51632   0.1178     C
C      0.28014  0.89168   0.7994     C
N      0.28265   0.9859  0.21539     N
C      0.28561  0.05522  0.10457     C
H       0.2863   0.4544   0.1293     H
H       0.2921   0.1242   0.0144     H
N      0.29675   0.0141  0.28461     N
H       0.3027    0.745   0.5712     H
C      0.31598  0.32996   0.4425     C
C      0.31631  0.68622   0.5837     C
C       0.3215   0.1408  0.06429     C
C      0.32532  0.82104   0.9219     C
C      0.32932  0.07984   0.1784     C
H       0.3392   0.2936   0.4744     H
H        0.341   0.7958   0.9632     H
H       0.3497   0.0832   0.7424     H
C      0.35979  0.51978   0.6236     C
C      0.36029  0.43318  0.34592     C
C      0.36991  0.68622   0.0837     C
H       0.3711   0.4616   0.6388     H
C      0.37118  0.96776   0.8562     C
H       0.3737    0.957   0.6474     H
O      0.37569  0.26084  0.81911     O
N      0.38258  0.59616  0.09672     N
O      0.38408   0.3186  0.99116     O
C      0.38846  0.10832   0.7006     C
C      0.39385   0.9323  0.91713     C
C      0.40134  0.25128  0.09876     C
C      0.40216  0.38332  0.39323     C
C      0.40342  0.03224   0.6438     C
C      0.41092  0.19044  0.21278     C
H       0.4141   0.4684   0.3113     H
C      0.41445   0.2999  0.76088     C
H       0.4167    0.043   0.8526     H
Zn     0.41927  0.39302  0.90319    Zn
C      0.42903  0.21846  0.69682     C
C      0.43735   0.3445  0.05607     C
H       0.4405    0.207   0.2626     H
C      0.44083  0.69686   0.5878     C
H       0.4423    0.745   0.0712     H
O      0.44322  0.39764   0.7552     O
C      0.44742  0.27484  0.17266     C
H       0.4548   0.7958   0.4632     H
C      0.46155   0.0677  0.58287     C
C      0.46538  0.61096  0.60644     C
N      0.47474  0.98188  0.52741     N
O      0.48283  0.55946  0.91201     O
H       0.4858   0.6714   0.3695     H
C      0.48663  0.25366   0.6346     C
H        0.491   0.2384   0.4219     H
N      0.49286  0.01812  0.97259     N
C      0.49572  0.82104   0.4219     C
H       0.4965   0.6516   0.8048     H
H       0.5035   0.3484   0.1952     H
C      0.50428  0.17896   0.5781     C
N      0.50714  0.98188  0.02741     N
H        0.509   0.7616   0.5781     H
C      0.51337  0.74634   0.3654     C
H       0.5142   0.3286   0.6305     H
O      0.51717  0.44054  0.08799     O
N      0.52526  0.01812  0.47259     N
C      0.53462  0.38904  0.39356     C
C      0.53845   0.9323  0.41713     C
H       0.5452   0.2042   0.5368     H
C      0.55258  0.72516  0.82734     C
O      0.55678  0.60236   0.2448     O
H       0.5577    0.255   0.9288     H
C      0.55917  0.30314   0.4122     C
H       0.5595    0.793   0.7374     H
C      0.56265   0.6555  0.94393     C
C      0.57097  0.78154  0.30318     C
Zn     0.58073  0.60698  0.09681    Zn
H       0.5833    0.957   0.1474     H
C      0.58555   0.7001  0.23912     C
H       0.5859   0.5316   0.6887     H
C      0.58908  0.80956  0.78722     C
C      0.59658  0.96776   0.3562     C
C      0.59784  0.61668  0.60677     C
C      0.59866  0.74872  0.90124     C
C      0.60615   0.0677  0.08287     C
C      0.61154  0.89168   0.2994     C
O      0.61592   0.6814  0.00884     O
N      0.61742  0.40384  0.90328     N
O      0.62431  0.73916  0.18089     O
H       0.6263    0.043   0.3526     H
C      0.62882  0.03224   0.1438     C
H       0.6289   0.5384   0.3612     H
C      0.63009  0.31378   0.9163     C
C      0.63971  0.56682  0.65408     C
C      0.64021  0.48022   0.3764     C
H       0.6503   0.9168   0.2576     H
H        0.659   0.2042   0.0368     H
H       0.6608   0.7064   0.5256     H
C      0.67068  0.92016   0.8216     C
C      0.67468  0.17896   0.0781     C
C       0.6785   0.8592  0.93571     C
C      0.68369  0.31378   0.4163     C
C      0.68402  0.67004   0.5575     C
H       0.6973    0.255   0.4288     H
N      0.70325   0.9859  0.71539     N
H       0.7079   0.8758   0.9856     H
H       0.7137   0.5456   0.8707     H
C      0.71439  0.94478  0.89543     C
N      0.71735   0.0141  0.78461     N
C      0.71986  0.10832   0.2006     C
C      0.72144  0.48368   0.8822     C
H       0.7335   0.0832   0.2424     H
C      0.74397  0.30314   0.9122     C
H       0.7474   0.2384   0.9219     H
H       0.7481   0.5354   0.1821     H
H       0.7491   0.9812   0.5816     H
C      0.75052  0.07984   0.6784     C
C      0.76102  0.56944  0.64983     C
C      0.76224  0.48368   0.3822     C
H       0.7665    0.207   0.7626     H
C      0.76703  0.25366   0.1346     C
H       0.7679   0.0188   0.9184     H
C      0.76961  0.05522  0.60457     C
N      0.77555   0.6189  0.10127     N
C      0.77952  0.19044  0.71278     C
N      0.78642  0.40384  0.40328     N
H       0.7873   0.5354   0.6821     H
C      0.78943  0.21846  0.19682     C
C      0.80426  0.66892  0.55619     C
C      0.80842  0.56944  0.14983     C
H       0.8144   0.3286   0.1305     H
C       0.8193   0.1408  0.56429     C
C      0.82742  0.27484  0.67266     C
H       0.8319   0.5456   0.3707     H
H       0.8321   0.1242   0.5144     H
C      0.84001  0.48022   0.8764     C
N      0.84335   0.6189  0.60127     N
H       0.8441   0.7044   0.0225     H
H       0.8449   0.3484   0.6952     H
C      0.84994  0.25128  0.59876     C
C      0.85442  0.38904  0.89356     C
H       0.8603   0.7044   0.5225     H
C      0.86466  0.66892  0.05619     C
O      0.88515  0.26084  0.31911     O
C      0.88545   0.2999  0.26088     C
C      0.90715   0.3445  0.55607     C
H       0.9095   0.5384   0.8612     H
O      0.92337  0.44054  0.58799     O
C      0.92711  0.56682  0.15408     C
O      0.93452   0.3186  0.49116     O
H       0.9457   0.5316   0.1887     H
H       0.9544   0.2936   0.9744     H
O      0.95442  0.39764   0.2552     O
Zn     0.97375  0.39302  0.40319    Zn
C      0.98116  0.38332  0.89323     C
C      0.98602  0.67004   0.0575     C
