data_I
_chemical_name_common  '/home/zhangsd/repos/MofS-CGCNN/ML/data/TSD/clean_cifs/OSURAX_clean'
_cell_length_a 31.98000
_cell_length_b  7.90400
_cell_length_c 26.80000
_cell_angle_alpha 90.00000
_cell_angle_beta  90.00000
_cell_angle_gamma 90.00000
_space_group_name_H-M_alt      'P 1'


loop_
_space_group_symop_operation_xyz
  'x, y, z' 

loop_
_atom_site_label
_atom_site_fract_x
_atom_site_fract_y
_atom_site_fract_z
_atom_site_type_symbol
Cd         0.0      0.0  0.97714    Cd
Cd         0.0      0.5  0.47714    Cd
O       0.0212   0.1715   0.0417     O
O       0.0212   0.6715   0.5417     O
C       0.0377   0.2865   0.0165     C
C       0.0377   0.7865   0.5165     C
O       0.0426   0.2738   0.9685     O
O       0.0426   0.7738   0.4685     O
H       0.0454   0.3682   0.1126     H
H       0.0454   0.8682   0.6126     H
H       0.0503    0.392   0.1931     H
H       0.0503    0.892   0.6931     H
C       0.0529   0.4464   0.0417     C
C       0.0529   0.9464   0.5417     C
C       0.0539   0.4604   0.0936     C
C       0.0539   0.9604   0.5936     C
C       0.0608   0.4932   0.2056     C
C       0.0608   0.9932   0.7056     C
H       0.0611   0.4302    0.277     H
H       0.0611   0.9302    0.777     H
H        0.063   0.0797    0.479     H
H        0.063   0.5797    0.979     H
C       0.0645   0.0847   0.5136     C
C       0.0645   0.5847   0.0136     C
N       0.0669    0.012   0.7571     N
N       0.0669    0.512   0.2571     N
C        0.067   0.1041    0.618     C
C        0.067   0.6041    0.118     C
C       0.0699   0.1184   0.6744     C
O       0.0699   0.4084   0.4647     O
C       0.0699   0.6184   0.1744     C
O       0.0699   0.9084   0.9647     O
C        0.078   0.2292   0.5365     C
C        0.078   0.7292   0.0365     C
O       0.0791   0.0706   0.8604     O
O       0.0791   0.5706   0.3604     O
C        0.081   0.2386   0.5844     C
C        0.081   0.7386   0.0844     C
C       0.0824   0.1631   0.7758     C
C       0.0824   0.6631   0.2758     C
C        0.086    0.265   0.6954     C
C        0.086    0.765   0.1954     C
C       0.0904   0.3839   0.5049     C
C       0.0904   0.8839   0.0049     C
H       0.0915   0.3566   0.6747     H
H       0.0915   0.8566   0.1747     H
C        0.092   0.1789   0.8319     C
C        0.092   0.6789   0.3319     C
H       0.0927   0.3356   0.5983     H
H       0.0927   0.8356   0.0983     H
C       0.0936   0.2797    0.742     C
C       0.0936   0.7797    0.242     C
H       0.1076   0.3759    0.753     H
H       0.1076   0.8759    0.253     H
Cd     0.10837  0.13406  0.93443    Cd
Cd     0.10837  0.63406  0.43443    Cd
O       0.1127   0.3031   0.8458     O
O       0.1127   0.8031   0.3458     O
O       0.1197   0.4772   0.5185     O
O       0.1197   0.9772   0.0185     O
H       0.1441   0.4191   0.1171     H
H       0.1441   0.9191   0.6171     H
N       0.1443   0.3438    0.969     N
N       0.1443   0.8438    0.469     N
H       0.1514     0.04   0.4187     H
H       0.1514     0.54   0.9187     H
H       0.1529   0.2543   0.0386     H
H       0.1529   0.7543   0.5386     H
C       0.1557   0.0011    0.451     C
C       0.1557   0.5011    0.951     C
C       0.1567   0.3452   0.0171     C
C       0.1567   0.8452   0.5171     C
C       0.1685    0.482   0.1205     C
C       0.1685    0.982   0.6205     C
H       0.1687   0.4922    0.197     H
H       0.1687   0.9922    0.697     H
C       0.1697   0.4894   0.4113     C
C       0.1697   0.9894   0.9113     C
N       0.1739   0.0883   0.4882     N
N       0.1739   0.5883   0.9882     N
C        0.175   0.4898   0.0307     C
C        0.175   0.9898   0.5307     C
N       0.1752   0.4111   0.3675     N
N       0.1752   0.9111   0.8675     N
H       0.1758   0.2221   0.2865     H
H       0.1758   0.7221   0.7865     H
H       0.1818   0.2066   0.7583     H
H       0.1818   0.7066   0.2583     H
H       0.1834   0.1898   0.4859     H
H       0.1834   0.6898   0.9859     H
C       0.1836   0.0251   0.6688     C
C       0.1836   0.5251   0.1688     C
C       0.1904   0.0343   0.5785     C
C       0.1904   0.5343   0.0785     C
H       0.2015    0.131   0.2104     H
H       0.2015    0.631   0.7104     H
C       0.2044   0.2239   0.2804     C
C       0.2044   0.7239   0.7804     C
H       0.2064    0.319    0.833     H
H       0.2064    0.819    0.333     H
N        0.208   0.4951   0.4323     N
N        0.208   0.9951   0.9323     N
C       0.2105   0.2151   0.7631     C
C       0.2105   0.7151   0.2631     C
H       0.2138   0.0438   0.9602     H
H       0.2138   0.5438   0.4602     H
C       0.2151   0.3586   0.3614     C
C       0.2151   0.8586   0.8614     C
C       0.2201   0.1672   0.2349     C
C       0.2201   0.6672   0.7349     C
C       0.2208   0.1175   0.6738     C
C       0.2208   0.6175   0.1738     C
C       0.2249   0.2798   0.8088     C
C       0.2249   0.7798   0.3088     C
C       0.2272   0.1241   0.5837     C
C       0.2272   0.6241   0.0837     C
C       0.2317   0.2829   0.3166     C
C       0.2317   0.7829   0.8166     C
H       0.2336    0.225   0.1353     H
H       0.2336    0.725   0.6353     H
H       0.2358   0.3968   0.9103     H
H       0.2358   0.8968   0.4103     H
C       0.2361   0.4132   0.4033     C
C       0.2361   0.9132   0.9033     C
C       0.2365   0.1634   0.7249     C
C       0.2365   0.6634   0.2249     C
C       0.2417   0.1643    0.632     C
C       0.2417   0.6643    0.132     C
H       0.2423   0.1577   0.5557     H
H       0.2423   0.6577   0.0557     H
H       0.2577   0.1577   0.0557     H
H       0.2577   0.6577   0.5557     H
C       0.2583   0.1643    0.132     C
C       0.2583   0.6643    0.632     C
C       0.2635   0.1634   0.2249     C
C       0.2635   0.6634   0.7249     C
C       0.2639   0.4132   0.9033     C
C       0.2639   0.9132   0.4033     C
H       0.2642   0.3968   0.4103     H
H       0.2642   0.8968   0.9103     H
H       0.2664    0.225   0.6353     H
H       0.2664    0.725   0.1353     H
C       0.2683   0.2829   0.8166     C
C       0.2683   0.7829   0.3166     C
C       0.2728   0.1241   0.0837     C
C       0.2728   0.6241   0.5837     C
C       0.2751   0.2798   0.3088     C
C       0.2751   0.7798   0.8088     C
C       0.2792   0.1175   0.1738     C
C       0.2792   0.6175   0.6738     C
C       0.2799   0.1672   0.7349     C
C       0.2799   0.6672   0.2349     C
C       0.2849   0.3586   0.8614     C
C       0.2849   0.8586   0.3614     C
H       0.2862   0.0438   0.4602     H
H       0.2862   0.5438   0.9602     H
C       0.2895   0.2151   0.2631     C
C       0.2895   0.7151   0.7631     C
N        0.292   0.4951   0.9323     N
N        0.292   0.9951   0.4323     N
H       0.2936    0.319    0.333     H
H       0.2936    0.819    0.833     H
C       0.2956   0.2239   0.7804     C
C       0.2956   0.7239   0.2804     C
H       0.2985    0.131   0.7104     H
H       0.2985    0.631   0.2104     H
C       0.3096   0.0343   0.0785     C
C       0.3096   0.5343   0.5785     C
C       0.3164   0.0251   0.1688     C
C       0.3164   0.5251   0.6688     C
H       0.3166   0.1898   0.9859     H
H       0.3166   0.6898   0.4859     H
H       0.3182   0.2066   0.2583     H
H       0.3182   0.7066   0.7583     H
H       0.3242   0.2221   0.7865     H
H       0.3242   0.7221   0.2865     H
N       0.3248   0.4111   0.8675     N
N       0.3248   0.9111   0.3675     N
C        0.325   0.4898   0.5307     C
C        0.325   0.9898   0.0307     C
N       0.3261   0.0883   0.9882     N
N       0.3261   0.5883   0.4882     N
C       0.3303   0.4894   0.9113     C
C       0.3303   0.9894   0.4113     C
H       0.3313   0.4922    0.697     H
H       0.3313   0.9922    0.197     H
C       0.3315    0.482   0.6205     C
C       0.3315    0.982   0.1205     C
C       0.3433   0.3452   0.5171     C
C       0.3433   0.8452   0.0171     C
C       0.3443   0.0011    0.951     C
C       0.3443   0.5011    0.451     C
H       0.3471   0.2543   0.5386     H
H       0.3471   0.7543   0.0386     H
H       0.3486     0.04   0.9187     H
H       0.3486     0.54   0.4187     H
N       0.3557   0.3438    0.469     N
N       0.3557   0.8438    0.969     N
H       0.3559   0.4191   0.6171     H
H       0.3559   0.9191   0.1171     H
O       0.3803   0.4772   0.0185     O
O       0.3803   0.9772   0.5185     O
O       0.3873   0.3031   0.3458     O
O       0.3873   0.8031   0.8458     O
Cd     0.39163  0.13406  0.43443    Cd
Cd     0.39163  0.63406  0.93443    Cd
H       0.3924   0.3759    0.253     H
H       0.3924   0.8759    0.753     H
C       0.4064   0.2797    0.242     C
C       0.4064   0.7797    0.742     C
H       0.4073   0.3356   0.0983     H
H       0.4073   0.8356   0.5983     H
C        0.408   0.1789   0.3319     C
C        0.408   0.6789   0.8319     C
H       0.4085   0.3566   0.1747     H
H       0.4085   0.8566   0.6747     H
C       0.4096   0.3839   0.0049     C
C       0.4096   0.8839   0.5049     C
C        0.414    0.265   0.1954     C
C        0.414    0.765   0.6954     C
C       0.4176   0.1631   0.2758     C
C       0.4176   0.6631   0.7758     C
C        0.419   0.2386   0.0844     C
C        0.419   0.7386   0.5844     C
O       0.4209   0.0706   0.3604     O
O       0.4209   0.5706   0.8604     O
C        0.422   0.2292   0.0365     C
C        0.422   0.7292   0.5365     C
C       0.4301   0.1184   0.1744     C
O       0.4301   0.4084   0.9647     O
C       0.4301   0.6184   0.6744     C
O       0.4301   0.9084   0.4647     O
C        0.433   0.1041    0.118     C
C        0.433   0.6041    0.618     C
N       0.4331    0.012   0.2571     N
N       0.4331    0.512   0.7571     N
C       0.4355   0.0847   0.0136     C
C       0.4355   0.5847   0.5136     C
H        0.437   0.0797    0.979     H
H        0.437   0.5797    0.479     H
H       0.4389   0.4302    0.777     H
H       0.4389   0.9302    0.277     H
C       0.4392   0.4932   0.7056     C
C       0.4392   0.9932   0.2056     C
C       0.4461   0.4604   0.5936     C
C       0.4461   0.9604   0.0936     C
C       0.4471   0.4464   0.5417     C
C       0.4471   0.9464   0.0417     C
H       0.4497    0.392   0.6931     H
H       0.4497    0.892   0.1931     H
H       0.4546   0.3682   0.6126     H
H       0.4546   0.8682   0.1126     H
O       0.4574   0.2738   0.4685     O
O       0.4574   0.7738   0.9685     O
C       0.4623   0.2865   0.5165     C
C       0.4623   0.7865   0.0165     C
O       0.4788   0.1715   0.5417     O
O       0.4788   0.6715   0.0417     O
Cd         0.5      0.0  0.47714    Cd
Cd         0.5      0.5  0.97714    Cd
O       0.5212   0.3285   0.0417     O
O       0.5212   0.8285   0.5417     O
C       0.5377   0.2135   0.0165     C
C       0.5377   0.7135   0.5165     C
O       0.5426   0.2262   0.9685     O
O       0.5426   0.7262   0.4685     O
H       0.5454   0.1318   0.1126     H
H       0.5454   0.6318   0.6126     H
H       0.5503    0.108   0.1931     H
H       0.5503    0.608   0.6931     H
C       0.5529   0.0536   0.0417     C
C       0.5529   0.5536   0.5417     C
C       0.5539   0.0396   0.0936     C
C       0.5539   0.5396   0.5936     C
C       0.5608   0.0068   0.2056     C
C       0.5608   0.5068   0.7056     C
H       0.5611   0.0698    0.277     H
H       0.5611   0.5698    0.777     H
H        0.563   0.4203    0.479     H
H        0.563   0.9203    0.979     H
C       0.5645   0.4153   0.5136     C
C       0.5645   0.9153   0.0136     C
N       0.5669    0.488   0.7571     N
N       0.5669    0.988   0.2571     N
C        0.567   0.3959    0.618     C
C        0.567   0.8959    0.118     C
O       0.5699   0.0916   0.4647     O
C       0.5699   0.3816   0.6744     C
O       0.5699   0.5916   0.9647     O
C       0.5699   0.8816   0.1744     C
C        0.578   0.2708   0.5365     C
C        0.578   0.7708   0.0365     C
O       0.5791   0.4294   0.8604     O
O       0.5791   0.9294   0.3604     O
C        0.581   0.2614   0.5844     C
C        0.581   0.7614   0.0844     C
C       0.5824   0.3369   0.7758     C
C       0.5824   0.8369   0.2758     C
C        0.586    0.235   0.6954     C
C        0.586    0.735   0.1954     C
C       0.5904   0.1161   0.5049     C
C       0.5904   0.6161   0.0049     C
H       0.5915   0.1434   0.6747     H
H       0.5915   0.6434   0.1747     H
C        0.592   0.3211   0.8319     C
C        0.592   0.8211   0.3319     C
H       0.5927   0.1644   0.5983     H
H       0.5927   0.6644   0.0983     H
C       0.5936   0.2203    0.742     C
C       0.5936   0.7203    0.242     C
H       0.6076   0.1241    0.753     H
H       0.6076   0.6241    0.253     H
Cd     0.60837  0.36594  0.93443    Cd
Cd     0.60837  0.86594  0.43443    Cd
O       0.6127   0.1969   0.8458     O
O       0.6127   0.6969   0.3458     O
O       0.6197   0.0228   0.5185     O
O       0.6197   0.5228   0.0185     O
H       0.6441   0.0809   0.1171     H
H       0.6441   0.5809   0.6171     H
N       0.6443   0.1562    0.969     N
N       0.6443   0.6562    0.469     N
H       0.6514     0.46   0.4187     H
H       0.6514     0.96   0.9187     H
H       0.6529   0.2457   0.0386     H
H       0.6529   0.7457   0.5386     H
C       0.6557   0.4989    0.451     C
C       0.6557   0.9989    0.951     C
C       0.6567   0.1548   0.0171     C
C       0.6567   0.6548   0.5171     C
C       0.6685    0.018   0.1205     C
C       0.6685    0.518   0.6205     C
H       0.6687   0.0078    0.197     H
H       0.6687   0.5078    0.697     H
C       0.6697   0.0106   0.4113     C
C       0.6697   0.5106   0.9113     C
N       0.6739   0.4117   0.4882     N
N       0.6739   0.9117   0.9882     N
C        0.675   0.0102   0.0307     C
C        0.675   0.5102   0.5307     C
N       0.6752   0.0889   0.3675     N
N       0.6752   0.5889   0.8675     N
H       0.6758   0.2779   0.2865     H
H       0.6758   0.7779   0.7865     H
H       0.6818   0.2934   0.7583     H
H       0.6818   0.7934   0.2583     H
H       0.6834   0.3102   0.4859     H
H       0.6834   0.8102   0.9859     H
C       0.6836   0.4749   0.6688     C
C       0.6836   0.9749   0.1688     C
C       0.6904   0.4657   0.5785     C
C       0.6904   0.9657   0.0785     C
H       0.7015    0.369   0.2104     H
H       0.7015    0.869   0.7104     H
C       0.7044   0.2761   0.2804     C
C       0.7044   0.7761   0.7804     C
H       0.7064    0.181    0.833     H
H       0.7064    0.681    0.333     H
N        0.708   0.0049   0.4323     N
N        0.708   0.5049   0.9323     N
C       0.7105   0.2849   0.7631     C
C       0.7105   0.7849   0.2631     C
H       0.7138   0.4562   0.9602     H
H       0.7138   0.9562   0.4602     H
C       0.7151   0.1414   0.3614     C
C       0.7151   0.6414   0.8614     C
C       0.7201   0.3328   0.2349     C
C       0.7201   0.8328   0.7349     C
C       0.7208   0.3825   0.6738     C
C       0.7208   0.8825   0.1738     C
C       0.7249   0.2202   0.8088     C
C       0.7249   0.7202   0.3088     C
C       0.7272   0.3759   0.5837     C
C       0.7272   0.8759   0.0837     C
C       0.7317   0.2171   0.3166     C
C       0.7317   0.7171   0.8166     C
H       0.7336    0.275   0.1353     H
H       0.7336    0.775   0.6353     H
H       0.7358   0.1032   0.9103     H
H       0.7358   0.6032   0.4103     H
C       0.7361   0.0868   0.4033     C
C       0.7361   0.5868   0.9033     C
C       0.7365   0.3366   0.7249     C
C       0.7365   0.8366   0.2249     C
C       0.7417   0.3357    0.632     C
C       0.7417   0.8357    0.132     C
H       0.7423   0.3423   0.5557     H
H       0.7423   0.8423   0.0557     H
H       0.7577   0.3423   0.0557     H
H       0.7577   0.8423   0.5557     H
C       0.7583   0.3357    0.132     C
C       0.7583   0.8357    0.632     C
C       0.7635   0.3366   0.2249     C
C       0.7635   0.8366   0.7249     C
C       0.7639   0.0868   0.9033     C
C       0.7639   0.5868   0.4033     C
H       0.7642   0.1032   0.4103     H
H       0.7642   0.6032   0.9103     H
H       0.7664    0.275   0.6353     H
H       0.7664    0.775   0.1353     H
C       0.7683   0.2171   0.8166     C
C       0.7683   0.7171   0.3166     C
C       0.7728   0.3759   0.0837     C
C       0.7728   0.8759   0.5837     C
C       0.7751   0.2202   0.3088     C
C       0.7751   0.7202   0.8088     C
C       0.7792   0.3825   0.1738     C
C       0.7792   0.8825   0.6738     C
C       0.7799   0.3328   0.7349     C
C       0.7799   0.8328   0.2349     C
C       0.7849   0.1414   0.8614     C
C       0.7849   0.6414   0.3614     C
H       0.7862   0.4562   0.4602     H
H       0.7862   0.9562   0.9602     H
C       0.7895   0.2849   0.2631     C
C       0.7895   0.7849   0.7631     C
N        0.792   0.0049   0.9323     N
N        0.792   0.5049   0.4323     N
H       0.7936    0.181    0.333     H
H       0.7936    0.681    0.833     H
C       0.7956   0.2761   0.7804     C
C       0.7956   0.7761   0.2804     C
H       0.7985    0.369   0.7104     H
H       0.7985    0.869   0.2104     H
C       0.8096   0.4657   0.0785     C
C       0.8096   0.9657   0.5785     C
C       0.8164   0.4749   0.1688     C
C       0.8164   0.9749   0.6688     C
H       0.8166   0.3102   0.9859     H
H       0.8166   0.8102   0.4859     H
H       0.8182   0.2934   0.2583     H
H       0.8182   0.7934   0.7583     H
H       0.8242   0.2779   0.7865     H
H       0.8242   0.7779   0.2865     H
N       0.8248   0.0889   0.8675     N
N       0.8248   0.5889   0.3675     N
C        0.825   0.0102   0.5307     C
C        0.825   0.5102   0.0307     C
N       0.8261   0.4117   0.9882     N
N       0.8261   0.9117   0.4882     N
C       0.8303   0.0106   0.9113     C
C       0.8303   0.5106   0.4113     C
H       0.8313   0.0078    0.697     H
H       0.8313   0.5078    0.197     H
C       0.8315    0.018   0.6205     C
C       0.8315    0.518   0.1205     C
C       0.8433   0.1548   0.5171     C
C       0.8433   0.6548   0.0171     C
C       0.8443   0.4989    0.951     C
C       0.8443   0.9989    0.451     C
H       0.8471   0.2457   0.5386     H
H       0.8471   0.7457   0.0386     H
H       0.8486     0.46   0.9187     H
H       0.8486     0.96   0.4187     H
N       0.8557   0.1562    0.469     N
N       0.8557   0.6562    0.969     N
H       0.8559   0.0809   0.6171     H
H       0.8559   0.5809   0.1171     H
O       0.8803   0.0228   0.0185     O
O       0.8803   0.5228   0.5185     O
O       0.8873   0.1969   0.3458     O
O       0.8873   0.6969   0.8458     O
Cd     0.89163  0.36594  0.43443    Cd
Cd     0.89163  0.86594  0.93443    Cd
H       0.8924   0.1241    0.253     H
H       0.8924   0.6241    0.753     H
C       0.9064   0.2203    0.242     C
C       0.9064   0.7203    0.742     C
H       0.9073   0.1644   0.0983     H
H       0.9073   0.6644   0.5983     H
C        0.908   0.3211   0.3319     C
C        0.908   0.8211   0.8319     C
H       0.9085   0.1434   0.1747     H
H       0.9085   0.6434   0.6747     H
C       0.9096   0.1161   0.0049     C
C       0.9096   0.6161   0.5049     C
C        0.914    0.235   0.1954     C
C        0.914    0.735   0.6954     C
C       0.9176   0.3369   0.2758     C
C       0.9176   0.8369   0.7758     C
C        0.919   0.2614   0.0844     C
C        0.919   0.7614   0.5844     C
O       0.9209   0.4294   0.3604     O
O       0.9209   0.9294   0.8604     O
C        0.922   0.2708   0.0365     C
C        0.922   0.7708   0.5365     C
O       0.9301   0.0916   0.9647     O
C       0.9301   0.3816   0.1744     C
O       0.9301   0.5916   0.4647     O
C       0.9301   0.8816   0.6744     C
C        0.933   0.3959    0.118     C
C        0.933   0.8959    0.618     C
N       0.9331    0.488   0.2571     N
N       0.9331    0.988   0.7571     N
C       0.9355   0.4153   0.0136     C
C       0.9355   0.9153   0.5136     C
H        0.937   0.4203    0.979     H
H        0.937   0.9203    0.479     H
H       0.9389   0.0698    0.777     H
H       0.9389   0.5698    0.277     H
C       0.9392   0.0068   0.7056     C
C       0.9392   0.5068   0.2056     C
C       0.9461   0.0396   0.5936     C
C       0.9461   0.5396   0.0936     C
C       0.9471   0.0536   0.5417     C
C       0.9471   0.5536   0.0417     C
H       0.9497    0.108   0.6931     H
H       0.9497    0.608   0.1931     H
H       0.9546   0.1318   0.6126     H
H       0.9546   0.6318   0.1126     H
O       0.9574   0.2262   0.4685     O
O       0.9574   0.7262   0.9685     O
C       0.9623   0.2135   0.5165     C
C       0.9623   0.7135   0.0165     C
O       0.9788   0.3285   0.5417     O
O       0.9788   0.8285   0.0417     O
