data_I
_chemical_name_common  '/home/zhangsd/repos/MofS-CGCNN/ML/data/TSD/clean_cifs/OTABES_clean'
_cell_length_a 33.43170
_cell_length_b  7.15200
_cell_length_c 16.71810
_cell_angle_alpha 90.00000
_cell_angle_beta  90.00000
_cell_angle_gamma 90.00000
_space_group_name_H-M_alt      'P 1'


loop_
_space_group_symop_operation_xyz
  'x, y, z' 

loop_
_atom_site_label
_atom_site_fract_x
_atom_site_fract_y
_atom_site_fract_z
_atom_site_type_symbol
N          0.0      0.0   0.3788     N
N          0.0      0.0   0.6212     N
C      0.02026      0.0   0.2477     C
C      0.02026      0.0   0.7523     C
C      0.03335      0.0   0.3272     C
C      0.03335      0.0   0.6728     C
N        0.061      0.0      0.5     N
C      0.07071      0.0   0.3579     C
C      0.07071      0.0   0.6421     C
C      0.08766      0.0   0.4321     C
C      0.08766      0.0   0.5679     C
C      0.10326      0.0    0.296     C
C      0.10326      0.0    0.704     C
C      0.12039   0.1578   0.2608     C
C      0.12039   0.1578   0.7392     C
C      0.12039   0.8422   0.2608     C
C      0.12039   0.8422   0.7392     C
C      0.12633      0.0  0.45933     C
C      0.12633      0.0  0.54067     C
C      0.15001   0.1563  0.19944     C
C      0.15001   0.1563  0.80056     C
C      0.15001   0.8437  0.19944     C
C      0.15001   0.8437  0.80056     C
C      0.16668      0.0   0.1644     C
C      0.16668      0.0   0.8356     C
C       0.1984      0.0   0.1023     C
C       0.1984      0.0   0.8977     C
O      0.21039   0.1627   0.0916     O
O      0.21039   0.1627   0.9084     O
O      0.21039   0.8373   0.0916     O
O      0.21039   0.8373   0.9084     O
O       0.2308      0.5      0.0     O
In        0.25     0.25      0.0    In
In        0.25     0.75      0.0    In
O       0.2692      0.0      0.0     O
O      0.28961   0.3373   0.0916     O
O      0.28961   0.3373   0.9084     O
O      0.28961   0.6627   0.0916     O
O      0.28961   0.6627   0.9084     O
C       0.3016      0.5   0.1023     C
C       0.3016      0.5   0.8977     C
C      0.33332      0.5   0.1644     C
C      0.33332      0.5   0.8356     C
C      0.34999   0.3437  0.19944     C
C      0.34999   0.3437  0.80056     C
C      0.34999   0.6563  0.19944     C
C      0.34999   0.6563  0.80056     C
C      0.37367      0.5  0.45933     C
C      0.37367      0.5  0.54067     C
C      0.37961   0.3422   0.2608     C
C      0.37961   0.3422   0.7392     C
C      0.37961   0.6578   0.2608     C
C      0.37961   0.6578   0.7392     C
C      0.39674      0.5    0.296     C
C      0.39674      0.5    0.704     C
C      0.41234      0.5   0.4321     C
C      0.41234      0.5   0.5679     C
C      0.42929      0.5   0.3579     C
C      0.42929      0.5   0.6421     C
N        0.439      0.5      0.5     N
C      0.46665      0.5   0.3272     C
C      0.46665      0.5   0.6728     C
C      0.47974      0.5   0.2477     C
C      0.47974      0.5   0.7523     C
N          0.5      0.5   0.3788     N
N          0.5      0.5   0.6212     N
C      0.52026      0.5   0.2477     C
C      0.52026      0.5   0.7523     C
C      0.53335      0.5   0.3272     C
C      0.53335      0.5   0.6728     C
N        0.561      0.5      0.5     N
C      0.57071      0.5   0.3579     C
C      0.57071      0.5   0.6421     C
C      0.58766      0.5   0.4321     C
C      0.58766      0.5   0.5679     C
C      0.60326      0.5    0.296     C
C      0.60326      0.5    0.704     C
C      0.62039   0.3422   0.2608     C
C      0.62039   0.3422   0.7392     C
C      0.62039   0.6578   0.2608     C
C      0.62039   0.6578   0.7392     C
C      0.62633      0.5  0.45933     C
C      0.62633      0.5  0.54067     C
C      0.65001   0.3437  0.19944     C
C      0.65001   0.3437  0.80056     C
C      0.65001   0.6563  0.19944     C
C      0.65001   0.6563  0.80056     C
C      0.66668      0.5   0.1644     C
C      0.66668      0.5   0.8356     C
C       0.6984      0.5   0.1023     C
C       0.6984      0.5   0.8977     C
O      0.71039   0.3373   0.0916     O
O      0.71039   0.3373   0.9084     O
O      0.71039   0.6627   0.0916     O
O      0.71039   0.6627   0.9084     O
O       0.7308      0.0      0.0     O
In        0.75     0.25      0.0    In
In        0.75     0.75      0.0    In
O       0.7692      0.5      0.0     O
O      0.78961   0.1627   0.0916     O
O      0.78961   0.1627   0.9084     O
O      0.78961   0.8373   0.0916     O
O      0.78961   0.8373   0.9084     O
C       0.8016      0.0   0.1023     C
C       0.8016      0.0   0.8977     C
C      0.83332      0.0   0.1644     C
C      0.83332      0.0   0.8356     C
C      0.84999   0.1563  0.19944     C
C      0.84999   0.1563  0.80056     C
C      0.84999   0.8437  0.19944     C
C      0.84999   0.8437  0.80056     C
C      0.87367      0.0  0.45933     C
C      0.87367      0.0  0.54067     C
C      0.87961   0.1578   0.2608     C
C      0.87961   0.1578   0.7392     C
C      0.87961   0.8422   0.2608     C
C      0.87961   0.8422   0.7392     C
C      0.89674      0.0    0.296     C
C      0.89674      0.0    0.704     C
C      0.91234      0.0   0.4321     C
C      0.91234      0.0   0.5679     C
C      0.92929      0.0   0.3579     C
C      0.92929      0.0   0.6421     C
N        0.939      0.0      0.5     N
C      0.96665      0.0   0.3272     C
C      0.96665      0.0   0.6728     C
C      0.97974      0.0   0.2477     C
C      0.97974      0.0   0.7523     C
