data_I
_chemical_name_common  '/home/zhangsd/repos/MofS-CGCNN/ML/data/TSD/clean_cifs/OTIPUE_clean'
_cell_length_a 10.83360
_cell_length_b 18.28670
_cell_length_c 15.12580
_cell_angle_alpha 90.00000
_cell_angle_beta  111.20800
_cell_angle_gamma 90.00000
_space_group_name_H-M_alt      'P 1'


loop_
_space_group_symop_operation_xyz
  'x, y, z' 

loop_
_atom_site_label
_atom_site_fract_x
_atom_site_fract_y
_atom_site_fract_z
_atom_site_type_symbol
O       0.0108  0.04998  0.88258     O
O       0.0108  0.45002  0.38258     O
H       0.0447   0.6126    0.789     H
H       0.0447   0.8874    0.289     H
C        0.057  0.24654    0.189     C
C        0.057  0.25346    0.689     C
C       0.0592  0.62851   0.4131     C
C       0.0592  0.87149   0.9131     C
N       0.0616   0.1204  0.15201     N
N       0.0616   0.3796  0.65201     N
C       0.0685  0.74282   0.8782     C
C       0.0685  0.75718   0.3782     C
H          0.1   0.5882   0.4493     H
H          0.1   0.9118   0.9493     H
C       0.1084  0.06669   0.9545     C
C       0.1084  0.43331   0.4545     C
H       0.1122   0.1736   0.9055     H
H       0.1122   0.3264   0.4055     H
C       0.1186  0.17927   0.2031     C
C       0.1186  0.32073   0.7031     C
C       0.1187  0.61393   0.8447     C
C       0.1187  0.88607   0.3447     C
F       0.1224  0.19891   0.7443     F
F       0.1224  0.30109   0.2443     F
C       0.1269  0.69457   0.4293     C
C       0.1269  0.80543   0.9293     C
H       0.1326   0.6649   0.6569     H
H       0.1326   0.8351   0.1569     H
C       0.1419  0.67383   0.8981     C
C       0.1419  0.82617   0.3981     C
H       0.1494   0.2081    0.439     H
H       0.1494   0.2919    0.939     H
C       0.1614  0.14205   0.9536     C
C       0.1614  0.35795   0.4536     C
O       0.1651  0.02534  0.02401     O
O       0.1651  0.47466  0.52401     O
Mn      0.1717  0.01142  0.16771    Mn
Mn      0.1717  0.48858  0.66771    Mn
O       0.1804  0.00278  0.31144     O
O       0.1804  0.49722  0.81144     O
H       0.2025   0.1747   0.2495     H
H       0.2025   0.3253   0.7495     H
C       0.2079  0.54854   0.8713     C
C       0.2079  0.95146   0.3713     C
H       0.2136   0.6716   0.9552     H
H       0.2136   0.8284   0.4552     H
C       0.2231  0.66378   0.6691     C
C       0.2231  0.83622   0.1691     C
H       0.2347   0.0944   0.4359     H
H       0.2347   0.4056   0.9359     H
C         0.24  0.20047   0.4683     C
C         0.24  0.29953   0.9683     C
H       0.2435   0.7267   0.1757     H
H       0.2435   0.7733   0.6757     H
F       0.2513    0.695   0.4827     F
F       0.2513    0.805   0.9827     F
C       0.2725  0.16692   0.0158     C
C       0.2725  0.33308   0.5158     C
N       0.2807  0.59874  0.67504     N
N       0.2807  0.90126  0.17504     N
C       0.2893  0.72965     0.68     C
C       0.2893  0.77035     0.18     C
C       0.2922  0.13175   0.4673     C
C       0.2922  0.36825   0.9673     C
O       0.3016  0.54864  0.95013     O
O       0.3016  0.95136  0.45013     O
H       0.3223   0.1358   0.0642     H
C       0.3223  0.24136   0.0131     C
C       0.3223  0.25864   0.5131     C
H       0.3223   0.3642   0.5642     H
O       0.3549  0.07248  0.22139     O
O       0.3549  0.42752  0.72139     O
H       0.3793    0.634   0.1276     H
H       0.3793    0.866   0.6276     H
F       0.3893    0.159   0.7826     F
F       0.3893    0.341   0.2826     F
C       0.4098  0.59911   0.6908     C
C       0.4098  0.90089   0.1908     C
H       0.4103   0.6613   0.9149     H
H       0.4103   0.8387   0.4149     H
H       0.4118   0.2044   0.2409     H
H       0.4118   0.2956   0.7409     H
N       0.4203    0.116  0.50865     N
N       0.4203    0.384  0.00865     N
C       0.4231  0.73083   0.6972     C
C       0.4231  0.76917   0.1972     C
C         0.45  0.07114   0.2989     C
C         0.45  0.42886   0.7989     C
H       0.4535   0.5548   0.6945     H
H       0.4535   0.9452   0.1945     H
C       0.4537  0.24053   0.5543     C
C       0.4537  0.25947   0.0543     C
F       0.4565  0.70697  0.40215     F
F       0.4565  0.79303  0.90215     F
C       0.4631  0.63794   0.1743     C
C       0.4631  0.86206   0.6743     C
C       0.4806  0.66306   0.7018     C
C       0.4806  0.83694   0.2018     C
O       0.4819  0.01778  0.35589     O
O       0.4819  0.48222  0.85589     O
C       0.4977  0.20167   0.2851     C
C       0.4977  0.29833   0.7851     C
C       0.4999  0.67073   0.9465     C
C       0.4999  0.82927   0.4465     C
Mn         0.5      0.0      0.5    Mn
Mn         0.5      0.5      0.0    Mn
C       0.5001  0.17073   0.5535     C
C       0.5001  0.32927   0.0535     C
C       0.5023  0.70167   0.2149     C
C       0.5023  0.79833   0.7149     C
O       0.5181  0.51778  0.14411     O
O       0.5181  0.98222  0.64411     O
C       0.5194  0.16306   0.7982     C
C       0.5194  0.33694   0.2982     C
C       0.5369  0.13794   0.3257     C
C       0.5369  0.36206   0.8257     C
F       0.5435  0.20697  0.09785     F
F       0.5435  0.29303  0.59785     F
C       0.5463  0.74053   0.9457     C
C       0.5463  0.75947   0.4457     C
H       0.5465   0.0548   0.8055     H
H       0.5465   0.4452   0.3055     H
C         0.55  0.57114   0.2011     C
C         0.55  0.92886   0.7011     C
C       0.5769  0.23083   0.8028     C
C       0.5769  0.26917   0.3028     C
N       0.5797    0.616  0.99135     N
N       0.5797    0.884  0.49135     N
H       0.5882   0.7044   0.2591     H
H       0.5882   0.7956   0.7591     H
H       0.5897   0.1613   0.5851     H
H       0.5897   0.3387   0.0851     H
C       0.5902  0.09911   0.8092     C
C       0.5902  0.40089   0.3092     C
F       0.6107    0.659   0.7174     F
F       0.6107    0.841   0.2174     F
H       0.6207    0.134   0.3724     H
H       0.6207    0.366   0.8724     H
O       0.6451  0.57248  0.27861     O
O       0.6451  0.92752  0.77861     O
H       0.6777   0.6358   0.4358     H
C       0.6777  0.74136   0.4869     C
C       0.6777  0.75864   0.9869     C
H       0.6777   0.8642   0.9358     H
O       0.6984  0.04864  0.54987     O
O       0.6984  0.45136  0.04987     O
C       0.7078  0.63175   0.0327     C
C       0.7078  0.86825   0.5327     C
C       0.7107  0.22965     0.82     C
C       0.7107  0.27035     0.32     C
N       0.7193  0.09874  0.82496     N
N       0.7193  0.40126  0.32496     N
C       0.7275  0.66692   0.4842     C
C       0.7275  0.83308   0.9842     C
F       0.7487    0.195   0.0173     F
F       0.7487    0.305   0.5173     F
H       0.7565   0.2267   0.3243     H
H       0.7565   0.2733   0.8243     H
C         0.76  0.70047   0.0317     C
C         0.76  0.79953   0.5317     C
H       0.7653   0.5944   0.0641     H
H       0.7653   0.9056   0.5641     H
C       0.7769  0.16378   0.8309     C
C       0.7769  0.33622   0.3309     C
H       0.7864   0.1716   0.5448     H
H       0.7864   0.3284   0.0448     H
C       0.7921  0.04854   0.6287     C
C       0.7921  0.45146   0.1287     C
H       0.7975   0.6747   0.2505     H
H       0.7975   0.8253   0.7505     H
O       0.8196  0.50278  0.18856     O
O       0.8196  0.99722  0.68856     O
Mn      0.8283  0.51142  0.33229    Mn
Mn      0.8283  0.98858  0.83229    Mn
O       0.8349  0.52534  0.47599     O
O       0.8349  0.97466  0.97599     O
C       0.8386  0.64205   0.5464     C
C       0.8386  0.85795   0.0464     C
H       0.8506   0.7081    0.061     H
H       0.8506   0.7919    0.561     H
C       0.8581  0.17383   0.6019     C
C       0.8581  0.32617   0.1019     C
H       0.8674   0.1649   0.8431     H
H       0.8674   0.3351   0.3431     H
C       0.8731  0.19457   0.0707     C
C       0.8731  0.30543   0.5707     C
F       0.8776  0.69891   0.7557     F
F       0.8776  0.80109   0.2557     F
C       0.8813  0.11393   0.6553     C
C       0.8813  0.38607   0.1553     C
C       0.8814  0.67927   0.2969     C
C       0.8814  0.82073   0.7969     C
H       0.8878   0.6736   0.5945     H
H       0.8878   0.8264   0.0945     H
C       0.8916  0.56669   0.5455     C
C       0.8916  0.93331   0.0455     C
H          0.9   0.0882   0.0507     H
H          0.9   0.4118   0.5507     H
C       0.9315  0.24282   0.6218     C
C       0.9315  0.25718   0.1218     C
N       0.9384   0.6204  0.34799     N
N       0.9384   0.8796  0.84799     N
C       0.9408  0.12851   0.0869     C
C       0.9408  0.37149   0.5869     C
C        0.943  0.74654    0.311     C
C        0.943  0.75346    0.811     C
H       0.9553   0.1126    0.711     H
H       0.9553   0.3874    0.211     H
O       0.9892  0.54998  0.61742     O
O       0.9892  0.95002  0.11742     O
