data_I
_chemical_name_common  '/home/zhangsd/repos/MofS-CGCNN/ML/data/TSD/clean_cifs/OTIQAL_clean'
_cell_length_a 10.02690
_cell_length_b 16.43970
_cell_length_c 12.75480
_cell_angle_alpha 90.00000
_cell_angle_beta  90.64500
_cell_angle_gamma 90.00000
_space_group_name_H-M_alt      'P 1'


loop_
_space_group_symop_operation_xyz
  'x, y, z' 

loop_
_atom_site_label
_atom_site_fract_x
_atom_site_fract_y
_atom_site_fract_z
_atom_site_type_symbol
H        0.001   0.2006   0.3546     H
H        0.001   0.2994   0.8546     H
C       0.0025   0.0736   0.3785     C
C       0.0025   0.4264   0.8785     C
C       0.0432   0.1535   0.3317     C
C       0.0432   0.3465   0.8317     C
O       0.0868  0.01831   0.3903     O
O       0.0868  0.48169   0.8903     O
H       0.1062   0.6597   0.9147     H
H       0.1062   0.8403   0.4147     H
H       0.1134   0.1824   0.8133     H
H       0.1134   0.3176   0.3133     H
O       0.1197  0.56881   0.1014     O
O       0.1197  0.93119   0.6014     O
C       0.1356   0.1602   0.2597     C
C       0.1356   0.3398   0.7597     C
H       0.1424   0.7261   0.3157     H
H       0.1424   0.7739   0.8157     H
C        0.145   0.1873   0.7453     C
C        0.145   0.3127   0.2453     C
H       0.1546   0.0684   0.7177     H
H       0.1546   0.4316   0.2177     H
C       0.1669   0.2362   0.2026     C
C       0.1669   0.2638   0.7026     C
C       0.1701   0.1188   0.6871     C
C       0.1701   0.3812   0.1871     C
H       0.1847    0.114   0.2435     H
H       0.1847    0.386   0.7435     H
C       0.1918   0.6699   0.8907     C
C       0.1918   0.8301   0.3907     C
C       0.2128   0.7387   0.8306     C
C       0.2128   0.7613   0.3306     C
N       0.2154  0.12041   0.5891     N
N       0.2154  0.37959   0.0891     N
C       0.2169   0.2343    0.102     C
C       0.2169   0.2657    0.602     C
H       0.2353   0.1847   0.0704     H
H       0.2353   0.3153   0.5704     H
C       0.2395    0.194   0.5484     C
C       0.2395    0.306   0.0484     C
Mn      0.2484  0.50013  0.00177    Mn
Mn      0.2484  0.99987  0.50177    Mn
H        0.273    0.197   0.4808     H
H        0.273    0.303   0.9808     H
N       0.2881  0.61752   0.9158     N
N       0.2881  0.88248   0.4158     N
H       0.2898    0.639   0.2129     H
H       0.2898    0.861   0.7129     H
C       0.3392   0.7449   0.2926     C
C       0.3392   0.7551   0.7926     C
C       0.3625   0.6723   0.2283     C
C       0.3625   0.8277   0.7283     C
O       0.3792  0.06698   0.4024     O
O       0.3792  0.43302   0.9024     O
O       0.4084  0.52785   0.1117     O
O       0.4084  0.97215   0.6117     O
C       0.4112   0.6341   0.8807     C
C       0.4112   0.8659   0.3807     C
C       0.4395   0.7005   0.8196     C
C       0.4395   0.7995   0.3196     C
H        0.448   0.1849   0.2951     H
H        0.448   0.3151   0.7951     H
H       0.4741    0.209   0.7036     H
H       0.4741    0.291   0.2036     H
C       0.4796   0.6511   0.1909     C
C       0.4796   0.8489   0.6909     C
H       0.4804   0.5988   0.8985     H
H       0.4804   0.9012   0.3985     H
C       0.4968   0.0762   0.3728     C
C       0.4968   0.4238   0.8728     C
C       0.5032   0.5762   0.1272     C
C       0.5032   0.9238   0.6272     C
H       0.5196   0.0988   0.6015     H
H       0.5196   0.4012   0.1015     H
C       0.5204   0.1511   0.3091     C
C       0.5204   0.3489   0.8091     C
H       0.5259    0.709   0.7964     H
H       0.5259    0.791   0.2964     H
H        0.552   0.6849   0.2049     H
H        0.552   0.8151   0.7049     H
C       0.5605   0.2005   0.6804     C
C       0.5605   0.2995   0.1804     C
C       0.5888   0.1341   0.6193     C
C       0.5888   0.3659   0.1193     C
O       0.5916  0.02785   0.3883     O
O       0.5916  0.47215   0.8883     O
O       0.6208  0.56698   0.0976     O
O       0.6208  0.93302   0.5976     O
C       0.6375   0.1723   0.2717     C
C       0.6375   0.3277   0.7717     C
C       0.6608   0.2449   0.2074     C
C       0.6608   0.2551   0.7074     C
H       0.7102    0.139   0.2871     H
H       0.7102    0.361   0.7871     H
N       0.7119  0.11752   0.5842     N
N       0.7119  0.38248   0.0842     N
H        0.727    0.697   0.0192     H
H        0.727    0.803   0.5192     H
Mn      0.7516  0.00013  0.49823    Mn
Mn      0.7516  0.49987  0.99823    Mn
C       0.7605    0.694   0.9516     C
C       0.7605    0.806   0.4516     C
H       0.7647   0.6847   0.4296     H
H       0.7647   0.8153   0.9296     H
C       0.7831   0.7343    0.398     C
C       0.7831   0.7657    0.898     C
N       0.7846  0.62041   0.9109     N
N       0.7846  0.87959   0.4109     N
C       0.7872   0.2387   0.6694     C
C       0.7872   0.2613   0.1694     C
C       0.8082   0.1699   0.6093     C
C       0.8082   0.3301   0.1093     C
H       0.8153    0.614   0.2565     H
H       0.8153    0.886   0.7565     H
C       0.8299   0.6188   0.8129     C
C       0.8299   0.8812   0.3129     C
C       0.8331   0.7362   0.2974     C
C       0.8331   0.7638   0.7974     C
H       0.8454   0.5684   0.7823     H
H       0.8454   0.9316   0.2823     H
C        0.855   0.6873   0.7547     C
C        0.855   0.8127   0.2547     C
H       0.8576   0.2261   0.1843     H
H       0.8576   0.2739   0.6843     H
C       0.8644   0.6602   0.2403     C
C       0.8644   0.8398   0.7403     C
O       0.8803  0.06881   0.3986     O
O       0.8803  0.43119   0.8986     O
H       0.8866   0.6824   0.6867     H
H       0.8866   0.8176   0.1867     H
H       0.8938   0.1597   0.5853     H
H       0.8938   0.3403   0.0853     H
O       0.9132  0.51831   0.1097     O
O       0.9132  0.98169   0.6097     O
C       0.9568   0.6535   0.1683     C
C       0.9568   0.8465   0.6683     C
C       0.9975   0.5736   0.1215     C
C       0.9975   0.9264   0.6215     C
H        0.999   0.7006   0.1454     H
H        0.999   0.7994   0.6454     H
