data_I
_chemical_name_common  '/home/zhangsd/repos/MofS-CGCNN/ML/data/TSD/clean_cifs/OTODEI_clean'
_cell_length_a 12.28200
_cell_length_b 22.79000
_cell_length_c 13.58000
_cell_angle_alpha 90.00000
_cell_angle_beta  91.87000
_cell_angle_gamma 90.00000
_space_group_name_H-M_alt      'P 1'


loop_
_space_group_symop_operation_xyz
  'x, y, z' 

loop_
_atom_site_label
_atom_site_fract_x
_atom_site_fract_y
_atom_site_fract_z
_atom_site_type_symbol
Ag         0.0  0.04883     0.75    Ag
Ag         0.0  0.95117     0.25    Ag
C       0.0055  0.03396   0.0848     C
C       0.0055  0.96604   0.5848     C
H       0.0093   0.0573   0.1427     H
H       0.0093   0.9427   0.6427     H
C       0.0225   0.1948   0.4685     C
C       0.0225   0.8052   0.9685     C
C       0.0301    0.265   0.5898     C
C       0.0301    0.735   0.0898     C
H       0.0558   0.1748    0.416     H
H       0.0558   0.8252    0.916     H
H        0.069    0.295   0.6243     H
H        0.069    0.705   0.1243     H
C       0.0743  0.25371    0.886     C
C       0.0743  0.74629    0.386     C
N       0.0808  0.23532   0.5187     N
N       0.0808  0.76468   0.0187     N
C        0.083  0.18101   0.0106     C
C        0.083  0.81899   0.5106     C
C       0.0873  0.03551   0.4756     C
C       0.0873  0.96449   0.9756     C
C       0.0938   0.0017   0.5615     C
C       0.0938   0.9983   0.0615     C
H        0.103    0.158   0.7622     H
H        0.103    0.842   0.2622     H
H       0.1065   0.2758   0.8353     H
H       0.1065   0.7242   0.3353     H
H       0.1207   0.1517   0.0479     H
H       0.1207   0.8483   0.5479     H
C       0.1349  0.20991   0.9347     C
C       0.1349  0.79009   0.4347     C
H        0.147   0.0596   0.4586     H
H        0.147   0.9404   0.9586     H
H       0.1481   0.1179   0.6087     H
H       0.1481   0.8821   0.1087     H
H       0.1517   0.0861   0.8924     H
H       0.1517   0.9139   0.3924     H
N       0.1727  0.05149    0.708     N
N       0.1727  0.94851    0.208     N
H        0.176   0.4562    0.226     H
H        0.176   0.5438    0.726     H
C       0.1803  0.15745   0.7435     C
C       0.1803  0.84255   0.2435     C
C       0.1903  0.00548   0.6323     C
C       0.1903  0.99452   0.1323     C
C       0.1967  0.11037   0.6669     C
C       0.1967  0.88963   0.1669     C
H       0.1979   0.1963   0.7156     H
H       0.1979   0.8037   0.2156     H
H       0.2018   0.0329   0.1651     H
H       0.2018   0.9671   0.6651     H
H       0.2085   0.3171   0.0382     H
H       0.2085   0.6829   0.5382     H
H       0.2194   0.2702   0.1255     H
H       0.2194   0.7298   0.6255     H
H       0.2234   0.4185   0.0702     H
H       0.2234   0.5815   0.5702     H
H       0.2271   0.3885   0.3547     H
H       0.2271   0.6115   0.8547     H
C        0.228  0.08832   0.8713     C
C        0.228  0.91168   0.3713     C
H       0.2348   0.0025   0.8227     H
H       0.2348   0.9975   0.3227     H
H       0.2435   0.4851   0.4043     H
H       0.2435   0.5149   0.9043     H
C       0.2468  0.19444    0.903     C
C       0.2468  0.80556    0.403     C
C       0.2475  0.04185   0.7946     C
C       0.2475  0.95815   0.2946     C
N       0.2492  0.14653     0.83     N
N       0.2492  0.85347     0.33     N
Ag        0.25     0.25      0.5    Ag
Ag        0.25     0.75      0.0    Ag
N       0.2508  0.35347     0.17     N
N       0.2508  0.64653     0.67     N
C       0.2525  0.45815   0.2054     C
C       0.2525  0.54185   0.7054     C
C       0.2532  0.30556    0.097     C
C       0.2532  0.69444    0.597     C
H       0.2565   0.0149   0.5957     H
H       0.2565   0.9851   0.0957     H
H       0.2652   0.4975   0.1773     H
H       0.2652   0.5025   0.6773     H
C        0.272  0.41168   0.1287     C
C        0.272  0.58832   0.6287     C
H       0.2729   0.1115   0.6453     H
H       0.2729   0.8885   0.1453     H
H       0.2766   0.0815   0.9298     H
H       0.2766   0.9185   0.4298     H
H       0.2806   0.2298   0.8745     H
H       0.2806   0.7702   0.3745     H
H       0.2915   0.1829   0.9618     H
H       0.2915   0.8171   0.4618     H
H       0.2982   0.4671   0.8349     H
H       0.2982   0.5329   0.3349     H
H       0.3021   0.3037   0.2844     H
H       0.3021   0.6963   0.7844     H
C       0.3033  0.38963   0.3331     C
C       0.3033  0.61037   0.8331     C
C       0.3097  0.49452   0.3677     C
C       0.3097  0.50548   0.8677     C
C       0.3197  0.34255   0.2565     C
C       0.3197  0.65745   0.7565     C
H        0.324   0.0438    0.774     H
H        0.324   0.9562    0.274     H
N       0.3273  0.44851    0.292     N
N       0.3273  0.55149    0.792     N
H       0.3483   0.4139   0.1076     H
H       0.3483   0.5861   0.6076     H
H       0.3519   0.3821   0.3913     H
H       0.3519   0.6179   0.8913     H
H        0.353   0.4404   0.5414     H
H        0.353   0.5596   0.0414     H
C       0.3651  0.29009   0.0653     C
C       0.3651  0.70991   0.5653     C
H       0.3793   0.3483   0.9521     H
H       0.3793   0.6517   0.4521     H
H       0.3935   0.2242   0.1647     H
H       0.3935   0.7758   0.6647     H
H        0.397    0.342   0.2378     H
H        0.397    0.658   0.7378     H
C       0.4062   0.4983   0.4385     C
C       0.4062   0.5017   0.9385     C
C       0.4127  0.46449   0.5244     C
C       0.4127  0.53551   0.0244     C
C        0.417  0.31899   0.9894     C
C        0.417  0.68101   0.4894     C
N       0.4192  0.26468   0.4813     N
N       0.4192  0.73532   0.9813     N
C       0.4257  0.24629    0.114     C
C       0.4257  0.75371    0.614     C
H        0.431    0.205   0.3757     H
H        0.431    0.795   0.8757     H
H       0.4442   0.3252    0.584     H
H       0.4442   0.6748    0.084     H
C       0.4699    0.235   0.4102     C
C       0.4699    0.765   0.9102     C
C       0.4775   0.3052   0.5315     C
C       0.4775   0.6948   0.0315     C
H       0.4907   0.4427   0.8573     H
H       0.4907   0.5573   0.3573     H
C       0.4945  0.46604   0.9152     C
C       0.4945  0.53396   0.4152     C
Ag         0.5  0.45117     0.25    Ag
Ag         0.5  0.54883     0.75    Ag
C       0.5055  0.46604   0.5848     C
C       0.5055  0.53396   0.0848     C
H       0.5093   0.4427   0.6427     H
H       0.5093   0.5573   0.1427     H
C       0.5225   0.3052   0.9685     C
C       0.5225   0.6948   0.4685     C
C       0.5301    0.235   0.0898     C
C       0.5301    0.765   0.5898     C
H       0.5558   0.3252    0.916     H
H       0.5558   0.6748    0.416     H
H        0.569    0.205   0.1243     H
H        0.569    0.795   0.6243     H
C       0.5743  0.24629    0.386     C
C       0.5743  0.75371    0.886     C
N       0.5808  0.26468   0.0187     N
N       0.5808  0.73532   0.5187     N
C        0.583  0.31899   0.5106     C
C        0.583  0.68101   0.0106     C
C       0.5873  0.46449   0.9756     C
C       0.5873  0.53551   0.4756     C
C       0.5938   0.4983   0.0615     C
C       0.5938   0.5017   0.5615     C
H        0.603    0.342   0.2622     H
H        0.603    0.658   0.7622     H
H       0.6065   0.2242   0.3353     H
H       0.6065   0.7758   0.8353     H
H       0.6207   0.3483   0.5479     H
H       0.6207   0.6517   0.0479     H
C       0.6349  0.29009   0.4347     C
C       0.6349  0.70991   0.9347     C
H        0.647   0.4404   0.9586     H
H        0.647   0.5596   0.4586     H
H       0.6481   0.3821   0.1087     H
H       0.6481   0.6179   0.6087     H
H       0.6517   0.4139   0.3924     H
H       0.6517   0.5861   0.8924     H
N       0.6727  0.44851    0.208     N
N       0.6727  0.55149    0.708     N
H        0.676   0.0438    0.726     H
H        0.676   0.9562    0.226     H
C       0.6803  0.34255   0.2435     C
C       0.6803  0.65745   0.7435     C
C       0.6903  0.49452   0.1323     C
C       0.6903  0.50548   0.6323     C
C       0.6967  0.38963   0.1669     C
C       0.6967  0.61037   0.6669     C
H       0.6979   0.3037   0.2156     H
H       0.6979   0.6963   0.7156     H
H       0.7018   0.4671   0.6651     H
H       0.7018   0.5329   0.1651     H
H       0.7085   0.1829   0.5382     H
H       0.7085   0.8171   0.0382     H
H       0.7194   0.2298   0.6255     H
H       0.7194   0.7702   0.1255     H
H       0.7234   0.0815   0.5702     H
H       0.7234   0.9185   0.0702     H
H       0.7271   0.1115   0.8547     H
H       0.7271   0.8885   0.3547     H
C        0.728  0.41168   0.3713     C
C        0.728  0.58832   0.8713     C
H       0.7348   0.4975   0.3227     H
H       0.7348   0.5025   0.8227     H
H       0.7435   0.0149   0.9043     H
H       0.7435   0.9851   0.4043     H
C       0.7468  0.30556    0.403     C
C       0.7468  0.69444    0.903     C
C       0.7475  0.45815   0.2946     C
C       0.7475  0.54185   0.7946     C
N       0.7492  0.35347     0.33     N
N       0.7492  0.64653     0.83     N
Ag        0.75     0.25      0.0    Ag
Ag        0.75     0.75      0.5    Ag
N       0.7508  0.14653     0.67     N
N       0.7508  0.85347     0.17     N
C       0.7525  0.04185   0.7054     C
C       0.7525  0.95815   0.2054     C
C       0.7532  0.19444    0.597     C
C       0.7532  0.80556    0.097     C
H       0.7565   0.4851   0.0957     H
H       0.7565   0.5149   0.5957     H
H       0.7652   0.0025   0.6773     H
H       0.7652   0.9975   0.1773     H
C        0.772  0.08832   0.6287     C
C        0.772  0.91168   0.1287     C
H       0.7729   0.3885   0.1453     H
H       0.7729   0.6115   0.6453     H
H       0.7766   0.4185   0.4298     H
H       0.7766   0.5815   0.9298     H
H       0.7806   0.2702   0.3745     H
H       0.7806   0.7298   0.8745     H
H       0.7915   0.3171   0.4618     H
H       0.7915   0.6829   0.9618     H
H       0.7982   0.0329   0.3349     H
H       0.7982   0.9671   0.8349     H
H       0.8021   0.1963   0.7844     H
H       0.8021   0.8037   0.2844     H
C       0.8033  0.11037   0.8331     C
C       0.8033  0.88963   0.3331     C
C       0.8097  0.00548   0.8677     C
C       0.8097  0.99452   0.3677     C
C       0.8197  0.15745   0.7565     C
C       0.8197  0.84255   0.2565     C
H        0.824   0.4562    0.274     H
H        0.824   0.5438    0.774     H
N       0.8273  0.05149    0.792     N
N       0.8273  0.94851    0.292     N
H       0.8483   0.0861   0.6076     H
H       0.8483   0.9139   0.1076     H
H       0.8519   0.1179   0.8913     H
H       0.8519   0.8821   0.3913     H
H        0.853   0.0596   0.0414     H
H        0.853   0.9404   0.5414     H
C       0.8651  0.20991   0.5653     C
C       0.8651  0.79009   0.0653     C
H       0.8793   0.1517   0.4521     H
H       0.8793   0.8483   0.9521     H
H       0.8935   0.2758   0.6647     H
H       0.8935   0.7242   0.1647     H
H        0.897    0.158   0.7378     H
H        0.897    0.842   0.2378     H
C       0.9062   0.0017   0.9385     C
C       0.9062   0.9983   0.4385     C
C       0.9127  0.03551   0.0244     C
C       0.9127  0.96449   0.5244     C
C        0.917  0.18101   0.4894     C
C        0.917  0.81899   0.9894     C
N       0.9192  0.23532   0.9813     N
N       0.9192  0.76468   0.4813     N
C       0.9257  0.25371    0.614     C
C       0.9257  0.74629    0.114     C
H        0.931    0.295   0.8757     H
H        0.931    0.705   0.3757     H
H       0.9442   0.1748    0.084     H
H       0.9442   0.8252    0.584     H
C       0.9699    0.265   0.9102     C
C       0.9699    0.735   0.4102     C
C       0.9775   0.1948   0.0315     C
C       0.9775   0.8052   0.5315     C
H       0.9907   0.0573   0.3573     H
H       0.9907   0.9427   0.8573     H
C       0.9945  0.03396   0.4152     C
C       0.9945  0.96604   0.9152     C
