data_I
_chemical_name_common  '/home/zhangsd/repos/MofS-CGCNN/ML/data/TSD/clean_cifs/OTOROF_clean'
_cell_length_a  8.53100
_cell_length_b 13.37600
_cell_length_c 13.63100
_cell_angle_alpha 90.00000
_cell_angle_beta  90.00000
_cell_angle_gamma 90.00000
_space_group_name_H-M_alt      'P 1'


loop_
_space_group_symop_operation_xyz
  'x, y, z' 

loop_
_atom_site_label
_atom_site_fract_x
_atom_site_fract_y
_atom_site_fract_z
_atom_site_type_symbol
Fe         0.0      0.0      0.5    Fe
Fe         0.0      0.5      0.5    Fe
C       0.0509  0.08541  0.38956     C
C       0.0509  0.41459  0.38956     C
N       0.0854  0.13591  0.32563     N
N       0.0854  0.36409  0.32563     N
C       0.1267  0.08447  0.58454     C
C       0.1267  0.41553  0.58454     C
Mn     0.18499     0.25   0.2246    Mn
C       0.1864  0.57543  0.46933     C
C       0.1864  0.92457  0.46933     C
N       0.2016  0.13409  0.63449     N
N       0.2016  0.36591  0.63449     N
N       0.2027  0.61793  0.95077     N
N       0.2027  0.88207  0.95077     N
N       0.2973  0.61793  0.45077     N
N       0.2973  0.88207  0.45077     N
N       0.2984  0.13409  0.13449     N
N       0.2984  0.36591  0.13449     N
C       0.3136  0.57543  0.96933     C
C       0.3136  0.92457  0.96933     C
Mn     0.31501     0.25   0.7246    Mn
C       0.3733  0.08447  0.08454     C
C       0.3733  0.41553  0.08454     C
N       0.4146  0.13591  0.82563     N
N       0.4146  0.36409  0.82563     N
C       0.4491  0.08541  0.88956     C
C       0.4491  0.41459  0.88956     C
Fe         0.5      0.0      0.0    Fe
Fe         0.5      0.5      0.0    Fe
C       0.5509  0.58541  0.11044     C
C       0.5509  0.91459  0.11044     C
N       0.5854  0.63591  0.17437     N
N       0.5854  0.86409  0.17437     N
C       0.6267  0.58447  0.91546     C
C       0.6267  0.91553  0.91546     C
Mn     0.68499     0.75   0.2754    Mn
C       0.6864  0.07543  0.03067     C
C       0.6864  0.42457  0.03067     C
N       0.7016  0.63409  0.86551     N
N       0.7016  0.86591  0.86551     N
N       0.7027  0.11793  0.54923     N
N       0.7027  0.38207  0.54923     N
N       0.7973  0.11793  0.04923     N
N       0.7973  0.38207  0.04923     N
N       0.7984  0.63409  0.36551     N
N       0.7984  0.86591  0.36551     N
C       0.8136  0.07543  0.53067     C
C       0.8136  0.42457  0.53067     C
Mn     0.81501     0.75   0.7754    Mn
C       0.8733  0.58447  0.41546     C
C       0.8733  0.91553  0.41546     C
N       0.9146  0.63591  0.67437     N
N       0.9146  0.86409  0.67437     N
C       0.9491  0.58541  0.61044     C
C       0.9491  0.91459  0.61044     C
