data_I
_chemical_name_common  '/home/zhangsd/repos/MofS-CGCNN/ML/data/TSD/clean_cifs/OVIZOJ_clean'
_cell_length_a 12.42250
_cell_length_b 12.99810
_cell_length_c 14.77900
_cell_angle_alpha 64.38400
_cell_angle_beta  80.88500
_cell_angle_gamma 79.56200
_space_group_name_H-M_alt      'P 1'


loop_
_space_group_symop_operation_xyz
  'x, y, z' 

loop_
_atom_site_label
_atom_site_fract_x
_atom_site_fract_y
_atom_site_fract_z
_atom_site_type_symbol
C      0.00169  0.67746     0.28     C
C       0.0217   0.4613   0.5497     C
O      0.02277  0.30818  0.92558     O
O       0.0282    0.971   0.3795     O
C      0.04609  0.60845   0.3705     C
C       0.0558   0.7267   0.0086     C
O      0.05928  0.82767  0.94405     O
H       0.0601   0.7236   0.2208     H
C       0.1003   0.0362   0.3419     C
N       0.1027   0.3188   0.7368     N
O      0.10403   0.1146  0.25306     O
H       0.1196   0.6213   0.3776     H
H       0.1249   0.6056    0.968     H
C      0.12851  0.45275   0.5663     C
C        0.148   0.6333   0.0064     C
Ni     0.15313  0.21716  0.88021    Ni
H       0.1544   0.0717   0.4408     H
C      0.16591  0.38194   0.6594     C
H       0.1676   0.5816   0.0863     H
H       0.1826   0.4877   0.5156     H
C       0.1874   0.0277   0.4083     C
Ni     0.19025  0.84516   0.8371    Ni
H       0.2052   0.9445   0.4646     H
H       0.2225   0.5098   0.9149     H
Ni     0.22886  0.21634  0.21228    Ni
H       0.2396   0.3651   0.6666     H
O      0.24505  0.33116  0.88726     O
N       0.2518    0.683   0.9581     N
H       0.2531   0.1109   0.5141     H
H       0.2593   0.1549   0.7749     H
O       0.2626  0.91145  0.91057     O
H        0.267   0.6729   0.1005     H
O      0.27609   0.1537  0.65467     O
O       0.2766   0.7992   0.6332     O
C       0.2872    0.843   0.9982     C
N      0.28829  0.07016  0.34483     N
O      0.28945  0.12953  0.83037     O
H       0.2907   0.0585   0.8585     H
H       0.2963   0.9375   0.3034     H
C       0.2977   0.5254   0.9005     C
C       0.2983   0.7147   0.0282     C
O       0.3053   0.8751   0.0614     O
O       0.3084   0.4383   0.2439     O
O      0.32252   0.8607  0.73931     O
C       0.3293   0.1286    0.475     C
C       0.3298   0.6126    0.916     C
C       0.3316   0.3717   0.8362     C
O      0.33399  0.12858  0.13884     O
C       0.3436   0.8321   0.6668     C
C       0.3466   0.9835    0.306     C
O      0.35228   0.3124   0.1746     O
C       0.3616   0.1053   0.3906     C
C       0.3702    0.465   0.8531     C
C      0.37072  0.17741  0.61139     C
C       0.3739   0.3889   0.1966     C
H       0.3783   0.6843    0.038     H
O      0.38818  0.34018  0.77155     O
C       0.3895   0.0383   0.1949     C
C       0.4029   0.1666   0.5131     C
H       0.4044   0.9339   0.3443     H
C       0.4373   0.6377   0.8853     C
O      0.43991   0.2065  0.64687     O
H       0.4405   0.7996   0.4995     H
Ni     0.44943  0.17556  0.79524    Ni
C       0.4588    0.842   0.6167     C
H       0.4608   0.6997   0.8907     H
H       0.4642   0.5467   0.2192     H
C       0.4688    0.119   0.3461     C
O      0.47445  0.99093  0.16385     O
C       0.4775   0.4906   0.8221     C
C       0.4888   0.4227   0.1618     C
C       0.4919   0.8162   0.5338     C
H       0.4967   0.1043   0.2822     H
H       0.5033   0.8957   0.7178     H
C       0.5081   0.1838   0.4662     C
C       0.5112   0.5773   0.8382     C
C       0.5225   0.5094   0.1779     C
O      0.52555  0.00907  0.83615     O
C       0.5312    0.881   0.6539     C
H       0.5358   0.4533   0.7808     H
H       0.5392   0.3003   0.1093     H
C       0.5412    0.158   0.3833     C
Ni     0.55057  0.82444  0.20476    Ni
H       0.5595   0.2004   0.5005     H
O      0.56009   0.7935  0.35313     O
C       0.5627   0.3623   0.1147     C
H       0.5956   0.0661   0.6557     H
C       0.5971   0.8334   0.4869     C
C       0.6105   0.9617   0.8051     C
O      0.61182  0.65982  0.22845     O
H       0.6217   0.3157    0.962     H
C       0.6261   0.6111   0.8034     C
C      0.62928  0.82259  0.38861     C
C       0.6298    0.535   0.1469     C
C       0.6384   0.8947   0.6094     C
O      0.64772   0.6876   0.8254     O
C       0.6534   0.0165    0.694     C
C       0.6564   0.1679   0.3332     C
O      0.66601  0.87142  0.86116     O
C       0.6684   0.6283   0.1638     C
C       0.6702   0.3874    0.084     C
C       0.6707   0.8714    0.525     C
O      0.67748   0.1393  0.26069     O
O       0.6916   0.5617   0.7561     O
O       0.6947   0.1249   0.9386     O
C       0.7017   0.2853   0.9718     C
C       0.7023   0.4746   0.0995     C
H       0.7037   0.0625   0.6966     H
H       0.7093   0.9415   0.1415     H
O      0.71055  0.87047  0.16963     O
N      0.71171  0.92984  0.65517     N
C       0.7128    0.157   0.0018     C
O       0.7234   0.2008   0.3668     O
O      0.72391   0.8463  0.34533     O
H        0.733   0.3271   0.8995     H
O       0.7374  0.08855  0.08943     O
H       0.7407   0.8451   0.2251     H
H       0.7469   0.8891   0.4859     H
N       0.7482    0.317   0.0419     N
O      0.75495  0.66884  0.11274     O
H       0.7604   0.6349   0.3334     H
Ni     0.77114  0.78366  0.78772    Ni
H       0.7775   0.4902   0.0851     H
H       0.7948   0.0555   0.5354     H
Ni     0.80975  0.15484   0.1629    Ni
C       0.8126   0.9723   0.5917     C
H       0.8174   0.5123   0.4844     H
H       0.8324   0.4184   0.9137     H
C      0.83409  0.61806   0.3406     C
H       0.8456   0.9283   0.5592     H
Ni     0.84687  0.78284  0.11979    Ni
C        0.852   0.3667   0.9936     C
C      0.87149  0.54725   0.4337     C
H       0.8751   0.3944    0.032     H
H       0.8804   0.3787   0.6224     H
O      0.89597   0.8854  0.74694     O
N       0.8973   0.6812   0.2632     N
C       0.8997   0.9638   0.6581     C
H       0.9399   0.2764   0.7792     H
O      0.94072  0.17233  0.05595     O
C       0.9442   0.2733   0.9914     C
C      0.95391  0.39155   0.6295     C
O       0.9718    0.029   0.6205     O
O      0.97723  0.69182  0.07442     O
C       0.9783   0.5387   0.4503     C
C      0.99831  0.32254     0.72     C
