data_I
_chemical_name_common  '/home/zhangsd/repos/MofS-CGCNN/ML/data/TSD/clean_cifs/OWIHEJ_clean'
_cell_length_a 15.46360
_cell_length_b 15.46360
_cell_length_c 12.29040
_cell_angle_alpha 90.00000
_cell_angle_beta  90.00000
_cell_angle_gamma 90.00000
_space_group_name_H-M_alt      'P 1'


loop_
_space_group_symop_operation_xyz
  'x, y, z' 

loop_
_atom_site_label
_atom_site_fract_x
_atom_site_fract_y
_atom_site_fract_z
_atom_site_type_symbol
H          0.0      0.0   0.1251     H
C          0.0      0.0   0.2106     C
C          0.0      0.0  0.43814     C
C          0.0      0.0  0.56186     C
C          0.0      0.0   0.7894     C
H          0.0      0.0   0.8749     H
C          0.0      0.5   0.0394     C
H          0.0      0.5   0.1249     H
H          0.0      0.5   0.3751     H
C          0.0      0.5   0.4606     C
C          0.0      0.5  0.68814     C
C          0.0      0.5  0.81186     C
C      0.03685  0.56912  0.86875     C
C      0.03685  0.56912   0.9826     C
C      0.03685  0.93088   0.2674     C
C      0.03685  0.93088  0.38125     C
H       0.0645    0.621    0.826     H
H       0.0645    0.879    0.424     H
C      0.06912  0.53685   0.5174     C
C      0.06912  0.53685  0.63125     C
C      0.06912  0.96315  0.61875     C
C      0.06912  0.96315   0.7326     C
C       0.0837   0.6356   0.0412     C
C       0.0837   0.8644   0.2088     C
O       0.0938    0.709   0.9988     O
O       0.0938    0.791   0.2512     O
O       0.1139   0.6194    0.134     O
O       0.1139   0.8806    0.116     O
O       0.1194   0.6139    0.366     O
O       0.1194   0.8861    0.884     O
H        0.121   0.5645    0.674     H
H        0.121   0.9355    0.576     H
C       0.1356   0.5837   0.4588     C
C       0.1356   0.9163   0.7912     C
H       0.1801     0.75    0.625     H
In      0.1875   0.6875     0.25    In
In      0.1875   0.8125      0.0    In
O        0.209   0.5938   0.5012     O
O        0.209   0.9062   0.7488     O
O       0.2383     0.75    0.625     O
H         0.25   0.6801    0.875     H
O         0.25   0.7383    0.875     O
O         0.25   0.7617    0.375     O
H         0.25   0.8199    0.375     H
O       0.2617     0.75    0.125     O
O        0.291   0.5938   0.2488     O
O        0.291   0.9062   0.0012     O
In      0.3125   0.6875      0.5    In
In      0.3125   0.8125     0.75    In
H       0.3199     0.75    0.125     H
C       0.3644   0.5837   0.2912     C
C       0.3644   0.9163   0.9588     C
H        0.379   0.5645    0.076     H
H        0.379   0.9355    0.174     H
O       0.3806   0.6139    0.384     O
O       0.3806   0.8861    0.866     O
O       0.3861   0.6194    0.616     O
O       0.3861   0.8806    0.634     O
O       0.4062    0.709   0.7512     O
O       0.4062    0.791   0.4988     O
C       0.4163   0.6356   0.7088     C
C       0.4163   0.8644   0.5412     C
C      0.43088  0.53685  0.11875     C
C      0.43088  0.53685   0.2326     C
C      0.43088  0.96315   0.0174     C
C      0.43088  0.96315  0.13125     C
H       0.4355    0.621    0.924     H
H       0.4355    0.879    0.326     H
C      0.46315  0.56912   0.7674     C
C      0.46315  0.56912  0.88125     C
C      0.46315  0.93088  0.36875     C
C      0.46315  0.93088   0.4826     C
C          0.5      0.0  0.18814     C
C          0.5      0.0  0.31186     C
C          0.5      0.0   0.5394     C
H          0.5      0.0   0.6249     H
H          0.5      0.0   0.8751     H
C          0.5      0.0   0.9606     C
C          0.5      0.5  0.06186     C
C          0.5      0.5   0.2894     C
H          0.5      0.5   0.3749     H
H          0.5      0.5   0.6251     H
C          0.5      0.5   0.7106     C
C          0.5      0.5  0.93814     C
C      0.53685  0.06912  0.36875     C
C      0.53685  0.06912   0.4826     C
C      0.53685  0.43088   0.7674     C
C      0.53685  0.43088  0.88125     C
H       0.5645    0.121    0.326     H
H       0.5645    0.379    0.924     H
C      0.56912  0.03685   0.0174     C
C      0.56912  0.03685  0.13125     C
C      0.56912  0.46315  0.11875     C
C      0.56912  0.46315   0.2326     C
C       0.5837   0.1356   0.5412     C
C       0.5837   0.3644   0.7088     C
O       0.5938    0.209   0.4988     O
O       0.5938    0.291   0.7512     O
O       0.6139   0.1194    0.634     O
O       0.6139   0.3806    0.616     O
O       0.6194   0.1139    0.866     O
O       0.6194   0.3861    0.384     O
H        0.621   0.0645    0.174     H
H        0.621   0.4355    0.076     H
C       0.6356   0.0837   0.9588     C
C       0.6356   0.4163   0.2912     C
H       0.6801     0.25    0.125     H
In      0.6875   0.1875     0.75    In
In      0.6875   0.3125      0.5    In
O        0.709   0.0938   0.0012     O
O        0.709   0.4062   0.2488     O
O       0.7383     0.25    0.125     O
H         0.75   0.1801    0.375     H
O         0.75   0.2383    0.375     O
O         0.75   0.2617    0.875     O
H         0.75   0.3199    0.875     H
O       0.7617     0.25    0.625     O
O        0.791   0.0938   0.7488     O
O        0.791   0.4062   0.5012     O
In      0.8125   0.1875      0.0    In
In      0.8125   0.3125     0.25    In
H       0.8199     0.25    0.625     H
C       0.8644   0.0837   0.7912     C
C       0.8644   0.4163   0.4588     C
H        0.879   0.0645    0.576     H
H        0.879   0.4355    0.674     H
O       0.8806   0.1139    0.884     O
O       0.8806   0.3861    0.366     O
O       0.8861   0.1194    0.116     O
O       0.8861   0.3806    0.134     O
O       0.9062    0.209   0.2512     O
O       0.9062    0.291   0.9988     O
C       0.9163   0.1356   0.2088     C
C       0.9163   0.3644   0.0412     C
C      0.93088  0.03685  0.61875     C
C      0.93088  0.03685   0.7326     C
C      0.93088  0.46315   0.5174     C
C      0.93088  0.46315  0.63125     C
H       0.9355    0.121    0.424     H
H       0.9355    0.379    0.826     H
C      0.96315  0.06912   0.2674     C
C      0.96315  0.06912  0.38125     C
C      0.96315  0.43088  0.86875     C
C      0.96315  0.43088   0.9826     C
