data_I
_chemical_name_common  '/home/zhangsd/repos/MofS-CGCNN/ML/data/TSD/clean_cifs/OWIHOT_clean'
_cell_length_a 15.50190
_cell_length_b 15.50190
_cell_length_c 12.30600
_cell_angle_alpha 90.00000
_cell_angle_beta  90.00000
_cell_angle_gamma 90.00000
_space_group_name_H-M_alt      'P 1'


loop_
_space_group_symop_operation_xyz
  'x, y, z' 

loop_
_atom_site_label
_atom_site_fract_x
_atom_site_fract_y
_atom_site_fract_z
_atom_site_type_symbol
H          0.0      0.0   0.1273     H
C          0.0      0.0   0.2126     C
C          0.0      0.0   0.4395     C
C          0.0      0.0   0.5605     C
C          0.0      0.0   0.7874     C
H          0.0      0.0   0.8727     H
C          0.0      0.5   0.0374     C
H          0.0      0.5   0.1227     H
H          0.0      0.5   0.3773     H
C          0.0      0.5   0.4626     C
C          0.0      0.5   0.6895     C
C          0.0      0.5   0.8105     C
C       0.0391  0.56752   0.8672     C
C       0.0391  0.56752   0.9807     C
C       0.0391  0.93248   0.2693     C
C       0.0391  0.93248   0.3828     C
C      0.06752   0.5391   0.5193     C
C      0.06752   0.5391   0.6328     C
C      0.06752   0.9609   0.6172     C
C      0.06752   0.9609   0.7307     C
H       0.0684   0.6183   0.8246     H
H       0.0684   0.8817   0.4254     H
C       0.0829   0.6357   0.0396     C
C       0.0829   0.8643   0.2104     C
O       0.0881   0.7088   0.9955     O
O       0.0881   0.7912   0.2545     O
O       0.1135   0.6183   0.1318     O
O       0.1135   0.8817   0.1182     O
H       0.1183   0.5684   0.6754     H
O       0.1183   0.6135   0.3682     O
O       0.1183   0.8865   0.8818     O
H       0.1183   0.9316   0.5746     H
C       0.1357   0.5829   0.4604     C
C       0.1357   0.9171   0.7896     C
In      0.1719   0.6719     0.25    In
In      0.1719   0.8281      0.0    In
H       0.1845     0.75    0.625     H
O       0.2088   0.5881   0.5045     O
O       0.2088   0.9119   0.7455     O
O       0.2425     0.75    0.625     O
H         0.25   0.6845    0.875     H
O         0.25   0.7425    0.875     O
O         0.25   0.7575    0.375     O
H         0.25   0.8155    0.375     H
O       0.2575     0.75    0.125     O
O       0.2912   0.5881   0.2455     O
O       0.2912   0.9119   0.0045     O
H       0.3155     0.75    0.125     H
In      0.3281   0.6719      0.5    In
In      0.3281   0.8281     0.75    In
C       0.3643   0.5829   0.2896     C
C       0.3643   0.9171   0.9604     C
H       0.3817   0.5684   0.0746     H
O       0.3817   0.6135   0.3818     O
O       0.3817   0.8865   0.8682     O
H       0.3817   0.9316   0.1754     H
O       0.3865   0.6183   0.6182     O
O       0.3865   0.8817   0.6318     O
O       0.4119   0.7088   0.7545     O
O       0.4119   0.7912   0.4955     O
C       0.4171   0.6357   0.7104     C
C       0.4171   0.8643   0.5396     C
H       0.4316   0.6183   0.9254     H
H       0.4316   0.8817   0.3246     H
C      0.43248   0.5391   0.1172     C
C      0.43248   0.5391   0.2307     C
C      0.43248   0.9609   0.0193     C
C      0.43248   0.9609   0.1328     C
C       0.4609  0.56752   0.7693     C
C       0.4609  0.56752   0.8828     C
C       0.4609  0.93248   0.3672     C
C       0.4609  0.93248   0.4807     C
C          0.5      0.0   0.1895     C
C          0.5      0.0   0.3105     C
C          0.5      0.0   0.5374     C
H          0.5      0.0   0.6227     H
H          0.5      0.0   0.8773     H
C          0.5      0.0   0.9626     C
C          0.5      0.5   0.0605     C
C          0.5      0.5   0.2874     C
H          0.5      0.5   0.3727     H
H          0.5      0.5   0.6273     H
C          0.5      0.5   0.7126     C
C          0.5      0.5   0.9395     C
C       0.5391  0.06752   0.3672     C
C       0.5391  0.06752   0.4807     C
C       0.5391  0.43248   0.7693     C
C       0.5391  0.43248   0.8828     C
C      0.56752   0.0391   0.0193     C
C      0.56752   0.0391   0.1328     C
C      0.56752   0.4609   0.1172     C
C      0.56752   0.4609   0.2307     C
H       0.5684   0.1183   0.3246     H
H       0.5684   0.3817   0.9254     H
C       0.5829   0.1357   0.5396     C
C       0.5829   0.3643   0.7104     C
O       0.5881   0.2088   0.4955     O
O       0.5881   0.2912   0.7545     O
O       0.6135   0.1183   0.6318     O
O       0.6135   0.3817   0.6182     O
H       0.6183   0.0684   0.1754     H
O       0.6183   0.1135   0.8682     O
O       0.6183   0.3865   0.3818     O
H       0.6183   0.4316   0.0746     H
C       0.6357   0.0829   0.9604     C
C       0.6357   0.4171   0.2896     C
In      0.6719   0.1719     0.75    In
In      0.6719   0.3281      0.5    In
H       0.6845     0.25    0.125     H
O       0.7088   0.0881   0.0045     O
O       0.7088   0.4119   0.2455     O
O       0.7425     0.25    0.125     O
H         0.75   0.1845    0.375     H
O         0.75   0.2425    0.375     O
O         0.75   0.2575    0.875     O
H         0.75   0.3155    0.875     H
O       0.7575     0.25    0.625     O
O       0.7912   0.0881   0.7455     O
O       0.7912   0.4119   0.5045     O
H       0.8155     0.25    0.625     H
In      0.8281   0.1719      0.0    In
In      0.8281   0.3281     0.25    In
C       0.8643   0.0829   0.7896     C
C       0.8643   0.4171   0.4604     C
H       0.8817   0.0684   0.5746     H
O       0.8817   0.1135   0.8818     O
O       0.8817   0.3865   0.3682     O
H       0.8817   0.4316   0.6754     H
O       0.8865   0.1183   0.1182     O
O       0.8865   0.3817   0.1318     O
O       0.9119   0.2088   0.2545     O
O       0.9119   0.2912   0.9955     O
C       0.9171   0.1357   0.2104     C
C       0.9171   0.3643   0.0396     C
H       0.9316   0.1183   0.4254     H
H       0.9316   0.3817   0.8246     H
C      0.93248   0.0391   0.6172     C
C      0.93248   0.0391   0.7307     C
C      0.93248   0.4609   0.5193     C
C      0.93248   0.4609   0.6328     C
C       0.9609  0.06752   0.2693     C
C       0.9609  0.06752   0.3828     C
C       0.9609  0.43248   0.8672     C
C       0.9609  0.43248   0.9807     C
