data_I
_chemical_name_common  '/home/zhangsd/repos/MofS-CGCNN/ML/data/TSD/clean_cifs/OWIJAH_clean'
_cell_length_a 15.49230
_cell_length_b 15.49230
_cell_length_c 12.31050
_cell_angle_alpha 90.00000
_cell_angle_beta  90.00000
_cell_angle_gamma 90.00000
_space_group_name_H-M_alt      'P 1'


loop_
_space_group_symop_operation_xyz
  'x, y, z' 

loop_
_atom_site_label
_atom_site_fract_x
_atom_site_fract_y
_atom_site_fract_z
_atom_site_type_symbol
H          0.0      0.0   0.1254     H
C          0.0      0.0   0.2107     C
C          0.0      0.0  0.43833     C
C          0.0      0.0  0.56167     C
C          0.0      0.0   0.7893     C
H          0.0      0.0   0.8746     H
C          0.0      0.5   0.0393     C
H          0.0      0.5   0.1246     H
H          0.0      0.5   0.3754     H
C          0.0      0.5   0.4607     C
C          0.0      0.5  0.68833     C
C          0.0      0.5  0.81167     C
C      0.03747  0.56878  0.86858     C
C      0.03747  0.56878   0.9824     C
C      0.03747  0.93122   0.2676     C
C      0.03747  0.93122  0.38142     C
H       0.0655   0.6203   0.8259     H
H       0.0655   0.8797   0.4241     H
C      0.06878  0.53747   0.5176     C
C      0.06878  0.53747  0.63142     C
C      0.06878  0.96253  0.61858     C
C      0.06878  0.96253   0.7324     C
C       0.0836   0.6356    0.041     C
C       0.0836   0.8644    0.209     C
O       0.0926   0.7082    0.996     O
O       0.0926   0.7918    0.254     O
O       0.1125   0.6178   0.1342     O
O       0.1125   0.8822   0.1158     O
O       0.1178   0.6125   0.3658     O
O       0.1178   0.8875   0.8842     O
H       0.1203   0.5655   0.6741     H
H       0.1203   0.9345   0.5759     H
C       0.1356   0.5836    0.459     C
C       0.1356   0.9164    0.791     C
H       0.1815     0.75    0.625     H
In       0.184    0.684     0.25    In
In       0.184    0.816      0.0    In
O       0.2082   0.5926    0.504     O
O       0.2082   0.9074    0.746     O
O       0.2396     0.75    0.625     O
H         0.25   0.6815    0.875     H
O         0.25   0.7396    0.875     O
O         0.25   0.7604    0.375     O
H         0.25   0.8185    0.375     H
O       0.2604     0.75    0.125     O
O       0.2918   0.5926    0.246     O
O       0.2918   0.9074    0.004     O
In       0.316    0.684      0.5    In
In       0.316    0.816     0.75    In
H       0.3185     0.75    0.125     H
C       0.3644   0.5836    0.291     C
C       0.3644   0.9164    0.959     C
H       0.3797   0.5655   0.0759     H
H       0.3797   0.9345   0.1741     H
O       0.3822   0.6125   0.3842     O
O       0.3822   0.8875   0.8658     O
O       0.3875   0.6178   0.6158     O
O       0.3875   0.8822   0.6342     O
O       0.4074   0.7082    0.754     O
O       0.4074   0.7918    0.496     O
C       0.4164   0.6356    0.709     C
C       0.4164   0.8644    0.541     C
C      0.43122  0.53747  0.11858     C
C      0.43122  0.53747   0.2324     C
C      0.43122  0.96253   0.0176     C
C      0.43122  0.96253  0.13142     C
H       0.4345   0.6203   0.9241     H
H       0.4345   0.8797   0.3259     H
C      0.46253  0.56878   0.7676     C
C      0.46253  0.56878  0.88142     C
C      0.46253  0.93122  0.36858     C
C      0.46253  0.93122   0.4824     C
C          0.5      0.0  0.18833     C
C          0.5      0.0  0.31167     C
C          0.5      0.0   0.5393     C
H          0.5      0.0   0.6246     H
H          0.5      0.0   0.8754     H
C          0.5      0.0   0.9607     C
C          0.5      0.5  0.06167     C
C          0.5      0.5   0.2893     C
H          0.5      0.5   0.3746     H
H          0.5      0.5   0.6254     H
C          0.5      0.5   0.7107     C
C          0.5      0.5  0.93833     C
C      0.53747  0.06878  0.36858     C
C      0.53747  0.06878   0.4824     C
C      0.53747  0.43122   0.7676     C
C      0.53747  0.43122  0.88142     C
H       0.5655   0.1203   0.3259     H
H       0.5655   0.3797   0.9241     H
C      0.56878  0.03747   0.0176     C
C      0.56878  0.03747  0.13142     C
C      0.56878  0.46253  0.11858     C
C      0.56878  0.46253   0.2324     C
C       0.5836   0.1356    0.541     C
C       0.5836   0.3644    0.709     C
O       0.5926   0.2082    0.496     O
O       0.5926   0.2918    0.754     O
O       0.6125   0.1178   0.6342     O
O       0.6125   0.3822   0.6158     O
O       0.6178   0.1125   0.8658     O
O       0.6178   0.3875   0.3842     O
H       0.6203   0.0655   0.1741     H
H       0.6203   0.4345   0.0759     H
C       0.6356   0.0836    0.959     C
C       0.6356   0.4164    0.291     C
H       0.6815     0.25    0.125     H
In       0.684    0.184     0.75    In
In       0.684    0.316      0.5    In
O       0.7082   0.0926    0.004     O
O       0.7082   0.4074    0.246     O
O       0.7396     0.25    0.125     O
H         0.75   0.1815    0.375     H
O         0.75   0.2396    0.375     O
O         0.75   0.2604    0.875     O
H         0.75   0.3185    0.875     H
O       0.7604     0.25    0.625     O
O       0.7918   0.0926    0.746     O
O       0.7918   0.4074    0.504     O
In       0.816    0.184      0.0    In
In       0.816    0.316     0.25    In
H       0.8185     0.25    0.625     H
C       0.8644   0.0836    0.791     C
C       0.8644   0.4164    0.459     C
H       0.8797   0.0655   0.5759     H
H       0.8797   0.4345   0.6741     H
O       0.8822   0.1125   0.8842     O
O       0.8822   0.3875   0.3658     O
O       0.8875   0.1178   0.1158     O
O       0.8875   0.3822   0.1342     O
O       0.9074   0.2082    0.254     O
O       0.9074   0.2918    0.996     O
C       0.9164   0.1356    0.209     C
C       0.9164   0.3644    0.041     C
C      0.93122  0.03747  0.61858     C
C      0.93122  0.03747   0.7324     C
C      0.93122  0.46253   0.5176     C
C      0.93122  0.46253  0.63142     C
H       0.9345   0.1203   0.4241     H
H       0.9345   0.3797   0.8259     H
C      0.96253  0.06878   0.2676     C
C      0.96253  0.06878  0.38142     C
C      0.96253  0.43122  0.86858     C
C      0.96253  0.43122   0.9824     C
