data_I
_chemical_name_common  '/home/zhangsd/repos/MofS-CGCNN/ML/data/TSD/clean_cifs/OWIJEL_clean'
_cell_length_a 15.48890
_cell_length_b 15.48890
_cell_length_c 12.30830
_cell_angle_alpha 90.00000
_cell_angle_beta  90.00000
_cell_angle_gamma 90.00000
_space_group_name_H-M_alt      'P 1'


loop_
_space_group_symop_operation_xyz
  'x, y, z' 

loop_
_atom_site_label
_atom_site_fract_x
_atom_site_fract_y
_atom_site_fract_z
_atom_site_type_symbol
H          0.0      0.0    0.125     H
C          0.0      0.0   0.2103     C
C          0.0      0.0  0.43958     C
C          0.0      0.0  0.56042     C
C          0.0      0.0   0.7897     C
H          0.0      0.0    0.875     H
C          0.0      0.5   0.0397     C
H          0.0      0.5    0.125     H
H          0.0      0.5    0.375     H
C          0.0      0.5   0.4603     C
C          0.0      0.5  0.68958     C
C          0.0      0.5  0.81042     C
C      0.04133   0.5672   0.8677     C
C      0.04133   0.5672   0.9824     C
C      0.04133   0.9328   0.2676     C
C      0.04133   0.9328   0.3823     C
C       0.0672  0.54133   0.5176     C
C       0.0672  0.54133   0.6323     C
C       0.0672  0.95867   0.6177     C
C       0.0672  0.95867   0.7324     C
H       0.0721   0.6172   0.8251     H
H       0.0721   0.8828   0.4249     H
C       0.0846   0.6358   0.0413     C
C       0.0846   0.8642   0.2087     C
O       0.0924   0.7066   0.9969     O
O       0.0924   0.7934   0.2531     O
O       0.1118   0.6203   0.1334     O
O       0.1118   0.8797   0.1166     O
H       0.1172   0.5721   0.6749     H
H       0.1172   0.9279   0.5751     H
O       0.1203   0.6118   0.3666     O
O       0.1203   0.8882   0.8834     O
C       0.1358   0.5846   0.4587     C
C       0.1358   0.9154   0.7913     C
H       0.1811     0.75    0.625     H
In      0.1842   0.6842     0.25    In
In      0.1842   0.8158      0.0    In
O       0.2066   0.5924   0.5031     O
O       0.2066   0.9076   0.7469     O
O       0.2392     0.75    0.625     O
H         0.25   0.6811    0.875     H
O         0.25   0.7392    0.875     O
O         0.25   0.7608    0.375     O
H         0.25   0.8189    0.375     H
O       0.2608     0.75    0.125     O
O       0.2934   0.5924   0.2469     O
O       0.2934   0.9076   0.0031     O
In      0.3158   0.6842      0.5    In
In      0.3158   0.8158     0.75    In
H       0.3189     0.75    0.125     H
C       0.3642   0.5846   0.2913     C
C       0.3642   0.9154   0.9587     C
O       0.3797   0.6118   0.3834     O
O       0.3797   0.8882   0.8666     O
H       0.3828   0.5721   0.0751     H
H       0.3828   0.9279   0.1749     H
O       0.3882   0.6203   0.6166     O
O       0.3882   0.8797   0.6334     O
O       0.4076   0.7066   0.7531     O
O       0.4076   0.7934   0.4969     O
C       0.4154   0.6358   0.7087     C
C       0.4154   0.8642   0.5413     C
H       0.4279   0.6172   0.9249     H
H       0.4279   0.8828   0.3251     H
C       0.4328  0.54133   0.1177     C
C       0.4328  0.54133   0.2324     C
C       0.4328  0.95867   0.0176     C
C       0.4328  0.95867   0.1323     C
C      0.45867   0.5672   0.7676     C
C      0.45867   0.5672   0.8823     C
C      0.45867   0.9328   0.3677     C
C      0.45867   0.9328   0.4824     C
C          0.5      0.0  0.18958     C
C          0.5      0.0  0.31042     C
C          0.5      0.0   0.5397     C
H          0.5      0.0    0.625     H
H          0.5      0.0    0.875     H
C          0.5      0.0   0.9603     C
C          0.5      0.5  0.06042     C
C          0.5      0.5   0.2897     C
H          0.5      0.5    0.375     H
H          0.5      0.5    0.625     H
C          0.5      0.5   0.7103     C
C          0.5      0.5  0.93958     C
C      0.54133   0.0672   0.3677     C
C      0.54133   0.0672   0.4824     C
C      0.54133   0.4328   0.7676     C
C      0.54133   0.4328   0.8823     C
C       0.5672  0.04133   0.0176     C
C       0.5672  0.04133   0.1323     C
C       0.5672  0.45867   0.1177     C
C       0.5672  0.45867   0.2324     C
H       0.5721   0.1172   0.3251     H
H       0.5721   0.3828   0.9249     H
C       0.5846   0.1358   0.5413     C
C       0.5846   0.3642   0.7087     C
O       0.5924   0.2066   0.4969     O
O       0.5924   0.2934   0.7531     O
O       0.6118   0.1203   0.6334     O
O       0.6118   0.3797   0.6166     O
H       0.6172   0.0721   0.1749     H
H       0.6172   0.4279   0.0751     H
O       0.6203   0.1118   0.8666     O
O       0.6203   0.3882   0.3834     O
C       0.6358   0.0846   0.9587     C
C       0.6358   0.4154   0.2913     C
H       0.6811     0.25    0.125     H
In      0.6842   0.1842     0.75    In
In      0.6842   0.3158      0.5    In
O       0.7066   0.0924   0.0031     O
O       0.7066   0.4076   0.2469     O
O       0.7392     0.25    0.125     O
H         0.75   0.1811    0.375     H
O         0.75   0.2392    0.375     O
O         0.75   0.2608    0.875     O
H         0.75   0.3189    0.875     H
O       0.7608     0.25    0.625     O
O       0.7934   0.0924   0.7469     O
O       0.7934   0.4076   0.5031     O
In      0.8158   0.1842      0.0    In
In      0.8158   0.3158     0.25    In
H       0.8189     0.25    0.625     H
C       0.8642   0.0846   0.7913     C
C       0.8642   0.4154   0.4587     C
O       0.8797   0.1118   0.8834     O
O       0.8797   0.3882   0.3666     O
H       0.8828   0.0721   0.5751     H
H       0.8828   0.4279   0.6749     H
O       0.8882   0.1203   0.1166     O
O       0.8882   0.3797   0.1334     O
O       0.9076   0.2066   0.2531     O
O       0.9076   0.2934   0.9969     O
C       0.9154   0.1358   0.2087     C
C       0.9154   0.3642   0.0413     C
H       0.9279   0.1172   0.4249     H
H       0.9279   0.3828   0.8251     H
C       0.9328  0.04133   0.6177     C
C       0.9328  0.04133   0.7324     C
C       0.9328  0.45867   0.5176     C
C       0.9328  0.45867   0.6323     C
C      0.95867   0.0672   0.2676     C
C      0.95867   0.0672   0.3823     C
C      0.95867   0.4328   0.8677     C
C      0.95867   0.4328   0.9824     C
