data_I
_chemical_name_common  '/home/zhangsd/repos/MofS-CGCNN/ML/data/TSD/clean_cifs/OXALAB_clean'
_cell_length_a 11.86800
_cell_length_b 16.26500
_cell_length_c 16.37900
_cell_angle_alpha 108.09900
_cell_angle_beta  102.85500
_cell_angle_gamma 101.21600
_space_group_name_H-M_alt      'P 1'


loop_
_space_group_symop_operation_xyz
  'x, y, z' 

loop_
_atom_site_label
_atom_site_fract_x
_atom_site_fract_y
_atom_site_fract_z
_atom_site_type_symbol
C       0.0039   0.2461   0.6832     C
O       0.0179    0.806   0.2759     O
O       0.0486    0.778   0.3998     O
H       0.0855   0.3746    0.625     H
C       0.0911   0.3373   0.7331     C
H       0.1179   0.3298   0.8559     H
C       0.1206   0.3937   0.6883     C
C       0.1393   0.3679   0.8246     C
O       0.1448   0.9879   0.5076     O
H       0.1453   0.1022   0.6547     H
H       0.1524   0.0692   0.2223     H
H       0.1741   0.1476   0.1293     H
Co     0.18269  0.89444  0.38414    Co
C       0.2031   0.4796   0.7373     C
H       0.2116   0.1912   0.8097     H
O       0.2128   0.9953   0.3306     O
C        0.219   0.4535    0.873     C
C       0.2198   0.1032    0.692     C
H       0.2254    0.518   0.7065     H
C       0.2309   0.0967   0.2225     C
H       0.2329   0.6522   0.2281     H
C        0.244   0.1444   0.1685     C
C       0.2489    0.997   0.5564     C
H       0.2507   0.4736   0.9367     H
C        0.252   0.5087   0.8293     C
C       0.2596   0.1568   0.7838     C
H       0.2678   0.5205   0.1394     H
O        0.279   0.8101   0.3312     O
C       0.2895   0.0516   0.6552     C
H       0.2902   0.2608   0.9661     H
C       0.3132    0.649   0.2339     C
C       0.3178    0.036   0.3375     C
O       0.3205  0.95766  0.52203     O
O       0.3277   0.5947   0.8704     O
C       0.3297   0.0879   0.2773     C
C       0.3335   0.5695   0.1822     C
H       0.3503   0.4246    0.054     H
H       0.3532   0.3894   0.1352     H
C       0.3564   0.1883   0.1695     C
O       0.3608   0.2367   0.1149     O
H       0.3685   0.3208   0.9254     H
C       0.3698   0.1589   0.8364     C
C       0.3722   0.2837   0.9633     C
H       0.3775   0.3694    0.743     H
C       0.3846   0.8055   0.3484     C
C       0.3987   0.0535   0.7093     C
H       0.3994   0.6661   0.9982     H
C       0.4036   0.4124    0.102     C
C       0.4071   0.7215   0.2923     C
H       0.4101   0.2354   0.6594     H
O       0.4133   0.0347   0.3899     O
C       0.4169   0.6204   0.9503     C
O       0.4186   0.2103  0.92652     O
H       0.4186   0.5675   0.9678     H
C       0.4381   0.1055   0.7999     C
C       0.4426   0.1309   0.2777     C
H       0.4466   0.0187   0.6837     H
C       0.4495   0.5639   0.1945     C
C       0.4575   0.3653   0.7492     C
C       0.4583    0.181   0.2242     C
C       0.4591   0.3399   0.0583     C
H       0.4633   0.7904   0.7748     H
H       0.4735   0.6795   0.8223     H
O       0.4747   0.8648   0.4105     O
C       0.4764    0.282   0.1152     C
C       0.4769   0.2853   0.6993     C
H       0.4823   0.7625   0.9103     H
O       0.4838   0.4881   0.1575     O
H       0.4882   0.8741    0.684     H
H       0.4885    0.895   0.1627     H
Co         0.5      0.0      0.5    Co
H       0.5115    0.105   0.8373     H
H       0.5118   0.1259    0.316     H
O       0.5162   0.5119   0.8425     O
H       0.5177   0.2375   0.0897     H
C       0.5231   0.7147   0.3007     C
C       0.5236    0.718   0.8848     C
O       0.5253   0.1352   0.5895     O
H       0.5265   0.3205   0.1777     H
H       0.5367   0.2096   0.2252     H
C       0.5409   0.6601   0.9417     C
C       0.5417    0.819   0.7758     C
C       0.5425   0.6347   0.2508     C
C       0.5505   0.4361   0.8055     C
H       0.5534   0.9813   0.3163     H
C       0.5574   0.8691   0.7223     C
C       0.5619   0.8945   0.2001     C
H       0.5814   0.4325   0.0322     H
O       0.5814   0.7897  0.07348     O
C       0.5831   0.3796   0.0497     C
O       0.5867   0.9653   0.6101     O
H       0.5899   0.7646   0.3406     H
C       0.5929   0.2785   0.7077     C
C       0.5964   0.5876    0.898     C
H       0.6006   0.3339   0.0018     H
C       0.6013   0.9465   0.2907     C
C       0.6154   0.1945   0.6516     C
H       0.6225   0.6306    0.257     H
C       0.6278   0.7163   0.0367     C
C       0.6302   0.8411   0.1636     C
H       0.6315   0.6792   0.0746     H
O       0.6392   0.7633   0.8851     O
C       0.6436   0.8117   0.8305     C
H       0.6468   0.6106   0.8648     H
H       0.6497   0.5754    0.946     H
C       0.6665   0.4305   0.8178     C
C       0.6703   0.9121   0.7227     C
O       0.6723   0.4053   0.1296     O
O       0.6795  0.04234  0.47797     O
C       0.6822    0.964   0.6625     C
C       0.6868    0.351   0.7661     C
H       0.7098   0.7392   0.0339     H
C       0.7105   0.9484   0.3448     C
O        0.721   0.1899   0.6688     O
H       0.7322   0.4795   0.8606     H
C       0.7404   0.8432   0.2162     C
C        0.748   0.4913   0.1707     C
H       0.7493   0.5264   0.0633     H
C       0.7511    0.003   0.4436     C
C        0.756   0.8556   0.8315     C
H       0.7671   0.3478   0.7719     H
C       0.7691   0.9033   0.7775     C
H       0.7746    0.482   0.2935     H
C       0.7802   0.8968    0.308     C
C        0.781   0.5465    0.127     C
O       0.7872   0.0047   0.6694     O
H       0.7884   0.8088   0.1903     H
C       0.7969   0.5204   0.2627     C
Co     0.81731  0.10556  0.61586    Co
H       0.8259   0.8524   0.8707     H
H       0.8476   0.9308   0.7777     H
H       0.8547   0.8978   0.3453     H
O       0.8552   0.0121   0.4924     O
C       0.8607   0.6321   0.1754     C
C       0.8794   0.6063   0.3117     C
H       0.8821   0.6702   0.1441     H
C       0.9089   0.6627   0.2669     C
H       0.9145   0.6254    0.375     H
O       0.9514    0.222   0.6002     O
O       0.9821    0.194   0.7241     O
C       0.9961   0.7539   0.3168     C
