data_I
_chemical_name_common  '/home/zhangsd/repos/MofS-CGCNN/ML/data/TSD/clean_cifs/OYERER_clean'
_cell_length_a 20.77200
_cell_length_b 20.77200
_cell_length_c 21.05300
_cell_angle_alpha 90.00000
_cell_angle_beta  90.00000
_cell_angle_gamma 120.00000
_space_group_name_H-M_alt      'P 1'


loop_
_space_group_symop_operation_xyz
  'x, y, z' 

loop_
_atom_site_label
_atom_site_fract_x
_atom_site_fract_y
_atom_site_fract_z
_atom_site_type_symbol
Cu         0.0      0.5      0.0    Cu
Cu         0.0      0.5      0.5    Cu
H       0.0617   0.6642   0.0342     H
H       0.0617   0.6642   0.4658     H
N       0.0777   0.6012   0.5271     N
N       0.0777   0.6012   0.9729     N
C       0.0917   0.6665   0.5007     C
C       0.0917   0.6665   0.9993     C
H       0.1112   0.5608   0.5964     H
H       0.1112   0.5608   0.9036     H
C       0.1186   0.6058   0.5781     C
C       0.1186   0.6058   0.9219     C
C       0.1466   0.7365   0.5205     C
C       0.1466   0.7365   0.9795     C
H       0.1574   0.7802   0.0023     H
H       0.1574   0.7802   0.4977     H
C       0.1716   0.6731   0.6061     C
C       0.1716   0.6731   0.8939     C
C       0.1852   0.7394   0.5759     C
C       0.1852   0.7394   0.9241     C
O       0.1968   0.6077   0.6836     O
O       0.1968   0.6077   0.8164     O
C       0.2135   0.6688   0.6616     C
C       0.2135   0.6688   0.8384     C
H       0.2139   0.4345   0.5932     H
H       0.2139   0.4345   0.9068     H
H       0.2198   0.3772   0.0023     H
H       0.2198   0.3772   0.4977     H
H       0.2206   0.7861   0.5932     H
H       0.2206   0.7861   0.9068     H
Cr     0.24024  0.57646     0.75    Cr
C       0.2606   0.4458   0.5759     C
C       0.2606   0.4458   0.9241     C
O       0.2622   0.7318   0.6819     O
O       0.2622   0.7318   0.8181     O
C       0.2635   0.4101   0.5205     C
C       0.2635   0.4101   0.9795     C
O       0.2682   0.5304   0.6819     O
O       0.2682   0.5304   0.8181     O
C       0.3269   0.4985   0.6061     C
C       0.3269   0.4985   0.8939     C
C       0.3312   0.5447   0.6616     C
C       0.3312   0.5447   0.8384     C
O      0.33333  0.66667     0.75     O
C       0.3335   0.4252   0.5007     C
C       0.3335   0.4252   0.9993     C
H       0.3358   0.3975   0.0342     H
H       0.3358   0.3975   0.4658     H
Cr     0.33622  0.75976     0.75    Cr
H       0.3772   0.1574   0.5023     H
H       0.3772   0.1574   0.9977     H
O       0.3923   0.5891   0.6836     O
O       0.3923   0.5891   0.8164     O
C       0.3942   0.5128   0.5781     C
C       0.3942   0.5128   0.9219     C
H       0.3975   0.0617   0.5342     H
H       0.3975   0.0617   0.9658     H
N       0.3988   0.4765   0.5271     N
N       0.3988   0.4765   0.9729     N
C       0.4101   0.1466   0.0205     C
C       0.4101   0.1466   0.4795     C
O       0.4109   0.8032   0.6836     O
O       0.4109   0.8032   0.8164     O
Cr     0.42354  0.66378     0.75    Cr
C       0.4252   0.0917   0.0007     C
C       0.4252   0.0917   0.4993     C
H       0.4345   0.2206   0.0932     H
H       0.4345   0.2206   0.4068     H
H       0.4392   0.5504   0.5964     H
H       0.4392   0.5504   0.9036     H
C       0.4458   0.1852   0.0759     C
C       0.4458   0.1852   0.4241     C
H       0.4496   0.8888   0.5964     H
H       0.4496   0.8888   0.9036     H
C       0.4553   0.7865   0.6616     C
C       0.4553   0.7865   0.8384     C
O       0.4696   0.7378   0.6819     O
O       0.4696   0.7378   0.8181     O
N       0.4765   0.0777   0.0271     N
N       0.4765   0.0777   0.4729     N
C       0.4872   0.8814   0.5781     C
C       0.4872   0.8814   0.9219     C
C       0.4985   0.1716   0.1061     C
C       0.4985   0.1716   0.3939     C
Cu         0.5      0.0      0.0    Cu
Cu         0.5      0.0      0.5    Cu
Cu         0.5      0.5      0.0    Cu
Cu         0.5      0.5      0.5    Cu
C       0.5015   0.8284   0.6061     C
C       0.5015   0.8284   0.8939     C
C       0.5128   0.1186   0.0781     C
C       0.5128   0.1186   0.4219     C
N       0.5235   0.9223   0.5271     N
N       0.5235   0.9223   0.9729     N
O       0.5304   0.2622   0.1819     O
O       0.5304   0.2622   0.3181     O
C       0.5447   0.2135   0.1616     C
C       0.5447   0.2135   0.3384     C
H       0.5504   0.1112   0.0964     H
H       0.5504   0.1112   0.4036     H
C       0.5542   0.8148   0.5759     C
C       0.5542   0.8148   0.9241     C
H       0.5608   0.4496   0.0964     H
H       0.5608   0.4496   0.4036     H
H       0.5655   0.7794   0.5932     H
H       0.5655   0.7794   0.9068     H
C       0.5748   0.9083   0.5007     C
C       0.5748   0.9083   0.9993     C
Cr     0.57646  0.33622     0.25    Cr
O       0.5891   0.1968   0.1836     O
O       0.5891   0.1968   0.3164     O
C       0.5899   0.8534   0.5205     C
C       0.5899   0.8534   0.9795     C
N       0.6012   0.5235   0.0271     N
N       0.6012   0.5235   0.4729     N
H       0.6025   0.9383   0.0342     H
H       0.6025   0.9383   0.4658     H
C       0.6058   0.4872   0.0781     C
C       0.6058   0.4872   0.4219     C
O       0.6077   0.4109   0.1836     O
O       0.6077   0.4109   0.3164     O
H       0.6228   0.8426   0.0023     H
H       0.6228   0.8426   0.4977     H
Cr     0.66378  0.24024     0.25    Cr
H       0.6642   0.6025   0.5342     H
H       0.6642   0.6025   0.9658     H
C       0.6665   0.5748   0.0007     C
C       0.6665   0.5748   0.4993     C
O      0.66667  0.33333     0.25     O
C       0.6688   0.4553   0.1616     C
C       0.6688   0.4553   0.3384     C
C       0.6731   0.5015   0.1061     C
C       0.6731   0.5015   0.3939     C
O       0.7318   0.4696   0.1819     O
O       0.7318   0.4696   0.3181     O
C       0.7365   0.5899   0.0205     C
C       0.7365   0.5899   0.4795     C
O       0.7378   0.2682   0.1819     O
O       0.7378   0.2682   0.3181     O
C       0.7394   0.5542   0.0759     C
C       0.7394   0.5542   0.4241     C
Cr     0.75976  0.42354     0.25    Cr
H       0.7794   0.2139   0.0932     H
H       0.7794   0.2139   0.4068     H
H       0.7802   0.6228   0.5023     H
H       0.7802   0.6228   0.9977     H
H       0.7861   0.5655   0.0932     H
H       0.7861   0.5655   0.4068     H
C       0.7865   0.3312   0.1616     C
C       0.7865   0.3312   0.3384     C
O       0.8032   0.3923   0.1836     O
O       0.8032   0.3923   0.3164     O
C       0.8148   0.2606   0.0759     C
C       0.8148   0.2606   0.4241     C
C       0.8284   0.3269   0.1061     C
C       0.8284   0.3269   0.3939     C
H       0.8426   0.2198   0.5023     H
H       0.8426   0.2198   0.9977     H
C       0.8534   0.2635   0.0205     C
C       0.8534   0.2635   0.4795     C
C       0.8814   0.3942   0.0781     C
C       0.8814   0.3942   0.4219     C
H       0.8888   0.4392   0.0964     H
H       0.8888   0.4392   0.4036     H
C       0.9083   0.3335   0.0007     C
C       0.9083   0.3335   0.4993     C
N       0.9223   0.3988   0.0271     N
N       0.9223   0.3988   0.4729     N
H       0.9383   0.3358   0.5342     H
H       0.9383   0.3358   0.9658     H
