data_I
_chemical_name_common  '/home/zhangsd/repos/MofS-CGCNN/ML/data/TSD/clean_cifs/OYEROB_clean'
_cell_length_a 20.60800
_cell_length_b 20.60800
_cell_length_c 22.35000
_cell_angle_alpha 90.00000
_cell_angle_beta  90.00000
_cell_angle_gamma 90.00000
_space_group_name_H-M_alt      'P 1'


loop_
_space_group_symop_operation_xyz
  'x, y, z' 

loop_
_atom_site_label
_atom_site_fract_x
_atom_site_fract_y
_atom_site_fract_z
_atom_site_type_symbol
Cr         0.0      0.5  0.05351    Cr
O          0.0      0.5   0.1385     O
Cr         0.0      0.5  0.55351    Cr
O          0.0      0.5   0.6385     O
C       0.0051   0.2621   0.3482     C
C        0.012   0.6871   0.3087     C
Cr     0.01945  0.57764   0.6808    Cr
C       0.0203   0.4119    0.252     C
H       0.0263   0.7688   0.3609     H
C       0.0346   0.3566   0.2923     C
O       0.0363   0.5879    0.047     O
O       0.0368   0.5874   0.2297     O
H         0.04    0.694   0.9897     H
O       0.0412   0.4137    0.546     O
O       0.0455   0.3704   0.6383     O
O       0.0481   0.4368   0.7427     O
H       0.0551   0.6835   0.2939     H
C        0.061   0.3731   0.5838     C
O       0.0632   0.4519   0.2427     O
C       0.0669   0.2584   0.3676     C
C       0.0771   0.7103     0.01     C
Cr     0.07764  0.51945   0.1808    Cr
H       0.0784   0.2245   0.3943     H
C       0.0796   0.6136    0.079     C
O       0.0863   0.4588    0.046     O
O       0.0874   0.5368   0.7297     O
O       0.0879   0.5363    0.547     O
C       0.0881   0.4797    0.752     C
O       0.0896   0.6042   0.6258     O
H       0.0911   0.7908   0.9589     H
C       0.0979   0.3492   0.3138     C
O       0.1042   0.5896   0.1258     O
C       0.1046   0.6772    0.059     C
C       0.1067    0.768   0.9929     C
C       0.1078    0.322   0.5627     C
H       0.1115   0.2702   0.6402     H
N       0.1134   0.3014   0.3503     N
C       0.1136   0.5796    0.579     C
H       0.1193   0.3596   0.4804     H
H       0.1207   0.3696    0.802     H
C       0.1268   0.2725   0.6002     C
C       0.1269    0.439   0.0838     C
O       0.1296   0.4545   0.1383     O
H       0.1304   0.3793    0.302     H
C       0.1329    0.325   0.5056     C
H       0.1404   0.3807   0.9804     H
C       0.1434   0.4654   0.7923     C
C       0.1508   0.4021   0.8138     C
C       0.1571   0.7047   0.0889     C
C       0.1573   0.7916   0.0242     C
H       0.1676   0.1748   0.9873     H
C       0.1693   0.2259   0.5774     C
H       0.1739   0.6832   0.1232     H
H       0.1748   0.8324   0.0127     H
C        0.175   0.3671   0.0056     C
N       0.1763   0.2813   0.4834     N
C       0.1772   0.6046    0.559     C
C        0.178   0.3922   0.0627     C
H       0.1815   0.1894   0.6008     H
H       0.1832   0.6739   0.6232     H
H       0.1835   0.5551   0.7939     H
N       0.1847   0.7601   0.0713     N
C       0.1871    0.512   0.8087     C
H       0.1894   0.8185   0.3992     H
C       0.1937   0.2338   0.5197     C
H        0.194     0.54   0.4897     H
N       0.1986   0.3866   0.8503     N
H       0.2032   0.7753   0.4943     H
C       0.2047   0.6571   0.5889     C
C       0.2084   0.1573   0.9758     C
Cd     0.20871  0.28114  0.88563    Cd
H       0.2092   0.0911   0.0411     H
C       0.2103   0.5771     0.51     C
N       0.2187   0.3237   0.9834     N
Cd     0.21886  0.29129  0.38563    Cd
H       0.2245   0.9216   0.6057     H
H       0.2247   0.2032   0.5057     H
C       0.2259   0.8307   0.4226     C
C       0.2275   0.3732   0.1002     C
H       0.2298   0.3885   0.1402     H
H       0.2312   0.0263   0.6391     H
C        0.232   0.1067   0.0071     C
C       0.2338   0.8063   0.4803     C
C       0.2379   0.4949   0.8482     C
N       0.2399   0.1847   0.9287     N
C       0.2416   0.4331   0.8676     C
C       0.2584   0.9331   0.6324     C
N       0.2601   0.6847   0.5713     N
C       0.2621   0.9949   0.6518     C
C       0.2662   0.3063   0.0197     C
C        0.268   0.6067   0.4929     C
H       0.2688   0.5263   0.8609     H
H       0.2702   0.8885   0.3598     H
C       0.2725   0.8732   0.3998     C
C       0.2741   0.3307   0.0774     C
H       0.2753   0.7032   0.9943     H
H       0.2755   0.4216   0.8943     H
Cd     0.28114  0.79129  0.11437    Cd
N       0.2813   0.8237   0.5166     N
C       0.2897   0.0771     0.99     C
H       0.2908   0.5911   0.4589     H
Cd     0.29129  0.78114  0.61437    Cd
C       0.2916   0.6573   0.5242     C
C       0.2953   0.1571   0.9111     C
H       0.2968   0.2753   0.0057     H
N       0.3014   0.8866   0.6497     N
H        0.306     0.04   0.0103     H
C       0.3063   0.7338   0.9803     C
H       0.3106   0.3185   0.1008     H
C       0.3129    0.012   0.6913     C
N       0.3153   0.2601   0.4287     N
H       0.3165   0.0551   0.7061     H
H       0.3168   0.1739   0.8768     H
H       0.3185   0.6894   0.8992     H
C        0.322   0.8922   0.4373     C
C       0.3228   0.1046    0.941     C
N       0.3237   0.7813   0.0166     N
C        0.325   0.8671   0.4944     C
H       0.3252   0.3324   0.4873     H
H       0.3261   0.1832   0.3768     H
C       0.3307   0.7259   0.9226     C
H       0.3324   0.6748   0.5127     H
C       0.3427   0.2916   0.4758     C
C       0.3429   0.2047   0.4111     C
C       0.3492   0.9021   0.6862     C
C       0.3566   0.9654   0.7077     C
H       0.3596   0.8807   0.5196     H
C       0.3671    0.825   0.9944     C
H       0.3696   0.8793    0.198     H
O       0.3704   0.9545   0.3617     O
C       0.3731    0.939   0.4162     C
C       0.3732   0.7725   0.8998     C
H       0.3793   0.8696    0.698     H
H       0.3807   0.8596   0.0196     H
C       0.3864   0.0796    0.921     C
N       0.3866   0.8014   0.1497     N
H       0.3885   0.7702   0.8598     H
C       0.3922    0.822   0.9373     C
C       0.3933    0.268   0.5071     C
C       0.3954   0.1772    0.441     C
O       0.3958   0.0896   0.3742     O
C       0.4021   0.8492   0.1862     C
H       0.4089   0.2908   0.5411     H
O       0.4104   0.1042   0.8742     O
C       0.4119   0.9797    0.748     C
O       0.4121   0.0363    0.953     O
O       0.4126   0.0368   0.7703     O
O       0.4137   0.9588    0.454     O
C       0.4204   0.1136    0.421     C
H       0.4216   0.7245   0.1057     H
Cr     0.42236  0.01945   0.3192    Cr
C       0.4229   0.2103     0.49     C
C       0.4331   0.7584   0.1324     C
O       0.4368   0.9519   0.2573     O
C        0.439   0.8731   0.9162     C
H       0.4449   0.1835   0.2061     H
O       0.4519   0.9368   0.7573     O
O       0.4545   0.8704   0.8617     O
O       0.4588   0.9137    0.954     O
H         0.46    0.194   0.5103     H
O       0.4632   0.0874   0.2703     O
O       0.4637   0.0879    0.453     O
C       0.4654   0.8566   0.2077     C
H       0.4737   0.2688   0.1391     H
C       0.4797   0.9119    0.248     C
Cr     0.48055  0.07764   0.8192    Cr
C        0.488   0.1871   0.1913     C
C       0.4949   0.7621   0.1518     C
O          0.5      0.0   0.3615     O
Cr         0.5      0.0  0.44649    Cr
O          0.5      0.0   0.8615     O
Cr         0.5      0.0  0.94649    Cr
C       0.5051   0.2379   0.1518     C
C        0.512   0.8129   0.1913     C
Cr     0.51945  0.92236   0.8192    Cr
C       0.5203   0.0881    0.248     C
H       0.5263   0.7312   0.1391     H
C       0.5346   0.1434   0.2077     C
O       0.5363   0.9121    0.453     O
O       0.5368   0.9126   0.2703     O
H         0.54    0.806   0.5103     H
O       0.5412   0.0863    0.954     O
O       0.5455   0.1296   0.8617     O
O       0.5481   0.0632   0.7573     O
H       0.5551   0.8165   0.2061     H
C        0.561   0.1269   0.9162     C
O       0.5632   0.0481   0.2573     O
C       0.5669   0.2416   0.1324     C
C       0.5771   0.7897     0.49     C
Cr     0.57764  0.98055   0.3192    Cr
H       0.5784   0.2755   0.1057     H
C       0.5796   0.8864    0.421     C
O       0.5863   0.0412    0.454     O
O       0.5874   0.9632   0.7703     O
O       0.5879   0.9637    0.953     O
C       0.5881   0.0203    0.748     C
O       0.5896   0.8958   0.8742     O
H       0.5911   0.7092   0.5411     H
C       0.5979   0.1508   0.1862     C
O       0.6042   0.9104   0.3742     O
C       0.6046   0.8228    0.441     C
C       0.6067    0.732   0.5071     C
C       0.6078    0.178   0.9373     C
H       0.6115   0.2298   0.8598     H
N       0.6134   0.1986   0.1497     N
C       0.6136   0.9204    0.921     C
H       0.6193   0.1404   0.0196     H
H       0.6207   0.1304    0.698     H
C       0.6268   0.2275   0.8998     C
C       0.6269    0.061   0.4162     C
O       0.6296   0.0455   0.3617     O
H       0.6304   0.1207    0.198     H
C       0.6329    0.175   0.9944     C
H       0.6404   0.1193   0.5196     H
C       0.6434   0.0346   0.7077     C
C       0.6508   0.0979   0.6862     C
C       0.6571   0.7953   0.4111     C
C       0.6573   0.7084   0.4758     C
H       0.6676   0.3252   0.5127     H
C       0.6693   0.2741   0.9226     C
H       0.6739   0.8168   0.3768     H
H       0.6748   0.6676   0.4873     H
C        0.675   0.1329   0.4944     C
N       0.6763   0.2187   0.0166     N
C       0.6772   0.8954    0.941     C
C        0.678   0.1078   0.4373     C
H       0.6815   0.3106   0.8992     H
H       0.6832   0.8261   0.8768     H
H       0.6835   0.9449   0.7061     H
N       0.6847   0.7399   0.4287     N
C       0.6871    0.988   0.6913     C
H       0.6894   0.6815   0.1008     H
C       0.6937   0.2662   0.9803     C
H        0.694     0.96   0.0103     H
N       0.6986   0.1134   0.6497     N
H       0.7032   0.7247   0.0057     H
C       0.7047   0.8429   0.9111     C
C       0.7084   0.3427   0.5242     C
Cd     0.70871  0.21886  0.61437    Cd
H       0.7092   0.4089   0.4589     H
C       0.7103   0.9229     0.99     C
N       0.7187   0.1763   0.5166     N
Cd     0.71886  0.20871  0.11437    Cd
H       0.7245   0.5784   0.8943     H
H       0.7247   0.2968   0.9943     H
C       0.7259   0.6693   0.0774     C
C       0.7275   0.1268   0.3998     C
H       0.7298   0.1115   0.3598     H
H       0.7312   0.4737   0.8609     H
C        0.732   0.3933   0.4929     C
C       0.7338   0.6937   0.0197     C
C       0.7379   0.0051   0.6518     C
N       0.7399   0.3153   0.5713     N
C       0.7416   0.0669   0.6324     C
C       0.7584   0.5669   0.8676     C
N       0.7601   0.8153   0.9287     N
C       0.7621   0.5051   0.8482     C
C       0.7662   0.1937   0.4803     C
C        0.768   0.8933   0.0071     C
H       0.7688   0.9737   0.6391     H
H       0.7702   0.6115   0.1402     H
C       0.7725   0.6268   0.1002     C
C       0.7741   0.1693   0.4226     C
H       0.7753   0.7968   0.5057     H
H       0.7755   0.0784   0.6057     H
Cd     0.78114  0.70871  0.38563    Cd
N       0.7813   0.6763   0.9834     N
C       0.7897   0.4229     0.51     C
H       0.7908   0.9089   0.0411     H
Cd     0.79129  0.71886  0.88563    Cd
C       0.7916   0.8427   0.9758     C
C       0.7953   0.3429   0.5889     C
H       0.7968   0.2247   0.4943     H
N       0.8014   0.6134   0.8503     N
H        0.806     0.46   0.4897     H
C       0.8063   0.7662   0.5197     C
H       0.8106   0.1815   0.3992     H
C       0.8129    0.488   0.8087     C
N       0.8153   0.2399   0.0713     N
H       0.8165   0.4449   0.7939     H
H       0.8168   0.3261   0.6232     H
H       0.8185   0.8106   0.6008     H
C        0.822   0.6078   0.0627     C
C       0.8228   0.3954    0.559     C
N       0.8237   0.7187   0.4834     N
C        0.825   0.6329   0.0056     C
H       0.8252   0.1676   0.0127     H
H       0.8261   0.3168   0.1232     H
C       0.8307   0.7741   0.5774     C
H       0.8324   0.8252   0.9873     H
C       0.8427   0.2084   0.0242     C
C       0.8429   0.2953   0.0889     C
C       0.8492   0.5979   0.8138     C
C       0.8566   0.5346   0.7923     C
H       0.8596   0.6193   0.9804     H
C       0.8671    0.675   0.5056     C
H       0.8696   0.6207    0.302     H
O       0.8704   0.5455   0.1383     O
C       0.8731    0.561   0.0838     C
C       0.8732   0.7275   0.6002     C
H       0.8793   0.6304    0.802     H
H       0.8807   0.6404   0.4804     H
C       0.8864   0.4204    0.579     C
N       0.8866   0.6986   0.3503     N
H       0.8885   0.7298   0.6402     H
C       0.8922    0.678   0.5627     C
C       0.8933    0.232   0.9929     C
C       0.8954   0.3228    0.059     C
O       0.8958   0.4104   0.1258     O
C       0.9021   0.6508   0.3138     C
H       0.9089   0.2092   0.9589     H
O       0.9104   0.3958   0.6258     O
C       0.9119   0.5203    0.752     C
O       0.9121   0.4637    0.547     O
O       0.9126   0.4632   0.7297     O
O       0.9137   0.5412    0.046     O
C       0.9204   0.3864    0.079     C
H       0.9216   0.7755   0.3943     H
Cr     0.92236  0.48055   0.1808    Cr
C       0.9229   0.2897     0.01     C
C       0.9331   0.7416   0.3676     C
O       0.9368   0.5481   0.2427     O
C        0.939   0.6269   0.5838     C
H       0.9449   0.3165   0.2939     H
O       0.9519   0.5632   0.7427     O
O       0.9545   0.6296   0.6383     O
O       0.9588   0.5863    0.546     O
H         0.96    0.306   0.9897     H
O       0.9632   0.4126   0.2297     O
O       0.9637   0.4121    0.047     O
C       0.9654   0.6434   0.2923     C
H       0.9737   0.2312   0.3609     H
C       0.9797   0.5881    0.252     C
Cr     0.98055  0.42236   0.6808    Cr
C        0.988   0.3129   0.3087     C
C       0.9949   0.7379   0.3482     C
