data_I
_chemical_name_common  '/home/zhangsd/repos/MofS-CGCNN/ML/data/TSD/clean_cifs/OYIVEY_clean'
_cell_length_a 13.46400
_cell_length_b 19.71700
_cell_length_c 29.98500
_cell_angle_alpha 90.00000
_cell_angle_beta  90.00000
_cell_angle_gamma 90.00000
_space_group_name_H-M_alt      'P 1'


loop_
_space_group_symop_operation_xyz
  'x, y, z' 

loop_
_atom_site_label
_atom_site_fract_x
_atom_site_fract_y
_atom_site_fract_z
_atom_site_type_symbol
Cu         0.0  0.97202      0.0    Cu
C       0.0033   0.7728   0.2401     C
H       0.0066   0.2333   0.7043     H
C       0.0071   0.4631   0.4142     C
C       0.0095   0.1552    0.748     C
H       0.0156   0.6862   0.2781     H
C       0.0192   0.0626   0.8038     C
O       0.0259   0.4177   0.6032     O
O       0.0262   0.5252   0.6016     O
Cu     0.02667   0.9699  0.54216    Cu
C       0.0272   0.7115   0.7397     C
C       0.0317   0.8752   0.8127     C
C       0.0423   0.2145   0.7278     C
H       0.0482   0.1342    0.262     H
O       0.0533   0.8937   0.2031     O
C       0.0539   0.8084   0.7856     C
O       0.0573   0.0379   0.2131     O
C        0.063   0.1272   0.7831     C
O       0.0649   0.8973   0.4537     O
O       0.0651   0.8958   0.8386     O
H       0.0674   0.7884   0.2454     H
Cu     0.06885  0.96836  0.88082    Cu
N       0.0708   0.0364   0.9689     N
H       0.0771   0.5708   0.4639     H
C       0.0801   0.4702  0.45077     C
N       0.0819   0.8926   0.9659     N
O       0.0847   0.0389   0.4503     O
N       0.0883   0.9761   0.0993     N
O       0.0925   0.0302   0.8328     O
N       0.0969   0.0995   0.9887     N
N       0.0987   0.5969   0.6926     N
N       0.1022    0.896   0.9267     N
C       0.1043   0.5298   0.4731     C
H       0.1047   0.3691   0.4496     H
N        0.107   0.0362   0.9245     N
O       0.1106   0.8961   0.5233     O
N       0.1135   0.3454   0.6958     N
Cu     0.11557  0.46943  0.64195    Cu
C       0.1188    0.064   0.4832     C
C       0.1209   0.4089   0.4645     C
N       0.1222   0.9749  0.05724     N
N       0.1232   0.8433   0.9872     N
C       0.1236   0.6911   0.7476     C
C       0.1286   0.2459   0.7427     C
O       0.1305   0.0354   0.5247     O
H       0.1311   0.1449   0.4115     H
C       0.1312   0.8798    0.486     C
C        0.148   0.7843   0.7948     C
C       0.1491   0.1382   0.9564     C
C       0.1493   0.1586    0.798     C
Cu     0.15019  0.96895  0.19931    Cu
C       0.1536   0.3147    0.727     C
N       0.1543   0.5423   0.6841     N
N       0.1554   0.0991   0.9167     N
N       0.1597   0.8418   0.9165     N
N       0.1617   0.9675    0.127     N
H       0.1636    0.213   0.0291     H
N       0.1665   0.3981   0.6813     N
C       0.1682   0.8125   0.9535     C
C       0.1693    0.528   0.5091     C
C       0.1697   0.1633   0.4342     C
C       0.1711   0.6326   0.7201     C
C       0.1745   0.1312   0.4754     C
H       0.1766   0.7367   0.0248     H
H       0.1769   0.8158   0.4098     H
C       0.1816    0.724   0.7772     C
C       0.1821   0.2179   0.7778     C
H        0.185   0.1398   0.8216     H
H       0.1855   0.5679    0.524     H
C       0.1859   0.4071   0.5005     C
C       0.1889   0.2053   0.9628     C
H       0.1896   0.8094   0.8133     H
C       0.1956   0.2336   0.0052     C
C       0.2022   0.8234    0.476     C
C       0.2089   0.7952   0.4337     C
C       0.2101   0.4667  0.52278     C
H       0.2131   0.3661   0.5097     H
C       0.2152   0.7183   0.0021     C
C       0.2182    0.967   0.0599     C
H       0.2192   0.2443   0.3993     H
C         0.22   0.7504   0.9608     C
C       0.2224   0.2228   0.4269     C
C       0.2321   0.1588   0.5094     C
H       0.2322   0.2173   0.8987     H
H       0.2353   0.1373   0.5369     H
C       0.2366   0.2361   0.9271     C
N       0.2393   0.3977   0.7104     N
H       0.2398   0.2389   0.7878     H
N       0.2418    0.348    0.737     N
H       0.2429   0.7064   0.7855     H
N        0.244   0.5445   0.7039     N
H       0.2455   0.8115   0.5402     H
N       0.2475    0.978    0.103     N
N       0.2479   0.6025   0.7285     N
C         0.25   0.2926   0.0118     C
C         0.25   0.7926   0.5118     C
N       0.2521   0.1025   0.2285     N
N       0.2525    0.478    0.603     N
H       0.2545   0.3115   0.0402     H
N        0.256   0.0445   0.2039     N
H       0.2571   0.2064   0.2855     H
N       0.2582    0.848    0.237     N
H       0.2602   0.7389   0.2878     H
N       0.2607   0.8977   0.2104     N
C       0.2634   0.7361   0.4271     C
H       0.2647   0.6373   0.0369     H
H       0.2678   0.7173   0.3987     H
C       0.2679   0.6588   0.0094     C
C       0.2776   0.7228   0.9269     C
C         0.28   0.2504   0.4608     C
H       0.2808   0.7443   0.8993     H
C       0.2818    0.467   0.5599     C
C       0.2848   0.2183   0.5021     C
H       0.2869   0.8661   0.0097     H
C       0.2899   0.9667  0.02278     C
C       0.2911   0.2952   0.9337     C
C       0.2978   0.3234    0.976     C
C       0.3044   0.7336   0.5052     C
H       0.3104   0.3094   0.3133     H
C       0.3111   0.7053   0.4628     C
C       0.3141   0.9071   0.0005     C
H       0.3145   0.0679    0.024     H
H        0.315   0.6398   0.3216     H
C       0.3179   0.7179   0.2778     C
C       0.3184    0.224   0.2772     C
H       0.3231   0.3158   0.9098     H
H       0.3234   0.2367   0.5248     H
C       0.3255   0.6312   0.9754     C
C       0.3289   0.1326   0.2201     C
C       0.3303   0.6633   0.9342     C
C       0.3307    0.028   0.0091     C
C       0.3318   0.3125   0.4535     C
N       0.3335   0.8981   0.1813     N
H       0.3364    0.713   0.5291     H
N       0.3383   0.4675    0.627     N
N       0.3403   0.3418   0.4165     N
N       0.3446   0.5991   0.4167     N
N       0.3457   0.0423   0.1841     N
C       0.3464   0.8147    0.227     C
Cu     0.34981  0.46895  0.69931    Cu
C       0.3507   0.6586    0.298     C
C       0.3509   0.6382   0.4564     C
C        0.352   0.2843   0.2948     C
C       0.3688   0.3798    0.986     C
H       0.3689   0.6449   0.9115     H
O       0.3695   0.5354   0.0247     O
C       0.3714   0.7459   0.2427     C
C       0.3764   0.1911   0.2476     C
N       0.3768   0.3433   0.4872     N
N       0.3778   0.4749  0.55724     N
C       0.3791   0.9089   0.9645     C
C       0.3812    0.564   0.9832     C
Cu     0.38443  0.96943  0.14195    Cu
N       0.3865   0.8454   0.1958     N
O       0.3894   0.3961   0.0233     O
N        0.393   0.5362   0.4245     N
H       0.3953   0.8691   0.9496     H
C       0.3957   0.0298   0.9731     C
N       0.3978    0.396   0.4267     N
N       0.4013   0.0969   0.1926     N
N       0.4031   0.5995   0.4887     N
O       0.4075   0.5302   0.3328     O
N       0.4117   0.4761   0.5993     N
O       0.4153   0.5389   0.9503     O
N       0.4181   0.3926   0.4659     N
C       0.4199   0.9702  0.95077     C
H       0.4229   0.0708   0.9639     H
N       0.4292   0.5364   0.4689     N
Cu     0.43115  0.46836  0.38082    Cu
H       0.4326   0.2884   0.7454     H
O       0.4349   0.3958   0.3386     O
O       0.4351   0.3973   0.9537     O
C        0.437   0.6272   0.2831     C
O       0.4427   0.5379   0.7131     O
C       0.4461   0.3084   0.2856     C
O       0.4467   0.3937   0.7031     O
H       0.4518   0.6342    0.762     H
C       0.4577   0.7145   0.2278     C
C       0.4683   0.3752   0.3127     C
C       0.4728   0.2115   0.2397     C
Cu     0.47333   0.4699  0.04216    Cu
O       0.4738   0.0252   0.1016     O
O       0.4741   0.9177   0.1032     O
C       0.4808   0.5626   0.3038     C
H       0.4844   0.1862   0.7781     H
C       0.4905   0.6552    0.248     C
C       0.4929   0.9631   0.9142     C
H       0.4934   0.7333   0.2043     H
C       0.4967   0.2728   0.7401     C
Cu         0.5  0.47202      0.5    Cu
C       0.5033   0.2728   0.2599     C
H       0.5066   0.7333   0.7957     H
C       0.5071   0.9631   0.0858     C
C       0.5095   0.6552    0.752     C
H       0.5156   0.1862   0.2219     H
C       0.5192   0.5626   0.6962     C
O       0.5259   0.9177   0.8968     O
O       0.5262   0.0252   0.8984     O
Cu     0.52667   0.4699  0.95784    Cu
C       0.5272   0.2115   0.7603     C
C       0.5317   0.3752   0.6873     C
C       0.5423   0.7145   0.7722     C
H       0.5482   0.6342    0.238     H
O       0.5533   0.3937   0.2969     O
C       0.5539   0.3084   0.7144     C
O       0.5573   0.5379   0.2869     O
C        0.563   0.6272   0.7169     C
O       0.5649   0.3973   0.0463     O
O       0.5651   0.3958   0.6614     O
H       0.5674   0.2884   0.2546     H
Cu     0.56885  0.46836  0.61918    Cu
N       0.5708   0.5364   0.5311     N
H       0.5771   0.0708   0.0361     H
C       0.5801   0.9702  0.04923     C
N       0.5819   0.3926   0.5341     N
O       0.5847   0.5389   0.0497     O
N       0.5883   0.4761   0.4007     N
O       0.5925   0.5302   0.6672     O
N       0.5969   0.5995   0.5113     N
N       0.5987   0.0969   0.8074     N
N       0.6022    0.396   0.5733     N
C       0.6043   0.0298   0.0269     C
H       0.6047   0.8691   0.0504     H
N        0.607   0.5362   0.5755     N
O       0.6106   0.3961   0.9767     O
N       0.6135   0.8454   0.8042     N
Cu     0.61557  0.96943  0.85805    Cu
C       0.6188    0.564   0.0168     C
C       0.6209   0.9089   0.0355     C
N       0.6222   0.4749  0.44276     N
N       0.6232   0.3433   0.5128     N
C       0.6236   0.1911   0.7524     C
C       0.6286   0.7459   0.7573     C
O       0.6305   0.5354   0.9753     O
H       0.6311   0.6449   0.0885     H
C       0.6312   0.3798    0.014     C
C        0.648   0.2843   0.7052     C
C       0.6491   0.6382   0.5436     C
C       0.6493   0.6586    0.702     C
Cu     0.65019  0.46895  0.30069    Cu
C       0.6536   0.8147    0.773     C
N       0.6543   0.0423   0.8159     N
N       0.6554   0.5991   0.5833     N
N       0.6597   0.3418   0.5835     N
N       0.6617   0.4675    0.373     N
H       0.6636    0.713   0.4709     H
N       0.6665   0.8981   0.8187     N
C       0.6682   0.3125   0.5465     C
C       0.6693    0.028   0.9909     C
C       0.6697   0.6633   0.0658     C
C       0.6711   0.1326   0.7799     C
C       0.6745   0.6312   0.0246     C
H       0.6766   0.2367   0.4752     H
H       0.6769   0.3158   0.0902     H
C       0.6816    0.224   0.7228     C
C       0.6821   0.7179   0.7222     C
H        0.685   0.6398   0.6784     H
H       0.6855   0.0679    0.976     H
C       0.6859   0.9071   0.9995     C
C       0.6889   0.7053   0.5372     C
H       0.6896   0.3094   0.6867     H
C       0.6956   0.7336   0.4948     C
C       0.7022   0.3234    0.024     C
C       0.7089   0.2952   0.0663     C
C       0.7101   0.9667  0.97722     C
H       0.7131   0.8661   0.9903     H
C       0.7152   0.2183   0.4979     C
C       0.7182    0.467   0.4401     C
H       0.7192   0.7443   0.1007     H
C         0.72   0.2504   0.5392     C
C       0.7224   0.7228   0.0731     C
C       0.7321   0.6588   0.9906     C
H       0.7322   0.7173   0.6013     H
H       0.7353   0.6373   0.9631     H
C       0.7366   0.7361   0.5729     C
N       0.7393   0.8977   0.7896     N
H       0.7398   0.7389   0.7122     H
N       0.7418    0.848    0.763     N
H       0.7429   0.2064   0.7145     H
N        0.744   0.0445   0.7961     N
H       0.7455   0.3115   0.9598     H
N       0.7475    0.478    0.397     N
N       0.7479   0.1025   0.7715     N
C         0.75   0.2926   0.9882     C
C         0.75   0.7926   0.4882     C
N       0.7521   0.6025   0.2715     N
N       0.7525    0.978    0.897     N
H       0.7545   0.8115   0.4598     H
N        0.756   0.5445   0.2961     N
H       0.7571   0.7064   0.2145     H
N       0.7582    0.348    0.263     N
H       0.7602   0.2389   0.2122     H
N       0.7607   0.3977   0.2896     N
C       0.7634   0.2361   0.0729     C
H       0.7647   0.1373   0.4631     H
H       0.7678   0.2173   0.1013     H
C       0.7679   0.1588   0.4906     C
C       0.7776   0.2228   0.5731     C
C         0.78   0.7504   0.0392     C
H       0.7808   0.2443   0.6007     H
C       0.7818    0.967   0.9401     C
C       0.7848   0.7183   0.9979     C
H       0.7869   0.3661   0.4903     H
C       0.7899   0.4667  0.47722     C
C       0.7911   0.7952   0.5663     C
C       0.7978   0.8234    0.524     C
C       0.8044   0.2336   0.9948     C
H       0.8104   0.8094   0.1867     H
C       0.8111   0.2053   0.0372     C
C       0.8141   0.4071   0.4995     C
H       0.8145   0.5679    0.476     H
H        0.815   0.1398   0.1784     H
C       0.8179   0.2179   0.2222     C
C       0.8184    0.724   0.2228     C
H       0.8231   0.8158   0.5902     H
H       0.8234   0.7367   0.9752     H
C       0.8255   0.1312   0.5246     C
C       0.8289   0.6326   0.2799     C
C       0.8303   0.1633   0.5658     C
C       0.8307    0.528   0.4909     C
C       0.8318   0.8125   0.0465     C
N       0.8335   0.3981   0.3187     N
H       0.8364    0.213   0.9709     H
N       0.8383   0.9675    0.873     N
N       0.8403   0.8418   0.0835     N
N       0.8446   0.0991   0.0833     N
N       0.8457   0.5423   0.3159     N
C       0.8464   0.3147    0.273     C
Cu     0.84981  0.96895  0.80069    Cu
C       0.8507   0.1586    0.202     C
C       0.8509   0.1382   0.0436     C
C        0.852   0.7843   0.2052     C
C       0.8688   0.8798    0.514     C
H       0.8689   0.1449   0.5885     H
O       0.8695   0.0354   0.4753     O
C       0.8714   0.2459   0.2573     C
C       0.8764   0.6911   0.2524     C
N       0.8768   0.8433   0.0128     N
N       0.8778   0.9749  0.94276     N
C       0.8791   0.4089   0.5355     C
C       0.8812    0.064   0.5168     C
Cu     0.88443  0.46943  0.35805    Cu
N       0.8865   0.3454   0.3042     N
O       0.8894   0.8961   0.4767     O
N        0.893   0.0362   0.0755     N
H       0.8953   0.3691   0.5504     H
C       0.8957   0.5298   0.5269     C
N       0.8978    0.896   0.0733     N
N       0.9013   0.5969   0.3074     N
N       0.9031   0.0995   0.0113     N
O       0.9075   0.0302   0.1672     O
N       0.9117   0.9761   0.9007     N
O       0.9153   0.0389   0.5497     O
N       0.9181   0.8926   0.0341     N
C       0.9199   0.4702  0.54923     C
H       0.9229   0.5708   0.5361     H
N       0.9292   0.0364   0.0311     N
Cu     0.93115  0.96836  0.11918    Cu
H       0.9326   0.7884   0.7546     H
O       0.9349   0.8958   0.1614     O
O       0.9351   0.8973   0.5463     O
C        0.937   0.1272   0.2169     C
O       0.9427   0.0379   0.7869     O
C       0.9461   0.8084   0.2144     C
O       0.9467   0.8937   0.7969     O
H       0.9518   0.1342    0.738     H
C       0.9577   0.2145   0.2722     C
C       0.9683   0.8752   0.1873     C
C       0.9728   0.7115   0.2603     C
Cu     0.97333   0.9699  0.45784    Cu
O       0.9738   0.5252   0.3984     O
O       0.9741   0.4177   0.3968     O
C       0.9808   0.0626   0.1962     C
H       0.9844   0.6862   0.7219     H
C       0.9905   0.1552    0.252     C
C       0.9929   0.4631   0.5858     C
H       0.9934   0.2333   0.2957     H
C       0.9967   0.7728   0.7599     C
