data_I
_chemical_name_common  '/home/zhangsd/repos/MofS-CGCNN/ML/data/TSD/clean_cifs/OZUMAZ01_clean'
_cell_length_a 25.87610
_cell_length_b 25.87610
_cell_length_c  6.26260
_cell_angle_alpha 90.00000
_cell_angle_beta  90.00000
_cell_angle_gamma 120.00000
_space_group_name_H-M_alt      'P 1'


loop_
_space_group_symop_operation_xyz
  'x, y, z' 

loop_
_atom_site_label
_atom_site_fract_x
_atom_site_fract_y
_atom_site_fract_z
_atom_site_type_symbol
C       0.0053   0.5444    0.859     C
C       0.0072   0.5892    0.711     C
C        0.015    0.457    0.929     C
Cu     0.01583  0.71937  0.65067    Cu
C       0.0203   0.5019    0.795     C
O       0.0204   0.3847    0.276     O
O      0.03097  0.31293  0.60933     O
O       0.0313    0.418    0.835     O
H       0.0365    0.505    0.629     H
Cu     0.03687  0.65083  0.31733    Cu
O       0.0409   0.5991    0.547     O
O      0.05137  0.69763  0.05733     O
Cu      0.0527   0.3702    0.016    Cu
O      0.05337  0.30203  0.16833     O
O      0.06757  0.77513  0.88033     O
C      0.07747  0.75133  0.04433     C
C      0.08467  0.34053  0.62233     C
O      0.08467  0.72003  0.49833     O
O      0.10847  0.37423  0.78633     O
C      0.10867  0.31833  0.26233     C
C      0.12227  0.79423  0.19233     C
C      0.12367  0.77533  0.40433     C
C      0.12757  0.33863  0.47433     C
H      0.13517  0.29683  0.96233     H
C      0.14827  0.31303  0.12833     C
H      0.16167  0.86483  0.96233     H
C      0.16477  0.85173  0.12833     C
C      0.16857  0.81493  0.53833     C
H      0.17167  0.80183  0.70433     H
C      0.18507  0.35363  0.53833     C
H      0.19817  0.36983  0.70433     H
C      0.20577  0.32803  0.19233     C
C      0.20967  0.89133  0.26233     C
C      0.21107  0.87243  0.47433     C
C      0.22467  0.34833  0.40433     C
O      0.22487  0.29243  0.88033     O
C      0.24867  0.32613  0.04433     C
O      0.24867  0.94663  0.16833     O
C      0.25587  0.91533  0.62233     C
O      0.26577  0.89153  0.78633     O
O      0.27997  0.36463  0.49833     O
Cu     0.28063  0.29647  0.65067    Cu
O      0.28197  0.96903  0.60933     O
O      0.29243  0.06757  0.11967     O
Cu     0.29647  0.01583  0.34933    Cu
H      0.29683  0.16167  0.03767     H
O      0.30203  0.24867  0.83167     O
O      0.30237  0.35373  0.05733     O
O      0.31293  0.28197  0.39067     O
C      0.31303  0.16477  0.87167     C
Cu      0.3175   0.9473    0.016    Cu
C      0.31833  0.20967  0.73767     C
C      0.32613  0.07747  0.95567     C
C      0.32803  0.12227  0.80767     C
C      0.33863  0.21107  0.52567     C
C      0.34053  0.25587  0.37767     C
C      0.34833  0.12367  0.59567     C
Cu     0.34917  0.38603  0.31733    Cu
C      0.35363  0.16857  0.46167     C
O      0.35373  0.05137  0.94267     O
O       0.3643   0.9796    0.276     O
O      0.36463  0.08467  0.50167     O
H      0.36983  0.17167  0.29567     H
Cu      0.3702   0.3175    0.984    Cu
O      0.37423  0.26577  0.21367     O
O       0.3847   0.3643    0.724     O
Cu     0.38603  0.03687  0.68267    Cu
O       0.3867   0.9687    0.835     O
O       0.4009   0.4418    0.547     O
C       0.4108    0.418    0.711     C
C        0.418   0.0072    0.289     C
O        0.418   0.3867    0.165     O
O       0.4418   0.0409    0.453     O
C        0.442    0.985    0.929     C
C       0.4556   0.4609    0.859     C
C        0.457    0.442    0.071     C
C       0.4609   0.0053    0.141     C
H       0.4685   0.9635    0.629     H
C       0.4816   0.9797    0.795     C
H        0.495   0.5315    0.629     H
C       0.4981   0.5184    0.795     C
C       0.5019   0.4816    0.205     C
H        0.505   0.4685    0.371     H
C       0.5184   0.0203    0.205     C
H       0.5315   0.0365    0.371     H
C       0.5391   0.9947    0.859     C
C        0.543    0.558    0.929     C
C       0.5444   0.5391    0.141     C
C        0.558    0.015    0.071     C
O       0.5582   0.9591    0.547     O
O        0.582   0.6133    0.835     O
C        0.582   0.9928    0.711     C
C       0.5892    0.582    0.289     C
O       0.5991   0.5582    0.453     O
O       0.6133   0.0313    0.165     O
Cu     0.61397  0.96313  0.31733    Cu
O       0.6153   0.6357    0.276     O
O      0.62577  0.73423  0.78633     O
Cu      0.6298   0.6825    0.016    Cu
H      0.63017  0.82833  0.70433     H
O      0.63537  0.91533  0.49833     O
O       0.6357   0.0204    0.724     O
O      0.64627  0.94863  0.05733     O
C      0.64637  0.83143  0.53833     C
Cu     0.65083  0.61397  0.68267    Cu
C      0.65167  0.87633  0.40433     C
C      0.65947  0.74413  0.62233     C
C      0.66137  0.78893  0.47433     C
C      0.67197  0.87773  0.19233     C
C      0.67387  0.92253  0.04433     C
C      0.68167  0.79033  0.26233     C
Cu      0.6825   0.0527    0.984    Cu
C      0.68697  0.83523  0.12833     C
O      0.68707  0.71803  0.60933     O
O      0.69763  0.64627  0.94267     O
O      0.69797  0.75133  0.16833     O
H      0.70317  0.83833  0.96233     H
Cu     0.70353  0.98417  0.65067    Cu
O      0.70757  0.93243  0.88033     O
O      0.71803  0.03097  0.39067     O
Cu     0.71937  0.70353  0.34933    Cu
O      0.72003  0.63537  0.50167     O
O      0.73423  0.10847  0.21367     O
C      0.74413  0.08467  0.37767     C
O      0.75133  0.05337  0.83167     O
C      0.75133  0.67387  0.95567     C
O      0.77513  0.70757  0.11967     O
C      0.77533  0.65167  0.59567     C
C      0.78893  0.12757  0.52567     C
C      0.79033  0.10867  0.73767     C
C      0.79423  0.67197  0.80767     C
H      0.80183  0.63017  0.29567     H
C      0.81493  0.64637  0.46167     C
H      0.82833  0.19817  0.29567     H
C      0.83143  0.18507  0.46167     C
C      0.83523  0.14827  0.87167     C
H      0.83833  0.13517  0.03767     H
C      0.85173  0.68697  0.87167     C
H      0.86483  0.70317  0.03767     H
C      0.87243  0.66137  0.52567     C
C      0.87633  0.22467  0.59567     C
C      0.87773  0.20577  0.80767     C
C      0.89133  0.68167  0.73767     C
O      0.89153  0.62577  0.21367     O
O      0.91533  0.27997  0.50167     O
C      0.91533  0.65947  0.37767     C
C      0.92253  0.24867  0.95567     C
O      0.93243  0.22487  0.11967     O
O      0.94663  0.69797  0.83167     O
Cu      0.9473   0.6298    0.984    Cu
O      0.94863  0.30237  0.94267     O
O       0.9591   0.4009    0.453     O
Cu     0.96313  0.34917  0.68267    Cu
H       0.9635    0.495    0.371     H
O       0.9687    0.582    0.165     O
O      0.96903  0.68707  0.39067     O
O       0.9796   0.6153    0.724     O
C       0.9797   0.4981    0.205     C
Cu     0.98417  0.28063  0.34933    Cu
C        0.985    0.543    0.071     C
C       0.9928   0.4108    0.289     C
C       0.9947   0.4556    0.141     C
