data_I
_chemical_name_common  '/home/zhangsd/repos/MofS-CGCNN/ML/data/TSD/clean_cifs/PACYIE_clean'
_cell_length_a  7.59870
_cell_length_b 10.01660
_cell_length_c 17.45780
_cell_angle_alpha 90.00000
_cell_angle_beta  90.00000
_cell_angle_gamma 90.00000
_space_group_name_H-M_alt      'P 1'


loop_
_space_group_symop_operation_xyz
  'x, y, z' 

loop_
_atom_site_label
_atom_site_fract_x
_atom_site_fract_y
_atom_site_fract_z
_atom_site_type_symbol
H      0.00631     0.25  0.02775     H
H      0.00925  0.55579  0.12085     H
H      0.00925  0.94421  0.12085     H
Co     0.01066     0.75  0.75845    Co
H      0.05647  0.55759  0.32277     H
H      0.05647  0.94241  0.32277     H
H      0.06457     0.75  0.56024     H
C      0.07276     0.25  0.41732     C
C      0.08357  0.01921  0.67616     C
C      0.08357  0.48079  0.67616     C
C      0.11427     0.75  0.93735     C
C      0.13396  0.51626  0.14825     C
C      0.13396  0.98374  0.14825     C
N      0.15143  0.59496  0.70966     N
N      0.15143  0.90504  0.70966     N
Co     0.15613     0.25  0.58217    Co
N      0.15762     0.75  0.85874     N
N      0.16824     0.25  0.34993     N
N      0.17244  0.09813  0.19395     N
N      0.17244  0.40187  0.19395     N
N      0.20604  0.08753  0.63896     N
N      0.20604  0.41247  0.63896     N
N      0.21997     0.25  0.47267     N
N      0.28003     0.75  0.97267     N
N      0.29396  0.58753  0.13896     N
N      0.29396  0.91247  0.13896     N
N      0.32756  0.59813  0.69395     N
N      0.32756  0.90187  0.69395     N
N      0.33176     0.75  0.84993     N
N      0.34238     0.25  0.35874     N
Co     0.34387     0.75  0.08217    Co
N      0.34857  0.09496  0.20966     N
N      0.34857  0.40504  0.20966     N
C      0.36604  0.01626  0.64825     C
C      0.36604  0.48374  0.64825     C
C      0.38573     0.25  0.43735     C
C      0.41643  0.51921  0.17616     C
C      0.41643  0.98079  0.17616     C
C      0.42724     0.75  0.91732     C
H      0.43543     0.25  0.06024     H
H      0.44353  0.05759  0.82277     H
H      0.44353  0.44241  0.82277     H
Co     0.48934     0.25  0.25845    Co
H      0.49075  0.05579  0.62085     H
H      0.49075  0.44421  0.62085     H
H      0.49369     0.75  0.52775     H
H      0.50631     0.25  0.47225     H
H      0.50925  0.55579  0.37915     H
H      0.50925  0.94421  0.37915     H
Co     0.51066     0.75  0.74155    Co
H      0.55647  0.55759  0.17723     H
H      0.55647  0.94241  0.17723     H
H      0.56457     0.75  0.93976     H
C      0.57276     0.25  0.08268     C
C      0.58357  0.01921  0.82384     C
C      0.58357  0.48079  0.82384     C
C      0.61427     0.75  0.56265     C
C      0.63396  0.51626  0.35175     C
C      0.63396  0.98374  0.35175     C
N      0.65143  0.59496  0.79034     N
N      0.65143  0.90504  0.79034     N
Co     0.65613     0.25  0.91783    Co
N      0.65762     0.75  0.64126     N
N      0.66824     0.25  0.15007     N
N      0.67244  0.09813  0.30605     N
N      0.67244  0.40187  0.30605     N
N      0.70604  0.08753  0.86104     N
N      0.70604  0.41247  0.86104     N
N      0.71997     0.25  0.02733     N
N      0.78003     0.75  0.52733     N
N      0.79396  0.58753  0.36104     N
N      0.79396  0.91247  0.36104     N
N      0.82756  0.59813  0.80605     N
N      0.82756  0.90187  0.80605     N
N      0.83176     0.75  0.65007     N
N      0.84238     0.25  0.14126     N
Co     0.84387     0.75  0.41783    Co
N      0.84857  0.09496  0.29034     N
N      0.84857  0.40504  0.29034     N
C      0.86604  0.01626  0.85175     C
C      0.86604  0.48374  0.85175     C
C      0.88573     0.25  0.06265     C
C      0.91643  0.51921  0.32384     C
C      0.91643  0.98079  0.32384     C
C      0.92724     0.75  0.58268     C
H      0.93543     0.25  0.43976     H
H      0.94353  0.05759  0.67723     H
H      0.94353  0.44241  0.67723     H
Co     0.98934     0.25  0.24155    Co
H      0.99075  0.05579  0.87915     H
H      0.99075  0.44421  0.87915     H
H      0.99369     0.75  0.97225     H
