data_I
_chemical_name_common  '/home/zhangsd/repos/MofS-CGCNN/ML/data/TSD/clean_cifs/PAPPED_clean'
_cell_length_a 12.92920
_cell_length_b 12.92920
_cell_length_c 20.10390
_cell_angle_alpha 90.00000
_cell_angle_beta  90.00000
_cell_angle_gamma 120.00000
_space_group_name_H-M_alt      'P 1'


loop_
_space_group_symop_operation_xyz
  'x, y, z' 

loop_
_atom_site_label
_atom_site_fract_x
_atom_site_fract_y
_atom_site_fract_z
_atom_site_type_symbol
Cu         0.0  0.62047  0.66667    Cu
C       0.0075   0.6084  0.04121     C
H       0.0119   0.6056   0.3395     H
C       0.0134   0.5012  0.06958     C
C        0.019   0.4463  0.84414     C
N       0.0224   0.5182  0.59685     N
O       0.0279   0.2538  0.03911     O
H       0.0309   0.3925   0.3766     H
N        0.034   0.7444  0.59466     N
C       0.0345   0.8787  0.80963     C
N       0.0357   0.4272  0.96157     N
C        0.038   0.5268  0.79384     C
H       0.0409   0.1289  0.48403     H
C       0.0416   0.8258  0.75123     C
H       0.0476   0.5215  0.11383     H
C       0.0518   0.8642  0.47696     C
H       0.0549   0.9015  0.43687     H
C       0.0642   0.3921  0.50017     C
H       0.0674   0.5019   0.2595     H
H       0.0792   0.3503   0.4675     H
H       0.0793   0.7034   0.2111     H
C       0.0856   0.4612  0.02834     C
C       0.0864    0.354  0.06036     C
H       0.0879   0.7803   0.2734     H
H        0.088   0.9591  0.81737     H
C       0.0884    0.493  0.90758     C
C       0.0906   0.7112   0.2584     C
H       0.0956   0.6064  0.80023     H
H       0.0985   0.1534  0.10353     H
H       0.1001   0.8714  0.72017     H
C       0.1033   0.4836  0.60625     C
H       0.1176    0.787  0.03153     H
C       0.1213   0.1558  0.47629     C
C       0.1222   0.7696  0.55081     C
C       0.1249   0.7211  0.04763     C
C        0.125   0.4193  0.55987     C
H       0.1286   0.2287  0.38683     H
H       0.1289   0.0409  0.18263     H
C       0.1333   0.8282  0.49079     C
C       0.1358   0.1876  0.14362     C
H       0.1463   0.5041   0.6458     H
H       0.1485   0.7341  0.09353     H
H       0.1534   0.0985  0.56313     H
C       0.1558   0.1213  0.19037     C
N       0.1563   0.3832  0.11561     N
H       0.1667   0.7197   0.2694     H
H        0.168   0.5275  0.02493     H
C       0.1718   0.3051  0.15745     C
C       0.1742   0.2158  0.41789     C
H       0.1783    0.747  0.56107     H
H       0.1798   0.3943   0.5684     H
H        0.184   0.7145  0.02203     H
O       0.1854   0.5851  0.90868     O
C       0.1876   0.1358  0.52304     C
H       0.1952   0.4577  0.12603     H
H        0.213   0.3306   0.6982     H
H       0.2145   0.8202  0.90173     H
C       0.2158   0.1742  0.24877     C
H       0.2197   0.3076  0.94007     H
O       0.2259   0.9721  0.37245     O
N       0.2269   0.8437  0.44895     N
H       0.2287   0.1286  0.27983     H
C       0.2304   0.3526  0.21747     C
H        0.253   0.4313  0.22773     H
O       0.2538   0.0279  0.62755     O
N       0.2556   0.2896  0.26132     N
H       0.2625   0.8048  0.45937     H
H       0.2659   0.4144   0.7602     H
C       0.2676   0.9136   0.3937     C
H       0.2711   0.9208  0.80083     H
C       0.2789   0.4038   0.7143     C
H       0.2803    0.447  0.93607     H
H       0.2855   0.4695   0.6887     H
C       0.2888   0.3794  0.92507     C
N       0.2896   0.2556  0.40534     N
C       0.2943    0.875   0.8932     C
H       0.2966   0.3759  0.87777     H
C       0.3051   0.1718  0.50921     C
H       0.3076   0.2197   0.7266     H
C       0.3279   0.9358   0.8335     C
H       0.3306    0.213  0.96847     H
H       0.3503   0.0792  0.19917     H
C       0.3526   0.2304  0.44919     C
C        0.354   0.0864   0.6063     C
H       0.3578   0.8537  0.97913     H
H       0.3595    0.832  0.35827     H
H       0.3616   0.9691  0.70993     H
C       0.3756   0.9144  0.36168     C
H       0.3759   0.2966   0.7889     H
C       0.3794   0.2888   0.7416     C
Cu     0.37953  0.37953  0.33333    Cu
C       0.3803   0.8967  0.93958     C
N       0.3832   0.1563  0.55105     N
N       0.3915   0.9643  0.29491     N
C       0.3916   0.3991  0.70788     C
C       0.3921   0.0642   0.1665     C
H       0.3925   0.0309  0.29007     H
H       0.3936   0.4892   0.4669     H
H       0.3943   0.1798  0.09827     H
H       0.3944   0.4063  0.00617     H
C       0.3991   0.3916  0.95879     C
O       0.3997   0.8146  0.24202     O
C       0.4038   0.2789  0.95237     C
C       0.4046   0.9116  0.24092     C
H       0.4063   0.3944   0.6605     H
H       0.4144   0.2659  0.90647     H
O       0.4149   0.6003  0.57535     O
C       0.4193    0.125   0.1068     C
N       0.4272   0.0357  0.70509     N
C       0.4273    0.981  0.17748     C
H       0.4313    0.253  0.43893     H
H       0.4345   0.9326  0.59283     H
C       0.4463    0.019  0.82252     C
H        0.447   0.2803   0.7306     H
H       0.4577   0.1952  0.54063     H
C       0.4612   0.0856  0.63832     C
H       0.4695   0.2855  0.97797     H
H       0.4725   0.6405   0.6916     H
C       0.4732   0.5112  0.46051     C
H       0.4739   0.9524  0.44717     H
H       0.4785   0.5261   0.7805     H
N       0.4818   0.5042  0.26352     N
C       0.4836   0.1033  0.06042     C
C       0.4878   0.9866  0.40292     C
C       0.4888    0.962  0.12718     C
H       0.4892   0.3936  0.19977     H
C        0.493   0.0884  0.75908     C
N       0.4958   0.9776  0.93018     N
H       0.4959   0.6422  0.31247     H
H       0.4981   0.5655  0.92617     H
C       0.4988   0.5122  0.73625     C
C       0.5012   0.0134  0.59708     C
H       0.5019   0.0674  0.40717     H
H       0.5041   0.1463  0.02087     H
N       0.5042   0.4818  0.40315     N
C        0.507   0.5954  0.57425     C
H       0.5108   0.9044  0.13357     H
C       0.5112   0.4732  0.20616     C
C       0.5122   0.4988  0.93042     C
C       0.5164   0.6197  0.27292     C
N       0.5182   0.0224  0.06982     N
H       0.5215   0.0476  0.55283     H
H       0.5261   0.4785  0.88617     H
C       0.5268    0.038  0.87282     C
H       0.5275    0.168  0.64173     H
H       0.5305    0.816  0.35537     H
C       0.5388   0.6244  0.69501     C
H       0.5423   0.7375   0.7927     H
H        0.553   0.8333  0.60273     H
C       0.5537   0.5727  0.51081     C
H       0.5655   0.4981   0.7405     H
H       0.5687   0.8217   0.8944     H
C       0.5727   0.5537  0.15586     C
N       0.5728   0.6085  0.62824     N
C       0.5807   0.7057  0.22654     C
O       0.5851   0.1854  0.75798     O
H       0.5856   0.8515  0.42687     H
H       0.5937   0.9881  0.67283     H
C       0.5954    0.507  0.09242     C
C       0.5962   0.8751  0.38097     C
O       0.6003   0.4149  0.09132     O
C       0.6009   0.9925  0.37455     C
H       0.6056   0.0119  0.32717     H
H       0.6057   0.7855  0.23507     H
H       0.6064   0.0956  0.86643     H
H       0.6075   0.6384  0.04327     H
C       0.6079   0.6721  0.16684     C
C       0.6084   0.0075  0.62545     C
N       0.6085   0.5728  0.03843     N
N       0.6168   0.7731  0.78228     N
C       0.6197   0.5164  0.39375     C
Cu     0.62047      1.0      0.0    Cu
C       0.6206   0.9094  0.59173     C
H       0.6241   0.9207  0.54443     H
C       0.6244   0.5388  0.97166     C
H       0.6384   0.6075   0.6234     H
H       0.6405   0.4725  0.97507     H
H       0.6422   0.4959   0.3542     H
C        0.646   0.7324  0.72703     C
C       0.6474   0.8778  0.88414     C
H       0.6497   0.7289  0.13417     H
H       0.6694   0.8824  0.36487     H
C       0.6721   0.6079  0.49983     C
H       0.6924   0.9121  0.60673     H
C       0.6949   0.8667  0.82412     C
H       0.7034   0.0793  0.45557     H
C       0.7057   0.5807  0.44013     C
N       0.7104    0.966  0.92799     N
C       0.7112   0.0906  0.40827     C
H       0.7145    0.184  0.64463     H
H       0.7197   0.1667  0.39727     H
C       0.7211   0.1249  0.61903     C
H       0.7289   0.6497   0.5325     H
C       0.7324    0.646  0.93964     C
H       0.7341   0.1485  0.57313     H
H       0.7375   0.5423  0.87397     H
N       0.7444    0.034  0.07201     N
O       0.7462   0.7741  0.70578     O
H        0.747   0.1783   0.1056     H
C       0.7696   0.1222  0.11586     C
H       0.7713   0.8999   0.0535     H
N       0.7731   0.6168  0.88439     N
O       0.7741   0.7462  0.96089     O
H       0.7803   0.0879  0.39327     H
C       0.7842   0.9584  0.08456     C
H       0.7855   0.6057   0.4316     H
H        0.787   0.1176  0.63513     H
H       0.8048   0.2625   0.2073     H
C       0.8124   0.9482  0.81029     C
O       0.8146   0.3997  0.42465     O
H        0.816   0.5305   0.3113     H
H       0.8202   0.2145  0.76493     H
H       0.8217   0.5687  0.77227     H
C       0.8258   0.0416  0.91544     C
C       0.8282   0.1333  0.17588     C
H        0.832   0.3595   0.3084     H
H       0.8333    0.553  0.06393     H
N       0.8437   0.2269  0.21772     N
C       0.8442   0.9655  0.14296     C
H       0.8466   0.9451   0.7702     H
H       0.8515   0.5856   0.2398     H
H       0.8537   0.3578  0.68753     H
C       0.8642   0.0518  0.18971     C
C       0.8667   0.6949  0.84255     C
H       0.8711    0.912   0.1507     H
H       0.8714   0.1001   0.9465     H
C        0.875   0.2943  0.77346     C
C       0.8751   0.5962   0.2857     C
C       0.8778   0.6474  0.78253     C
C       0.8787   0.0345  0.85704     C
H       0.8824   0.6694   0.3018     H
C       0.8967   0.3803  0.72708     C
H       0.8999   0.7713  0.61317     H
H       0.9015   0.0549   0.2298     H
H       0.9044   0.5108   0.5331     H
C       0.9094   0.6206  0.07493     C
C       0.9116   0.4046  0.42575     C
H        0.912   0.8711  0.51597     H
H       0.9121   0.6924  0.05993     H
C       0.9136   0.2676  0.27297     C
C       0.9144   0.3756  0.30499     C
H       0.9207   0.6241  0.12223     H
H       0.9208   0.2711  0.86583     H
H       0.9326   0.4345  0.07383     H
C       0.9358   0.3279  0.83316     C
H       0.9451   0.8466  0.89647     H
C       0.9482   0.8124  0.85638     C
H       0.9524   0.4739   0.2195     H
C       0.9584   0.7842  0.58211     C
H       0.9591    0.088   0.8493     H
C        0.962   0.4888  0.53949     C
N       0.9643   0.3915  0.37176     N
C       0.9655   0.8442  0.52371     C
N        0.966   0.7104  0.73868     N
H       0.9691   0.3616  0.95673     H
O       0.9721   0.2259  0.29422     O
N       0.9776   0.4958  0.73648     N
C        0.981   0.4273  0.48919     C
C       0.9866   0.4878  0.26375     C
H       0.9881   0.5937  0.99383     H
C       0.9925   0.6009  0.29212     C
