data_I
_chemical_name_common  '/home/zhangsd/repos/MofS-CGCNN/ML/data/TSD/clean_cifs/PAPPAZ_clean'
_cell_length_a 13.08420
_cell_length_b 13.08420
_cell_length_c 19.87800
_cell_angle_alpha 90.00000
_cell_angle_beta  90.00000
_cell_angle_gamma 120.00000
_space_group_name_H-M_alt      'P 1'


loop_
_space_group_symop_operation_xyz
  'x, y, z' 

loop_
_atom_site_label
_atom_site_fract_x
_atom_site_fract_y
_atom_site_fract_z
_atom_site_type_symbol
Cu         0.0   0.3816  0.33333    Cu
C       0.0185    0.571  0.15393     C
O        0.019   0.7619  0.95603     O
N       0.0202   0.4999  0.40433     N
C       0.0252    0.523  0.92163     C
N       0.0291   0.2889   0.4063     N
N       0.0318   0.5965  0.03373     N
C       0.0338   0.4196  0.93413     C
C       0.0386   0.5093  0.20563     C
C       0.0393   0.1585  0.19397     C
C       0.0427   0.2215  0.25147     C
C        0.044    0.201  0.94753     C
C       0.0502   0.1865   0.5237     C
C         0.06    0.265  0.73083     C
C       0.0632   0.6689  0.50453     C
C        0.064    0.374  0.73383     C
C       0.0853   0.7268  0.93563     C
C       0.0892    0.593  0.08943     C
C       0.0904    0.623  0.96703     C
C       0.1035    0.615  0.39623     C
C       0.1162   0.3536   0.4494     C
C       0.1192   0.9607   0.5273     C
C       0.1255   0.3053   0.5099     C
C       0.1285   0.7025  0.44303     C
C       0.1363   0.9498  0.85703     C
C        0.139    0.417  0.94093     C
C        0.142    0.304  0.94663     C
C        0.157    0.956  0.28087     C
C       0.1585   0.0393  0.80603     C
C        0.162    0.858  0.27997     C
N       0.1639   0.7804  0.88563     N
C       0.1788   0.9573   0.5848     C
C       0.1798   0.8745  0.84323     C
C       0.1865   0.0502   0.4763     C
O       0.1885   0.6119  0.08993     O
C        0.201    0.044  0.05247     C
C        0.205     0.94  0.06417     C
N       0.2196   0.3835   0.5523     N
C       0.2215   0.0427  0.74853     C
C       0.2374   0.8838  0.78273     C
O       0.2381   0.2571   0.6227     O
O       0.2571   0.2381   0.3773     O
N       0.2598   0.9709  0.73963     N
C        0.265     0.06  0.26917     C
C       0.2732   0.3585   0.6023     C
C        0.278    0.861  0.27427     C
N       0.2889   0.0291   0.5937     N
C       0.2975    0.426   0.1097     C
C        0.304    0.142  0.05337     C
C       0.3053   0.1255   0.4901     C
C         0.31    0.936  0.06717     C
C       0.3311   0.3943   0.1712     C
C       0.3536   0.1162   0.5506     C
C       0.3585   0.2732   0.3977     C
C        0.374    0.064  0.26617     C
C        0.377   0.4674   0.6337     C
Cu      0.3816      0.0  0.66667    Cu
N       0.3835   0.2196   0.4477     N
C        0.385   0.4885   0.0629     C
C       0.3858   0.9662  0.26747     C
O       0.3881   0.5766   0.7566     O
C       0.3943   0.3311   0.8288     C
N       0.4035   0.4353   0.7004     N
C        0.407   0.4962   0.7561     C
C        0.417    0.139  0.05907     C
C       0.4196   0.0338  0.06587     C
O       0.4234   0.8115  0.42327     O
C        0.426   0.2975   0.8903     C
C        0.429   0.4475   0.8206     C
N       0.4353   0.4035   0.2996     N
C       0.4475    0.429   0.1794     C
C       0.4674    0.377   0.3663     C
C       0.4707   0.9614  0.53897     C
C        0.477   0.5022   0.5883     C
N       0.4797   0.9798  0.73767     N
C       0.4885    0.385   0.9371     C
C       0.4907   0.5293   0.8723     C
C       0.4962    0.407   0.2439     C
C       0.4978   0.9748  0.25497     C
N       0.4999   0.0202  0.59567     N
N       0.5001   0.5203    0.071     N
C       0.5022    0.477   0.4117     C
C       0.5038   0.9108  0.42277     C
C       0.5093   0.0386  0.79437     C
C       0.5115   0.8965  0.72957     C
N       0.5203   0.5001    0.929     N
C        0.523   0.0252  0.07837     C
C       0.5293   0.4907   0.1277     C
C       0.5326   0.9096  0.30037     C
C       0.5525   0.9815  0.48727     C
N       0.5647   0.9682  0.36707     N
C        0.571   0.0185  0.84607     C
C        0.574   0.8715  0.77637     C
O       0.5766   0.3881   0.2434     O
C       0.5804   0.6142   0.6008     C
C        0.583    0.722   0.6076     C
C        0.593   0.0892  0.91057     C
N       0.5965   0.0318  0.96627     N
C       0.6057   0.9368  0.83787     C
O       0.6119   0.1885  0.91007     O
C       0.6142   0.5804   0.3992     C
C        0.615   0.1035  0.60377     C
N       0.6165   0.8361  0.21897     N
Cu      0.6184   0.6184      0.0    Cu
C        0.623   0.0904  0.03297     C
C        0.626     0.69   0.4005     C
C       0.6415   0.9147  0.26897     C
C       0.6464   0.7626  0.11607     C
C       0.6689   0.0632  0.49547     C
C         0.69    0.626   0.5995     C
C       0.6947   0.8202  0.17657     C
C        0.696    0.838   0.6133     C
C       0.7025   0.1285  0.55697     C
N       0.7111   0.7402  0.07297     N
C        0.722    0.583   0.3924     C
C       0.7268   0.0853  0.06437     C
C        0.735    0.795   0.3975     C
N       0.7402   0.7111  0.92703     N
O       0.7429    0.981  0.28937     O
O       0.7619    0.019  0.04397     O
C       0.7626   0.6464  0.88393     C
C       0.7785   0.8212  0.91813     C
N       0.7804   0.1639  0.11437     N
C        0.795    0.735   0.6025     C
C        0.799    0.843   0.6142     C
O       0.8115   0.4234  0.57673     O
C       0.8135   0.8637  0.19037     C
C       0.8202   0.6947  0.82343     C
C       0.8212   0.7785  0.08187     C
N       0.8361   0.6165  0.78103     N
C        0.838    0.696   0.3867     C
C       0.8415   0.8808  0.86063     C
C        0.843    0.799   0.3858     C
C        0.858    0.162  0.72003     C
C        0.861    0.278  0.72573     C
C       0.8637   0.8135  0.80963     C
C       0.8715    0.574  0.22363     C
C       0.8745   0.1798  0.15677     C
C       0.8808   0.8415  0.13937     C
C       0.8838   0.2374  0.21727     C
C       0.8965   0.5115  0.27043     C
C       0.9096   0.5326  0.69963     C
C       0.9108   0.5038  0.57723     C
C       0.9147   0.6415  0.73103     C
C        0.936     0.31  0.93283     C
C       0.9368   0.6057  0.16213     C
C         0.94    0.205  0.93583     C
C       0.9498   0.1363  0.14297     C
C        0.956    0.157  0.71913     C
C       0.9573   0.1788   0.4152     C
C       0.9607   0.1192   0.4727     C
C       0.9614   0.4707  0.46103     C
C       0.9662   0.3858  0.73253     C
N       0.9682   0.5647  0.63293     N
N       0.9709   0.2598  0.26037     N
C       0.9748   0.4978  0.74503     C
N       0.9798   0.4797  0.26233     N
O        0.981   0.7429  0.71063     O
C       0.9815   0.5525  0.51273     C
