data_I
_chemical_name_common  '/home/zhangsd/repos/MofS-CGCNN/ML/data/TSD/clean_cifs/PAPVAF_clean'
_cell_length_a 19.86900
_cell_length_b 19.86900
_cell_length_c 27.47000
_cell_angle_alpha 90.00000
_cell_angle_beta  90.00000
_cell_angle_gamma 120.00000
_space_group_name_H-M_alt      'P 1'


loop_
_space_group_symop_operation_xyz
  'x, y, z' 

loop_
_atom_site_label
_atom_site_fract_x
_atom_site_fract_y
_atom_site_fract_z
_atom_site_type_symbol
C       0.0168   0.8715   0.1561     C
C       0.0168   0.8715   0.3439     C
C       0.0175   0.8728     0.25     C
C       0.0303   0.8512   0.2059     C
C       0.0303   0.8512   0.2941     C
H       0.0313   0.7606   0.1344     H
H       0.0313   0.7606   0.3656     H
H       0.0332   0.8472   0.1324     H
H       0.0332   0.8472   0.3676     H
H       0.0376   0.1464   0.6519     H
H       0.0376   0.1464   0.8481     H
Pr     0.04259  0.51506  0.57022    Pr
Pr     0.04259  0.51506  0.92978    Pr
H        0.046   0.9269   0.1519     H
H        0.046   0.9269   0.3481     H
O       0.0495   0.5887   0.0223     O
O       0.0495   0.5887   0.4777     O
O       0.0546   0.4503   0.0595     O
O       0.0546   0.4503   0.4405     O
C        0.057   0.8011   0.2063     C
C        0.057   0.8011   0.2937     C
H       0.0588   0.7124   0.1658     H
H       0.0588   0.7124   0.3342     H
C       0.0675   0.7641   0.1593     C
C       0.0675   0.7641   0.3407     C
H       0.0731   0.1191   0.1519     H
H       0.0731   0.1191   0.3481     H
H       0.0764     0.69   0.0854     H
H       0.0764     0.69   0.4146     H
C       0.0786   0.7761     0.25     C
C       0.1075   0.4616   0.0305     C
C       0.1075   0.4616   0.4695     C
C       0.1087   0.6454   0.0053     C
C       0.1087   0.6454   0.4947     C
H       0.1088   0.9624   0.6519     H
H       0.1088   0.9624   0.8481     H
H         0.11   0.3838   0.1067     H
H         0.11   0.3838   0.3933     H
O       0.1165   0.4906    0.509     O
O       0.1165   0.4906    0.991     O
H       0.1191    0.046   0.6519     H
H       0.1191    0.046   0.8481     H
C       0.1255   0.7271   0.0748     C
C       0.1255   0.7271   0.4252     C
C       0.1272   0.1447     0.25     C
C       0.1285   0.1453   0.1561     C
C       0.1285   0.1453   0.3439     C
O       0.1316   0.6443   0.5371     O
O       0.1316   0.6443   0.9629     O
C       0.1447   0.0175     0.75     C
C       0.1453   0.0168   0.6561     C
C       0.1453   0.0168   0.8439     C
H       0.1464   0.1088   0.1519     H
H       0.1464   0.1088   0.3481     H
O       0.1464    0.815   0.1441     O
O       0.1464    0.815   0.3559     O
C       0.1488   0.1791   0.2059     C
C       0.1488   0.1791   0.2941     C
H       0.1528    0.186   0.1324     H
H       0.1528    0.186   0.3676     H
C       0.1532   0.3972   0.0873     C
C       0.1532   0.3972   0.4127     C
C       0.1561   0.7168    0.032     C
C       0.1561   0.7168    0.468     C
C       0.1639   0.4376   0.0454     C
C       0.1639   0.4376   0.4546     C
C       0.1693   0.7929   0.1006     C
C       0.1693   0.7929   0.3994     C
C       0.1791   0.0303   0.7059     C
C       0.1791   0.0303   0.7941     C
O        0.185   0.3314   0.1441     O
O        0.185   0.3314   0.3559     O
H        0.186   0.0332   0.6324     H
H        0.186   0.0332   0.8676     H
C       0.1989   0.2559   0.2063     C
C       0.1989   0.2559   0.2937     C
C       0.2071   0.3764   0.1006     C
C       0.2071   0.3764   0.3994     C
C       0.2239   0.3025     0.25     C
C        0.229   0.7708   0.0183     C
C        0.229   0.7708   0.4817     C
C       0.2292   0.4582   0.0183     C
C       0.2292   0.4582   0.4817     C
C       0.2359   0.3034   0.1593     C
C       0.2359   0.3034   0.3407     C
H       0.2368   0.4861   0.5104     H
H       0.2368   0.4861   0.9896     H
H       0.2394   0.2707   0.1344     H
H       0.2394   0.2707   0.3656     H
C        0.244   0.8468   0.0873     C
C        0.244   0.8468   0.4127     C
H       0.2493   0.7632   0.5104     H
H       0.2493   0.7632   0.9896     H
C       0.2559    0.057   0.7063     C
C       0.2559    0.057   0.7937     C
H       0.2707   0.0313   0.6344     H
H       0.2707   0.0313   0.8656     H
C       0.2729   0.3984   0.0748     C
C       0.2729   0.3984   0.4252     C
C       0.2737   0.8361   0.0454     C
C       0.2737   0.8361   0.4546     C
H       0.2738     0.89   0.1067     H
H       0.2738     0.89   0.3933     H
C       0.2832   0.4393    0.032     C
C       0.2832   0.4393    0.468     C
H       0.2876   0.3464   0.1658     H
H       0.2876   0.3464   0.3342     H
C       0.3025   0.0786     0.75     C
C       0.3034   0.0675   0.6593     C
C       0.3034   0.0675   0.8407     C
H         0.31   0.3864   0.0854     H
H         0.31   0.3864   0.4146     H
O       0.3314   0.1464   0.6441     O
O       0.3314   0.1464   0.8559     O
H       0.3464   0.0588   0.6658     H
H       0.3464   0.0588   0.8342     H
C       0.3541   0.8925   0.0305     C
C       0.3541   0.8925   0.4695     C
C       0.3546   0.4633   0.0053     C
C       0.3546   0.4633   0.4947     C
O       0.3557   0.4873   0.5371     O
O       0.3557   0.4873   0.9629     O
O       0.3741   0.8835    0.509     O
O       0.3741   0.8835    0.991     O
C       0.3764   0.1693   0.6006     C
C       0.3764   0.1693   0.8994     C
H       0.3838   0.2738   0.6067     H
H       0.3838   0.2738   0.8933     H
H       0.3864   0.0764   0.5854     H
H       0.3864   0.0764   0.9146     H
O       0.3957   0.9454   0.0595     O
O       0.3957   0.9454   0.4405     O
C       0.3972    0.244   0.5873     C
C       0.3972    0.244   0.9127     C
C       0.3984   0.1255   0.5748     C
C       0.3984   0.1255   0.9252     C
O       0.4113   0.4608   0.0223     O
O       0.4113   0.4608   0.4777     O
C       0.4376   0.2737   0.5454     C
C       0.4376   0.2737   0.9546     C
C       0.4393   0.1561    0.532     C
C       0.4393   0.1561    0.968     C
O       0.4503   0.3957   0.5595     O
O       0.4503   0.3957   0.9405     O
C       0.4582    0.229   0.5183     C
C       0.4582    0.229   0.9817     C
O       0.4608   0.0495   0.5223     O
O       0.4608   0.0495   0.9777     O
C       0.4616   0.3541   0.5305     C
C       0.4616   0.3541   0.9695     C
C       0.4633   0.1087   0.5053     C
C       0.4633   0.1087   0.9947     C
Pr     0.47247  0.95741  0.57022    Pr
Pr     0.47247  0.95741  0.92978    Pr
Pr     0.48494  0.52753  0.57022    Pr
Pr     0.48494  0.52753  0.92978    Pr
H       0.4861   0.2493   0.0104     H
H       0.4861   0.2493   0.4896     H
O       0.4873   0.1316   0.0371     O
O       0.4873   0.1316   0.4629     O
O       0.4906   0.3741    0.009     O
O       0.4906   0.3741    0.491     O
O       0.5094   0.6259    0.509     O
O       0.5094   0.6259    0.991     O
O       0.5127   0.8684   0.5371     O
O       0.5127   0.8684   0.9629     O
H       0.5139   0.7507   0.5104     H
H       0.5139   0.7507   0.9896     H
Pr     0.51506  0.47247  0.07022    Pr
Pr     0.51506  0.47247  0.42978    Pr
Pr     0.52753  0.04259  0.07022    Pr
Pr     0.52753  0.04259  0.42978    Pr
C       0.5367   0.8913   0.0053     C
C       0.5367   0.8913   0.4947     C
C       0.5384   0.6459   0.0305     C
C       0.5384   0.6459   0.4695     C
O       0.5392   0.9505   0.0223     O
O       0.5392   0.9505   0.4777     O
C       0.5418    0.771   0.0183     C
C       0.5418    0.771   0.4817     C
O       0.5497   0.6043   0.0595     O
O       0.5497   0.6043   0.4405     O
C       0.5607   0.8439    0.032     C
C       0.5607   0.8439    0.468     C
C       0.5624   0.7263   0.0454     C
C       0.5624   0.7263   0.4546     C
O       0.5887   0.5392   0.5223     O
O       0.5887   0.5392   0.9777     O
C       0.6016   0.8745   0.0748     C
C       0.6016   0.8745   0.4252     C
C       0.6028    0.756   0.0873     C
C       0.6028    0.756   0.4127     C
O       0.6043   0.0546   0.5595     O
O       0.6043   0.0546   0.9405     O
H       0.6136   0.9236   0.0854     H
H       0.6136   0.9236   0.4146     H
H       0.6162   0.7262   0.1067     H
H       0.6162   0.7262   0.3933     H
C       0.6236   0.8307   0.1006     C
C       0.6236   0.8307   0.3994     C
O       0.6259   0.1165    0.009     O
O       0.6259   0.1165    0.491     O
O       0.6443   0.5127   0.0371     O
O       0.6443   0.5127   0.4629     O
C       0.6454   0.5367   0.5053     C
C       0.6454   0.5367   0.9947     C
C       0.6459   0.1075   0.5305     C
C       0.6459   0.1075   0.9695     C
H       0.6536   0.9412   0.1658     H
H       0.6536   0.9412   0.3342     H
O       0.6686   0.8536   0.1441     O
O       0.6686   0.8536   0.3559     O
H         0.69   0.6136   0.5854     H
H         0.69   0.6136   0.9146     H
C       0.6966   0.9325   0.1593     C
C       0.6966   0.9325   0.3407     C
C       0.6975   0.9214     0.25     C
H       0.7124   0.6536   0.6658     H
H       0.7124   0.6536   0.8342     H
C       0.7168   0.5607    0.532     C
C       0.7168   0.5607    0.968     C
H       0.7262     0.11   0.6067     H
H       0.7262     0.11   0.8933     H
C       0.7263   0.1639   0.5454     C
C       0.7263   0.1639   0.9546     C
C       0.7271   0.6016   0.5748     C
C       0.7271   0.6016   0.9252     C
H       0.7293   0.9687   0.1344     H
H       0.7293   0.9687   0.3656     H
C       0.7441    0.943   0.2063     C
C       0.7441    0.943   0.2937     C
H       0.7507   0.2368   0.0104     H
H       0.7507   0.2368   0.4896     H
C        0.756   0.1532   0.5873     C
C        0.756   0.1532   0.9127     C
H       0.7606   0.7293   0.6344     H
H       0.7606   0.7293   0.8656     H
H       0.7632   0.5139   0.0104     H
H       0.7632   0.5139   0.4896     H
C       0.7641   0.6966   0.6593     C
C       0.7641   0.6966   0.8407     C
C       0.7708   0.5418   0.5183     C
C       0.7708   0.5418   0.9817     C
C        0.771   0.2292   0.5183     C
C        0.771   0.2292   0.9817     C
C       0.7761   0.6975     0.75     C
C       0.7929   0.6236   0.6006     C
C       0.7929   0.6236   0.8994     C
C       0.8011   0.7441   0.7063     C
C       0.8011   0.7441   0.7937     C
H        0.814   0.9668   0.1324     H
H        0.814   0.9668   0.3676     H
O        0.815   0.6686   0.6441     O
O        0.815   0.6686   0.8559     O
C       0.8209   0.9697   0.2059     C
C       0.8209   0.9697   0.2941     C
C       0.8307   0.2071   0.6006     C
C       0.8307   0.2071   0.8994     C
C       0.8361   0.5624   0.5454     C
C       0.8361   0.5624   0.9546     C
C       0.8439   0.2832    0.532     C
C       0.8439   0.2832    0.968     C
C       0.8468   0.6028   0.5873     C
C       0.8468   0.6028   0.9127     C
H       0.8472    0.814   0.6324     H
H       0.8472    0.814   0.8676     H
C       0.8512   0.8209   0.7059     C
C       0.8512   0.8209   0.7941     C
O       0.8536    0.185   0.6441     O
O       0.8536    0.185   0.8559     O
H       0.8536   0.8912   0.6519     H
H       0.8536   0.8912   0.8481     H
C       0.8547   0.9832   0.1561     C
C       0.8547   0.9832   0.3439     C
C       0.8553   0.9825     0.25     C
O       0.8684   0.3557   0.0371     O
O       0.8684   0.3557   0.4629     O
C       0.8715   0.8547   0.6561     C
C       0.8715   0.8547   0.8439     C
C       0.8728   0.8553     0.75     C
C       0.8745   0.2729   0.5748     C
C       0.8745   0.2729   0.9252     C
H       0.8809    0.954   0.1519     H
H       0.8809    0.954   0.3481     H
O       0.8835   0.5094    0.009     O
O       0.8835   0.5094    0.491     O
H         0.89   0.6162   0.6067     H
H         0.89   0.6162   0.8933     H
H       0.8912   0.0376   0.1519     H
H       0.8912   0.0376   0.3481     H
C       0.8913   0.3546   0.5053     C
C       0.8913   0.3546   0.9947     C
C       0.8925   0.5384   0.5305     C
C       0.8925   0.5384   0.9695     C
C       0.9214   0.2239     0.75     C
H       0.9236     0.31   0.5854     H
H       0.9236     0.31   0.9146     H
H       0.9269   0.8809   0.6519     H
H       0.9269   0.8809   0.8481     H
C       0.9325   0.2359   0.6593     C
C       0.9325   0.2359   0.8407     C
H       0.9412   0.2876   0.6658     H
H       0.9412   0.2876   0.8342     H
C        0.943   0.1989   0.7063     C
C        0.943   0.1989   0.7937     C
O       0.9454   0.5497   0.5595     O
O       0.9454   0.5497   0.9405     O
O       0.9505   0.4113   0.5223     O
O       0.9505   0.4113   0.9777     O
H        0.954   0.0731   0.6519     H
H        0.954   0.0731   0.8481     H
Pr     0.95741  0.48494  0.07022    Pr
Pr     0.95741  0.48494  0.42978    Pr
H       0.9624   0.8536   0.1519     H
H       0.9624   0.8536   0.3481     H
H       0.9668   0.1528   0.6324     H
H       0.9668   0.1528   0.8676     H
H       0.9687   0.2394   0.6344     H
H       0.9687   0.2394   0.8656     H
C       0.9697   0.1488   0.7059     C
C       0.9697   0.1488   0.7941     C
C       0.9825   0.1272     0.75     C
C       0.9832   0.1285   0.6561     C
C       0.9832   0.1285   0.8439     C
