data_I
_chemical_name_common  '/home/zhangsd/repos/MofS-CGCNN/ML/data/TSD/clean_cifs/PASNEE_clean'
_cell_length_a  8.38630
_cell_length_b  9.52190
_cell_length_c 27.08760
_cell_angle_alpha 83.10510
_cell_angle_beta  81.09480
_cell_angle_gamma 63.87250
_space_group_name_H-M_alt      'P 1'


loop_
_space_group_symop_operation_xyz
  'x, y, z' 

loop_
_atom_site_label
_atom_site_fract_x
_atom_site_fract_y
_atom_site_fract_z
_atom_site_type_symbol
H       0.0205    0.785   0.5492     H
H       0.0316   0.5954   0.6178     H
C        0.035  0.93132  0.59508     C
H       0.0362   0.3027   0.3085     H
C       0.0489  0.72568  0.66852     C
H       0.0571    0.982   0.4224     H
C      0.06592  0.11713  0.35883     C
Cu     0.10587  0.13551  0.22443    Cu
C       0.1217  0.79717  0.55863     C
O      0.12915  0.58122  0.07808     O
O      0.13345  0.79271  0.74099     O
C       0.1344  0.59809  0.62991     C
C      0.14783  0.00038  0.61196     C
H       0.1526   0.1395   0.3729     H
O      0.16039  0.42202   0.6994     O
O      0.16314  0.99843  0.65569     O
C      0.18186  0.97689  0.32719     C
O      0.18274  0.49843  0.15569     O
H        0.184   0.5652     0.05     H
C      0.18527  0.72213  0.70093     C
H       0.2008   0.0652     0.55     H
O      0.20656  0.97052  0.49916     O
O      0.21155  0.08122  0.57808     O
C      0.21302  0.83555  0.50921     C
O      0.21844  0.99683  0.28009     O
C      0.22589  0.43754  0.65588     C
O      0.22591  0.24087  0.08411     O
Cu     0.23801     0.25     0.75    Cu
C      0.23983  0.50038  0.11196     C
C      0.23986  0.63461  0.58167     C
H       0.2448   0.9046   0.8822     H
O      0.25111  0.84635  0.34983     O
H       0.2568   0.5585   0.5577     H
O      0.28181  0.07798   0.8006     O
O      0.28574  0.72741  0.47911     O
O      0.30715  0.17573  0.86697     O
C      0.31931  0.06246  0.84412     C
O      0.32376  0.47052  0.99916     O
O      0.32538   0.1397  0.18754     O
O      0.33285  0.29271  0.24099     O
H        0.335   0.6395   0.8729     H
O      0.34738   0.6397  0.68754     O
O      0.34985  0.32427  0.63303     O
H       0.3526   0.8027   0.8085     H
H       0.3547    0.715   0.9508     H
C       0.3624  0.90191  0.87009     C
C      0.36751  0.11993  0.08645     C
O       0.3724  0.98321  0.08939     O
H        0.373   0.9415   0.9423     H
C      0.39167  0.22213  0.20093     C
Cu     0.41836  0.21066  0.91822    Cu
C      0.42611  0.61993  0.58645     C
C       0.4386  0.43132  0.09508     C
C      0.44222  0.33555  0.00921     C
C       0.4431  0.77432  0.83148     C
O        0.445  0.51679  0.41061     O
O      0.44729  0.65365  0.15017     O
O      0.44911  0.74087  0.58411     O
Cu     0.45276  0.71066  0.41822    Cu
C      0.45614  0.86539  0.91833     C
C      0.45812  0.61713  0.85883     C
H       0.4615    0.518   0.0776     H
Cu     0.46581  0.36449  0.27557    Cu
C       0.4775  0.70283  0.94137     C
C      0.48594  0.52311  0.17281     C
O      0.49226  0.77259  0.02089     O
O      0.49536  0.50317  0.21991     O
O      0.50464  0.49683  0.78009     O
O      0.50774  0.22741  0.97911     O
C      0.51406  0.47689  0.82719     C
C       0.5225  0.29717  0.05863     C
Cu     0.53419  0.63551  0.72443    Cu
H       0.5385    0.482   0.9224     H
C      0.54188  0.38287  0.14117     C
C      0.54386  0.13461  0.08167     C
Cu     0.54724  0.28934  0.58178    Cu
O      0.55089  0.25913  0.41589     O
O      0.55271  0.34635  0.84983     O
O        0.555  0.48321  0.58939     O
C       0.5569  0.22568  0.16852     C
C      0.55778  0.66445  0.99079     C
C       0.5614  0.56868  0.90492     C
C      0.57389  0.38007  0.41355     C
Cu     0.58164  0.78934  0.08178    Cu
C      0.60833  0.77787  0.79907     C
H        0.627   0.0585   0.0577     H
O       0.6276  0.01679  0.91061     O
C      0.63249  0.88007  0.91355     C
C       0.6376  0.09809  0.12991     C
H       0.6453    0.285   0.0492     H
H       0.6474   0.1973   0.1915     H
O      0.65015  0.67573  0.36697     O
O      0.65262   0.3603  0.31246     O
H        0.665   0.3605   0.1271     H
O      0.66715  0.70729  0.75901     O
O      0.67462   0.8603  0.81246     O
O      0.67624  0.52948  0.00084     O
C      0.68069  0.93754  0.15588     C
O      0.69285  0.82427  0.13303     O
O      0.71426  0.27259  0.52089     O
O      0.71819  0.92202   0.1994     O
H       0.7432   0.4415   0.4423     H
O      0.74889  0.15365  0.65017     O
H       0.7552   0.0954   0.1178     H
C      0.76014  0.36539  0.41833     C
C      0.76017  0.49962  0.88804     C
Cu     0.76199     0.75     0.25    Cu
O      0.77409  0.75913  0.91589     O
C      0.77411  0.56246  0.34412     C
O      0.78156  0.00317  0.71991     O
C      0.78698  0.16445  0.49079     C
O      0.78845  0.91878  0.42192     O
O      0.79344  0.02948  0.50084     O
H       0.7992   0.9348     0.45     H
C      0.81473  0.27787  0.29907     C
H        0.816   0.4348     0.95     H
O      0.81726  0.50157  0.84431     O
C      0.81814  0.02311  0.67281     C
O      0.83686  0.00157  0.34431     O
O      0.83961  0.57798   0.3006     O
H       0.8474   0.8605   0.6271     H
C      0.85217  0.99962  0.38804     C
C       0.8656  0.40191  0.37009     C
O      0.86655  0.20729  0.25901     O
O      0.87085  0.41878  0.92192     O
C       0.8783  0.20283  0.44137     C
Cu     0.89413  0.86449  0.77557    Cu
C      0.93408  0.88287  0.64117     C
H       0.9429    0.018   0.5776     H
C       0.9511  0.27432  0.33148     C
H       0.9638   0.6973   0.6915     H
C        0.965  0.06868  0.40492     C
H       0.9684   0.4046   0.3822     H
H       0.9795    0.215   0.4508     H
