data_I
_chemical_name_common  '/home/zhangsd/repos/MofS-CGCNN/ML/data/TSD/clean_cifs/PASTOU_clean'
_cell_length_a 13.90170
_cell_length_b 13.90170
_cell_length_c 13.90170
_cell_angle_alpha 108.01700
_cell_angle_beta  108.01700
_cell_angle_gamma 108.01700
_space_group_name_H-M_alt      'P 1'


loop_
_space_group_symop_operation_xyz
  'x, y, z' 

loop_
_atom_site_label
_atom_site_fract_x
_atom_site_fract_y
_atom_site_fract_z
_atom_site_type_symbol
H       0.0049   0.0051   0.3988     H
H       0.0051   0.3988   0.0049     H
H       0.0231   0.4556   0.8692     H
C       0.0293   0.6169   0.1514     C
Cd     0.03525  0.52187  0.38388    Cd
Cl     0.03585  0.38151  0.47462    Cl
C       0.0403   0.6514   0.0714     C
H        0.046    0.123    0.781     H
C       0.0714   0.0403   0.6514     C
H       0.0913   0.7668   0.7602     H
C       0.0993   0.6943    0.265     C
C       0.1023   0.1181   0.7599     C
N       0.1071   0.6832   0.3628     N
H       0.1082    0.385   0.7252     H
C       0.1181   0.7599   0.1023     C
H        0.123    0.781    0.046     H
H       0.1308   0.9769   0.5444     H
N       0.1395   0.5868   0.7651     N
H       0.1436   0.2596    0.574     H
C       0.1514   0.0293   0.6169     C
H       0.1572   0.7965   0.5822     H
C       0.1636   0.7868   0.8125     C
C       0.1772   0.8026   0.2948     C
C       0.1875   0.8364   0.2132     C
C       0.1882   0.4313   0.7765     C
C       0.1886   0.7846   0.4463     C
C       0.1974   0.7052   0.8228     C
H       0.2035   0.4178   0.8428     H
C       0.2132   0.1875   0.8364     C
C       0.2154   0.5537   0.8114     C
C       0.2189   0.3105   0.6233     C
H        0.219    0.954    0.877     H
C       0.2235   0.8118   0.5687     C
N       0.2272    0.631   0.5463     N
H       0.2332   0.2398   0.9087     H
N       0.2349   0.8605   0.4132     N
H       0.2398   0.9087   0.2332     H
C       0.2401   0.8977   0.8819     C
N        0.254   0.3973    0.721     N
H       0.2596    0.574   0.1436     H
C        0.265   0.0993   0.6943     C
H       0.2748   0.8918    0.615     H
N        0.279    0.746   0.6027     N
H       0.2886   0.5307   0.5858     H
C       0.2948   0.1772   0.8026     C
C       0.3007    0.605   0.6047     C
C       0.3057    0.735   0.9007     C
N       0.3064   0.6056   0.3067     N
N       0.3067   0.3064   0.6056     N
C       0.3105   0.6233   0.2189     C
N       0.3168   0.6372   0.8929     N
C       0.3486   0.9286   0.9597     C
N       0.3628   0.1071   0.6832     N
N        0.369   0.4537   0.7728     N
C       0.3767   0.7811   0.6895     C
Cl     0.38151  0.47462  0.03585    Cl
C       0.3831   0.8486   0.9707     C
Cd     0.38388  0.03525  0.52187    Cd
H        0.385   0.7252   0.1082     H
N       0.3944   0.6933   0.6936     N
C        0.395   0.3953   0.6993     C
C       0.3953   0.6993    0.395     C
N       0.3973    0.721    0.254     N
H       0.3988   0.0049   0.0051     H
N       0.4132   0.2349   0.8605     N
H       0.4142   0.7114   0.4693     H
H       0.4178   0.8428   0.2035     H
H        0.426   0.8564   0.7404     H
C       0.4313   0.7765   0.1882     C
C       0.4463   0.1886   0.7846     C
N       0.4537   0.7728    0.369     N
H       0.4556   0.8692   0.0231     H
H       0.4693   0.4142   0.7114     H
Cl     0.47462  0.03585  0.38151    Cl
Cd     0.47813  0.61612  0.96475    Cd
Cd     0.52187  0.38388  0.03525    Cd
Cl     0.52538  0.96415  0.61849    Cl
H       0.5307   0.5858   0.2886     H
H       0.5444   0.1308   0.9769     H
N       0.5463   0.2272    0.631     N
C       0.5537   0.8114   0.2154     C
C       0.5687   0.2235   0.8118     C
H        0.574   0.1436   0.2596     H
H       0.5822   0.1572   0.7965     H
H       0.5858   0.2886   0.5307     H
N       0.5868   0.7651   0.1395     N
H       0.6012   0.9951   0.9949     H
N       0.6027    0.279    0.746     N
C       0.6047   0.3007    0.605     C
C        0.605   0.6047   0.3007     C
N       0.6056   0.3067   0.3064     N
H        0.615   0.2748   0.8918     H
Cd     0.61612  0.96475  0.47813    Cd
C       0.6169   0.1514   0.0293     C
Cl     0.61849  0.52538  0.96415    Cl
C       0.6233   0.2189   0.3105     C
N        0.631   0.5463   0.2272     N
N       0.6372   0.8929   0.3168     N
C       0.6514   0.0714   0.0403     C
N       0.6832   0.3628   0.1071     N
C       0.6895   0.3767   0.7811     C
N       0.6933   0.6936   0.3944     N
N       0.6936   0.3944   0.6933     N
C       0.6943    0.265   0.0993     C
C       0.6993    0.395   0.3953     C
C       0.7052   0.8228   0.1974     C
H       0.7114   0.4693   0.4142     H
N        0.721    0.254   0.3973     N
H       0.7252   0.1082    0.385     H
C        0.735   0.9007   0.3057     C
H       0.7404    0.426   0.8564     H
N        0.746   0.6027    0.279     N
C       0.7599   0.1023   0.1181     C
H       0.7602   0.0913   0.7668     H
N       0.7651   0.1395   0.5868     N
H       0.7668   0.7602   0.0913     H
N       0.7728    0.369   0.4537     N
C       0.7765   0.1882   0.4313     C
H        0.781    0.046    0.123     H
C       0.7811   0.6895   0.3767     C
C       0.7846   0.4463   0.1886     C
C       0.7868   0.8125   0.1636     C
H       0.7965   0.5822   0.1572     H
C       0.8026   0.2948   0.1772     C
C       0.8114   0.2154   0.5537     C
C       0.8118   0.5687   0.2235     C
C       0.8125   0.1636   0.7868     C
C       0.8228   0.1974   0.7052     C
C       0.8364   0.2132   0.1875     C
H       0.8428   0.2035   0.4178     H
C       0.8486   0.9707   0.3831     C
H       0.8564   0.7404    0.426     H
N       0.8605   0.4132   0.2349     N
H       0.8692   0.0231   0.4556     H
H        0.877    0.219    0.954     H
C       0.8819   0.2401   0.8977     C
H       0.8918    0.615   0.2748     H
N       0.8929   0.3168   0.6372     N
C       0.8977   0.8819   0.2401     C
C       0.9007   0.3057    0.735     C
H       0.9087   0.2332   0.2398     H
C       0.9286   0.9597   0.3486     C
H        0.954    0.877    0.219     H
C       0.9597   0.3486   0.9286     C
Cl     0.96415  0.61849  0.52538    Cl
Cd     0.96475  0.47813  0.61612    Cd
C       0.9707   0.3831   0.8486     C
H       0.9769   0.5444   0.1308     H
H       0.9949   0.6012   0.9951     H
H       0.9951   0.9949   0.6012     H
