data_I
_chemical_name_common  '/home/zhangsd/repos/MofS-CGCNN/ML/data/TSD/clean_cifs/PATNAB_clean'
_cell_length_a  9.93900
_cell_length_b 14.02100
_cell_length_c 20.34100
_cell_angle_alpha 90.00000
_cell_angle_beta  107.32500
_cell_angle_gamma 90.00000
_space_group_name_H-M_alt      'P 1'


loop_
_space_group_symop_operation_xyz
  'x, y, z' 

loop_
_atom_site_label
_atom_site_fract_x
_atom_site_fract_y
_atom_site_fract_z
_atom_site_type_symbol
N       0.0073    0.661   0.8045     N
N       0.0073    0.839   0.3045     N
N       0.0302   0.0704   0.6159     N
N       0.0302   0.4296   0.1159     N
N       0.0867   0.1329   0.6683     N
N       0.0867   0.3671   0.1683     N
C       0.1027   0.5588   0.8866     C
C       0.1027   0.9412   0.3866     C
N       0.1272   0.6164   0.8376     N
N       0.1272   0.8836   0.3376     N
Ag     0.15706  0.02776  0.54759    Ag
Ag     0.15706  0.47224  0.04759    Ag
H        0.159    0.638   0.2214     H
H        0.159    0.862   0.7214     H
H       0.2047   0.5322   0.2154     H
H       0.2047   0.9678   0.7154     H
S       0.2232  0.01753  0.44083     S
S       0.2232  0.48247  0.94083     S
C       0.2322   0.5918   0.2387     C
C       0.2322   0.9082   0.7387     C
H       0.2338   0.6782   0.7806     H
H       0.2338   0.8218   0.2806     H
H       0.2476   0.5832   0.2872     H
H       0.2476   0.9168   0.7872     H
C        0.254   0.6337   0.8181     C
C        0.254   0.8663   0.3181     C
H       0.2864   0.5748   0.8041     H
H       0.2864   0.9252   0.3041     H
Ag      0.2994  0.12956  0.36485    Ag
Ag      0.2994  0.37044  0.86485    Ag
H       0.3257   0.6595   0.8567     H
H       0.3257   0.8405   0.3567     H
Ag     0.32829  0.15419  0.71823    Ag
Ag     0.32829  0.34581  0.21823    Ag
N        0.362   0.6252   0.2268     N
N        0.362   0.8748   0.7268     N
S       0.4093  0.02089   0.6461     S
S       0.4093  0.47911   0.1461     S
N       0.4215   0.7083   0.2548     N
N       0.4215   0.7917   0.7548     N
C       0.4379   0.5871   0.1888     C
C       0.4379   0.9129   0.6888     C
N       0.4546   0.1456   0.3071     N
N       0.4546   0.3544   0.8071     N
N        0.469   0.2194   0.2651     N
N        0.469   0.2806   0.7651     N
N        0.531   0.7194   0.2349     N
N        0.531   0.7806   0.7349     N
N       0.5454   0.6456   0.1929     N
N       0.5454   0.8544   0.6929     N
C       0.5621   0.0871   0.3112     C
C       0.5621   0.4129   0.8112     C
N       0.5785   0.2083   0.2452     N
N       0.5785   0.2917   0.7452     N
S       0.5907  0.52089   0.8539     S
S       0.5907  0.97911   0.3539     S
N        0.638   0.1252   0.2732     N
N        0.638   0.3748   0.7732     N
Ag     0.67171  0.65419  0.78177    Ag
Ag     0.67171  0.84581  0.28177    Ag
H       0.6743   0.1595   0.6433     H
H       0.6743   0.3405   0.1433     H
Ag      0.7006  0.62956  0.13515    Ag
Ag      0.7006  0.87044  0.63515    Ag
H       0.7136   0.0748   0.6959     H
H       0.7136   0.4252   0.1959     H
C        0.746   0.1337   0.6819     C
C        0.746   0.3663   0.1819     C
H       0.7524   0.0832   0.2128     H
H       0.7524   0.4168   0.7128     H
H       0.7662   0.1782   0.7194     H
H       0.7662   0.3218   0.2194     H
C       0.7678   0.0918   0.2613     C
C       0.7678   0.4082   0.7613     C
S       0.7768  0.51753  0.05917     S
S       0.7768  0.98247  0.55917     S
H       0.7953   0.0322   0.2846     H
H       0.7953   0.4678   0.7846     H
H        0.841    0.138   0.2786     H
H        0.841    0.362   0.7786     H
Ag     0.84294  0.52776  0.95241    Ag
Ag     0.84294  0.97224  0.45241    Ag
N       0.8728   0.1164   0.6624     N
N       0.8728   0.3836   0.1624     N
C       0.8973   0.0588   0.6134     C
C       0.8973   0.4412   0.1134     C
N       0.9133   0.6329   0.8317     N
N       0.9133   0.8671   0.3317     N
N       0.9698   0.5704   0.8841     N
N       0.9698   0.9296   0.3841     N
N       0.9927    0.161   0.6955     N
N       0.9927    0.339   0.1955     N
