data_I
_chemical_name_common  '/home/zhangsd/repos/MofS-CGCNN/ML/data/TSD/clean_cifs/PATWOY_clean'
_cell_length_a  9.47100
_cell_length_b 17.35790
_cell_length_c 19.68310
_cell_angle_alpha 76.22700
_cell_angle_beta  83.23200
_cell_angle_gamma 88.40700
_space_group_name_H-M_alt      'P 1'


loop_
_space_group_symop_operation_xyz
  'x, y, z' 

loop_
_atom_site_label
_atom_site_fract_x
_atom_site_fract_y
_atom_site_fract_z
_atom_site_type_symbol
Zn         0.0      0.5      0.0    Zn
C       0.0012    0.832   0.8369     C
O       0.0258  0.11465  0.92571     O
C       0.0292   0.2145   0.2079     C
H       0.0317   0.7441   0.7858     H
O       0.0392  0.49236  0.10182     O
H       0.0463   0.6059   0.4414     H
C       0.0476   0.5489   0.1989     C
C         0.05   0.4058   0.5469     C
C       0.0506   0.6103   0.2962     C
O       0.0521   0.9248  0.92695     O
C       0.0572   0.5032   0.7617     C
C       0.0586   0.4394   0.6648     C
C       0.0602   0.0593   0.1007     C
H        0.061    0.385   0.4504     H
H        0.075   0.2531   0.8566     H
H       0.0767   0.3324   0.0728     H
H       0.0818   0.8213   0.8604     H
C       0.0872   0.1059   0.1531     C
H       0.0886   0.6479   0.3156     H
H        0.093   0.5417   0.7808     H
C       0.0973   0.5459   0.1241     C
C       0.1029   0.6042    0.229     C
C       0.1077   0.4979   0.6944     C
C       0.1144   0.3999   0.4819     C
C       0.1253   0.4291   0.5959     C
Zn     0.13134  0.95381  0.01047    Zn
H       0.1338   0.3552   0.2188     H
C       0.1485   0.2006   0.2434     C
O       0.1529  0.01141  0.08719     O
C        0.154   0.3416   0.0382     C
N       0.1578   0.4089  0.99084     N
C       0.1579   0.1076    0.914     C
C       0.1712   0.2478   0.8423     C
C       0.1736    0.336   0.2606     C
H       0.1758   0.6377   0.2037     H
H        0.176   0.5339   0.6682     H
H        0.179   0.7811   0.0596     H
O       0.1867   0.5943  0.08944     O
C       0.1887    0.255   0.2859     C
H       0.1969   0.3596   0.7861     H
C       0.2049   0.0885   0.1909     C
H       0.2066   0.4436   0.2801     H
C       0.2178   0.3893   0.2973     C
O       0.2288  0.04778   0.9399     O
C       0.2335   0.1346   0.2362     C
C       0.2377   0.1753   0.8646     C
C       0.2441   0.3116   0.7996     C
C       0.2473   0.2268   0.3494     C
H       0.2504   0.2367   0.0761     H
H        0.256   0.1726   0.3676     H
C       0.2571   0.2829   0.0404     C
C       0.2582   0.4159    0.463     C
H       0.2639    0.046   0.1856     H
C       0.2681     0.42   0.9408     C
C       0.2709   0.7978   0.0409     C
C       0.2721   0.4431   0.5767     C
H       0.2721   0.4671   0.9062     H
C       0.2783   0.3607   0.3591     C
C       0.2923   0.2796   0.3849     C
N       0.2952  0.87562  0.01527     N
H       0.2954   0.5655   0.4026     H
H       0.3101   0.1218   0.2624     H
H        0.326   0.4581    0.608     H
N       0.3269  0.41573  0.39502     N
H       0.3324   0.2606   0.4267     H
C       0.3368   0.4351   0.5126     C
H       0.3551   0.6882   0.0593     H
C       0.3638   0.5606   0.3658     C
H        0.367   0.4579   0.7794     H
H        0.368    0.136   0.0315     H
C        0.371   0.2954   0.9872     C
C        0.375   0.3667   0.9371     C
C       0.3763   0.7416   0.0408     C
C       0.3822   0.1688   0.8407     C
C       0.3888   0.3062   0.7759     C
C       0.3949   0.4859   0.3543     C
H       0.4078   0.6769   0.3338     H
H       0.4291   0.1208   0.8546     H
C       0.4293   0.8988   0.9882     C
C       0.4311   0.6277   0.3245     C
H       0.4345   0.4425   0.5019     H
C       0.4355   0.4529   0.7427     C
H       0.4474   0.9526   0.9699     H
H       0.4498   0.7736   0.2187     H
H       0.4501    0.378   0.9013     H
C       0.4549   0.2323   0.7971     C
C       0.4595   0.1541   0.0132     C
C       0.4661   0.3773   0.7311     C
H         0.48   0.5678   0.7121     H
C       0.4863   0.2352   0.9869     C
C       0.4977   0.4813   0.2976     C
C       0.5023   0.5187   0.7024     C
C       0.5137   0.7648   0.0131     C
H         0.52   0.4322   0.2879     H
C       0.5339   0.6227   0.2689     C
C       0.5405   0.8459   0.9868     C
C       0.5451   0.7677   0.2029     C
H       0.5499    0.622   0.0987     H
H       0.5502   0.2264   0.7813     H
H       0.5526   0.0474   0.0301     H
C       0.5645   0.5471   0.2573     C
H       0.5655   0.5575   0.4981     H
C       0.5689   0.3723   0.6755     C
C       0.5707   0.1012   0.0118     C
H       0.5709   0.8792   0.1454     H
H       0.5922   0.3231   0.6662     H
C       0.6051   0.5141   0.6457     C
C       0.6112   0.6938   0.2241     C
C       0.6178   0.8312   0.1593     C
C       0.6237   0.2584   0.9592     C
C        0.625   0.6333   0.0629     C
C        0.629   0.7046   0.0128     C
H        0.632    0.864   0.9685     H
H        0.633   0.5421   0.2206     H
C       0.6362   0.4394   0.6342     C
H       0.6449   0.3118   0.9407     H
C       0.6632   0.5649   0.4874     C
H       0.6676   0.7394   0.5733     H
N       0.6731  0.58427  0.60498     N
H        0.674   0.5419    0.392     H
H       0.6899   0.8782   0.7376     H
H       0.7046   0.4345   0.5974     H
N       0.7048  0.12438  0.98473     N
C       0.7077   0.7204   0.6151     C
C       0.7217   0.6393   0.6409     C
H       0.7279   0.5329   0.0938     H
C       0.7279   0.5569   0.4233     C
C       0.7291   0.2022   0.9591     C
C       0.7319     0.58   0.0592     C
H       0.7361    0.954   0.8144     H
C       0.7418   0.5841    0.537     C
C       0.7429   0.7171   0.9596     C
H        0.744   0.8274   0.6324     H
H       0.7496   0.7633   0.9239     H
C       0.7527   0.7732   0.6506     C
C       0.7559   0.6884   0.2004     C
C       0.7623   0.8247   0.1354     C
C       0.7665   0.8654   0.7638     C
O       0.7712  0.95222   0.0601     O
C       0.7822   0.6107   0.7027     C
H       0.7934   0.5564   0.7199     H
C       0.7951   0.9115   0.8091     C
H       0.8031   0.6404   0.2139     H
C       0.8113    0.745   0.7141     C
O       0.8133   0.4057  0.91056     O
H        0.821   0.2189   0.9404     H
H        0.824   0.4661   0.3318     H
H       0.8242   0.3623   0.7963     H
C       0.8264    0.664   0.7394     C
C       0.8288   0.7522   0.1577     C
C       0.8421   0.8924    0.086     C
N       0.8422   0.5911  0.00916     N
C        0.846   0.6584   0.9618     C
O       0.8471  0.98859  0.91281     O
C       0.8515   0.7994   0.7566     C
H       0.8662   0.6448   0.7812     H
Zn     0.86866  0.04619  0.98953    Zn
C       0.8747   0.5709   0.4041     C
C       0.8856   0.6001   0.5181     C
C       0.8923   0.5021   0.3056     C
C       0.8971   0.3958    0.771     C
C       0.9027   0.4541   0.8759     C
H        0.907   0.4583   0.2192     H
H       0.9114   0.3521   0.6844     H
C       0.9128   0.8941   0.8469     C
H       0.9182   0.1787   0.1396     H
H       0.9233   0.6676   0.9272     H
H        0.925   0.7469   0.1434     H
H        0.939    0.615   0.5496     H
C       0.9398   0.9407   0.8993     C
C       0.9414   0.5606   0.3352     C
C       0.9428   0.4968   0.2383     C
O       0.9479   0.0752  0.07305     O
C       0.9494   0.3897   0.7038     C
C         0.95   0.5942   0.4531     C
C       0.9524   0.4511   0.8011     C
H       0.9537   0.3941   0.5586     H
O       0.9608  0.50764  0.89818     O
H       0.9683   0.2559   0.2142     H
C       0.9708   0.7855   0.7921     C
O       0.9742  0.88535  0.07429     O
C       0.9988    0.168   0.1631     C
