data_I
_chemical_name_common  '/home/zhangsd/repos/MofS-CGCNN/ML/data/TSD/clean_cifs/PEDMER_clean'
_cell_length_a 10.02200
_cell_length_b 10.18200
_cell_length_c 10.61900
_cell_angle_alpha 72.98300
_cell_angle_beta  62.18200
_cell_angle_gamma 63.99700
_space_group_name_H-M_alt      'P 1'


loop_
_space_group_symop_operation_xyz
  'x, y, z' 

loop_
_atom_site_label
_atom_site_fract_x
_atom_site_fract_y
_atom_site_fract_z
_atom_site_type_symbol
O       0.0316   0.4893   0.6938     O
P      0.14546  0.45748  0.28405     P
O       0.1661   0.4982   0.3967     O
Cu     0.22877  0.49947  0.53742    Cu
O       0.2312   0.2936   0.2694     O
C       0.2375    0.556   0.1177     C
H        0.241    0.458    0.982     H
Cu     0.24864  0.14313   0.1863    Cu
O       0.2667   0.5603   0.6707     O
H        0.269    0.688    0.207     H
C       0.2741   0.5186   0.9877     C
C       0.2776   0.6719   0.1177     C
O       0.2789   0.9653   0.1265     O
C       0.3558   0.7447   0.9886     C
C       0.3565   0.5869   0.8582     C
C       0.3977      0.7   0.8592     C
P      0.40728  0.89079  0.99253     P
P      0.42056  0.51449  0.69549     P
O       0.4225   0.9862   0.8497     O
O       0.4273   0.1735   0.9947     O
Cu     0.42925  0.18211  0.80104    Cu
H        0.453    0.749    0.783     H
O        0.459   0.4173   0.4241     O
O       0.4995   0.6528   0.2814     O
O       0.5005   0.3472   0.7186     O
O        0.541   0.5827   0.5759     O
H        0.547    0.251    0.217     H
Cu     0.57075  0.81789  0.19896    Cu
O       0.5727   0.8265   0.0053     O
O       0.5775   0.0138   0.1503     O
P      0.57944  0.48551  0.30451     P
P      0.59272  0.10921  0.00747     P
C       0.6023      0.3   0.1408     C
C       0.6435   0.4131   0.1418     C
C       0.6442   0.2553   0.0114     C
O       0.7211   0.0347   0.8735     O
C       0.7224   0.3281   0.8823     C
C       0.7259   0.4814   0.0123     C
H        0.731    0.312    0.793     H
O       0.7333   0.4397   0.3293     O
Cu     0.75136  0.85687   0.8137    Cu
H        0.759    0.542    0.018     H
C       0.7625    0.444   0.8823     C
O       0.7688   0.7064   0.7306     O
Cu     0.77123  0.50053  0.46258    Cu
O       0.8339   0.5018   0.6033     O
P      0.85454  0.54252  0.71595     P
O       0.9684   0.5107   0.3062     O
