data_I
_chemical_name_common  '/home/zhangsd/repos/MofS-CGCNN/ML/data/TSD/clean_cifs/PEFRID01_clean'
_cell_length_a 11.35100
_cell_length_b 27.09510
_cell_length_c 17.01840
_cell_angle_alpha 98.21800
_cell_angle_beta  90.00000
_cell_angle_gamma 90.00000
_space_group_name_H-M_alt      'P 1'


loop_
_space_group_symop_operation_xyz
  'x, y, z' 

loop_
_atom_site_label
_atom_site_fract_x
_atom_site_fract_y
_atom_site_fract_z
_atom_site_type_symbol
C       0.0003   0.5829   0.7621     C
C       0.0011  0.96368   0.1712     C
H        0.003   0.0385   0.2754     H
H       0.0044   0.6318   0.6093     H
C       0.0079    0.975   0.5059     C
N       0.0089   0.0716   0.8963     N
N       0.0101   0.4412   0.4357     N
H       0.0141   0.3819   0.9561     H
C       0.0145    0.524    0.498     C
C       0.0147  0.51329   0.8351     C
C       0.0157   0.6038   0.0863     C
N       0.0184    0.444   0.9029     N
C       0.0209   0.6085    0.565     C
C       0.0226   0.4668   0.2315     C
C       0.0232   0.9527   0.7724     C
H       0.0246   0.4038   0.2825     H
C       0.0262   0.5347   0.1606     C
C       0.0294   0.0927   0.4201     C
H        0.032   0.8784   0.7357     H
H        0.036   0.8582   0.0567     H
C       0.0414  0.98927   0.8373     C
C       0.0427   0.8817   0.1018     C
C       0.0442   0.9029   0.7791     C
N       0.0526   0.0445   0.4345     N
C       0.0542  0.87844   0.5347     C
O       0.0543   0.8166   0.6161     O
C       0.0605  0.61262   0.8224     C
O       0.0613    0.805   0.8016     O
C       0.0627   0.9523   0.2369     C
H       0.0629   0.4867   0.2719     H
H       0.0694   0.9759   0.2821     H
H       0.0698   0.1057   0.3801     H
C         0.07   0.5389   0.4325     C
N       0.0749    0.543   0.8954     N
O       0.0758   0.6952   0.8791     O
C       0.0764   0.6234   0.4995     C
C       0.0803   0.6656   0.8115     C
N       0.0805   0.9761   0.9089     N
C       0.0831   0.8277   0.5517     C
C       0.0833  0.88972   0.8507     C
H       0.0864   0.5157   0.3882     H
O       0.0891   0.6779    0.746     O
C       0.0915   0.9462   0.4606     C
C       0.0921   0.8357    0.858     C
C       0.0944   0.6304   0.1389     C
C       0.0978   0.5927    0.889     C
O       0.1004    0.703   0.5682     O
C        0.101   0.5886   0.4332     C
C       0.1015   0.9263   0.9156     C
C       0.1043   0.8703   0.1675     C
C       0.1048   0.5612   0.2132     C
C       0.1143   0.9056    0.235     C
C       0.1147   0.8979    0.475     C
C       0.1202   0.6756   0.5041     C
O        0.123    0.689   0.0535     O
Sm     0.12356  0.75181  0.69044    Sm
H       0.1277   0.9175   0.9634     H
H       0.1319   0.9592   0.4207     H
H       0.1346    0.547   0.2556     H
H       0.1381   0.5986   0.3894     H
H       0.1381   0.6126   0.9294     H
O       0.1382   0.8254     0.92     O
C       0.1389   0.6091   0.2024     C
O       0.1411   0.8008   0.4976     O
C        0.143   0.6783   0.1203     C
H       0.1555   0.8979   0.2789     H
O       0.1706   0.7966   0.1011     O
H       0.1706   0.8786   0.4448     H
O       0.1715   0.6866   0.4445     O
C       0.1742   0.8236   0.1646     C
Sm     0.18661  0.75088  0.96983    Sm
H       0.1915   0.6268   0.2376     H
O       0.1987   0.7031   0.1759     O
O       0.2258   0.8152    0.223     O
O       0.2742   0.8152    0.723     O
O       0.3013   0.7031   0.6759     O
H       0.3085   0.6268   0.7376     H
Sm     0.31339  0.75088  0.46983    Sm
C       0.3258   0.8236   0.6646     C
O       0.3285   0.6866   0.9445     O
O       0.3294   0.7966   0.6011     O
H       0.3294   0.8786   0.9448     H
H       0.3445   0.8979   0.7789     H
C        0.357   0.6783   0.6203     C
O       0.3589   0.8008   0.9976     O
C       0.3611   0.6091   0.7024     C
O       0.3618   0.8254     0.42     O
H       0.3619   0.5986   0.8894     H
H       0.3619   0.6126   0.4294     H
H       0.3654    0.547   0.7556     H
H       0.3681   0.9592   0.9207     H
H       0.3723   0.9175   0.4634     H
Sm     0.37644  0.75181  0.19044    Sm
O        0.377    0.689   0.5535     O
C       0.3798   0.6756   0.0041     C
C       0.3853   0.8979    0.975     C
C       0.3857   0.9056    0.735     C
C       0.3952   0.5612   0.7132     C
C       0.3957   0.8703   0.6675     C
C       0.3985   0.9263   0.4156     C
C        0.399   0.5886   0.9332     C
O       0.3996    0.703   0.0682     O
C       0.4022   0.5927    0.389     C
C       0.4056   0.6304   0.6389     C
C       0.4079   0.8357    0.358     C
C       0.4085   0.9462   0.9606     C
O       0.4109   0.6779    0.246     O
H       0.4136   0.5157   0.8882     H
C       0.4167  0.88972   0.3507     C
C       0.4169   0.8277   0.0517     C
N       0.4195   0.9761   0.4089     N
C       0.4197   0.6656   0.3115     C
C       0.4236   0.6234   0.9995     C
O       0.4242   0.6952   0.3791     O
N       0.4251    0.543   0.3954     N
C         0.43   0.5389   0.9325     C
H       0.4302   0.1057   0.8801     H
H       0.4306   0.9759   0.7821     H
H       0.4371   0.4867   0.7719     H
C       0.4373   0.9523   0.7369     C
O       0.4387    0.805   0.3016     O
C       0.4395  0.61262   0.3224     C
O       0.4457   0.8166   0.1161     O
C       0.4458  0.87844   0.0347     C
N       0.4474   0.0445   0.9345     N
C       0.4558   0.9029   0.2791     C
C       0.4573   0.8817   0.6018     C
C       0.4586  0.98927   0.3373     C
H        0.464   0.8582   0.5567     H
H        0.468   0.8784   0.2357     H
C       0.4706   0.0927   0.9201     C
C       0.4738   0.5347   0.6606     C
H       0.4754   0.4038   0.7825     H
C       0.4768   0.9527   0.2724     C
C       0.4774   0.4668   0.7315     C
C       0.4791   0.6085    0.065     C
N       0.4816    0.444   0.4029     N
C       0.4843   0.6038   0.5863     C
C       0.4853  0.51329   0.3351     C
C       0.4855    0.524    0.998     C
H       0.4859   0.3819   0.4561     H
N       0.4899   0.4412   0.9357     N
N       0.4911   0.0716   0.3963     N
C       0.4921    0.975   0.0059     C
H       0.4956   0.6318   0.1093     H
H        0.497   0.0385   0.7754     H
C       0.4989  0.96368   0.6712     C
C       0.4997   0.5829   0.2621     C
C       0.5003   0.4171   0.7379     C
C       0.5011  0.03632   0.3288     C
H        0.503   0.9615   0.2246     H
H       0.5044   0.3682   0.8907     H
C       0.5079    0.025   0.9941     C
N       0.5089   0.9284   0.6037     N
N       0.5101   0.5588   0.0643     N
H       0.5141   0.6181   0.5439     H
C       0.5145    0.476    0.002     C
C       0.5147  0.48671   0.6649     C
C       0.5157   0.3962   0.4137     C
N       0.5184    0.556   0.5971     N
C       0.5209   0.3915    0.935     C
C       0.5226   0.5332   0.2685     C
C       0.5232   0.0473   0.7276     C
H       0.5246   0.5962   0.2175     H
C       0.5262   0.4653   0.3394     C
C       0.5294   0.9073   0.0799     C
H        0.532   0.1216   0.7643     H
H        0.536   0.1418   0.4433     H
C       0.5414  0.01073   0.6627     C
C       0.5427   0.1183   0.3982     C
C       0.5442   0.0971   0.7209     C
N       0.5526   0.9555   0.0655     N
C       0.5542  0.12156   0.9653     C
O       0.5543   0.1834   0.8839     O
C       0.5605  0.38738   0.6776     C
O       0.5613    0.195   0.6984     O
C       0.5627   0.0477   0.2631     C
H       0.5629   0.5133   0.2281     H
H       0.5694   0.0241   0.2179     H
H       0.5698   0.8943   0.1199     H
C         0.57   0.4611   0.0675     C
N       0.5749    0.457   0.6046     N
O       0.5758   0.3048   0.6209     O
C       0.5764   0.3766   0.0005     C
C       0.5803   0.3344   0.6885     C
N       0.5805   0.0239   0.5911     N
C       0.5831   0.1723   0.9483     C
C       0.5833  0.11028   0.6493     C
H       0.5864   0.4843   0.1118     H
O       0.5891   0.3221    0.754     O
C       0.5915   0.0538   0.0394     C
C       0.5921   0.1643    0.642     C
C       0.5944   0.3696   0.3611     C
C       0.5978   0.4073    0.611     C
O       0.6004    0.297   0.9318     O
C        0.601   0.4114   0.0668     C
C       0.6015   0.0737   0.5844     C
C       0.6043   0.1297   0.3325     C
C       0.6048   0.4388   0.2868     C
C       0.6143   0.0944    0.265     C
C       0.6147   0.1021    0.025     C
C       0.6202   0.3244   0.9959     C
O        0.623    0.311   0.4465     O
Sm     0.62356  0.24819  0.80956    Sm
H       0.6277   0.0825   0.5366     H
H       0.6319   0.0408   0.0793     H
H       0.6346    0.453   0.2444     H
H       0.6381   0.3874   0.5706     H
H       0.6381   0.4014   0.1106     H
O       0.6382   0.1746     0.58     O
C       0.6389   0.3909   0.2976     C
O       0.6411   0.1992   0.0024     O
C        0.643   0.3217   0.3797     C
H       0.6555   0.1021   0.2211     H
H       0.6706   0.1214   0.0552     H
O       0.6706   0.2034   0.3989     O
O       0.6715   0.3134   0.0555     O
C       0.6742   0.1764   0.3354     C
Sm     0.68661  0.24912  0.53017    Sm
H       0.6915   0.3732   0.2624     H
O       0.6987   0.2969   0.3241     O
O       0.7258   0.1848    0.277     O
O       0.7742   0.1848    0.777     O
O       0.8013   0.2969   0.8241     O
H       0.8085   0.3732   0.7624     H
Sm     0.81339  0.24912  0.03017    Sm
C       0.8258   0.1764   0.8354     C
O       0.8285   0.3134   0.5555     O
H       0.8294   0.1214   0.5552     H
O       0.8294   0.2034   0.8989     O
H       0.8445   0.1021   0.7211     H
C        0.857   0.3217   0.8797     C
O       0.8589   0.1992   0.5024     O
C       0.8611   0.3909   0.7976     C
O       0.8618   0.1746     0.08     O
H       0.8619   0.3874   0.0706     H
H       0.8619   0.4014   0.6106     H
H       0.8654    0.453   0.7444     H
H       0.8681   0.0408   0.5793     H
H       0.8723   0.0825   0.0366     H
Sm     0.87644  0.24819  0.30956    Sm
O        0.877    0.311   0.9465     O
C       0.8798   0.3244   0.4959     C
C       0.8853   0.1021    0.525     C
C       0.8857   0.0944    0.765     C
C       0.8952   0.4388   0.7868     C
C       0.8957   0.1297   0.8325     C
C       0.8985   0.0737   0.0844     C
C        0.899   0.4114   0.5668     C
O       0.8996    0.297   0.4318     O
C       0.9022   0.4073    0.111     C
C       0.9056   0.3696   0.8611     C
C       0.9079   0.1643    0.142     C
C       0.9085   0.0538   0.5394     C
O       0.9109   0.3221    0.254     O
H       0.9136   0.4843   0.6118     H
C       0.9167  0.11028   0.1493     C
C       0.9169   0.1723   0.4483     C
N       0.9195   0.0239   0.0911     N
C       0.9197   0.3344   0.1885     C
C       0.9236   0.3766   0.5005     C
O       0.9242   0.3048   0.1209     O
N       0.9251    0.457   0.1046     N
C         0.93   0.4611   0.5675     C
H       0.9302   0.8943   0.6199     H
H       0.9306   0.0241   0.7179     H
H       0.9371   0.5133   0.7281     H
C       0.9373   0.0477   0.7631     C
O       0.9387    0.195   0.1984     O
C       0.9395  0.38738   0.1776     C
O       0.9457   0.1834   0.3839     O
C       0.9458  0.12156   0.4653     C
N       0.9474   0.9555   0.5655     N
C       0.9558   0.0971   0.2209     C
C       0.9573   0.1183   0.8982     C
C       0.9586  0.01073   0.1627     C
H        0.964   0.1418   0.9433     H
H        0.968   0.1216   0.2643     H
C       0.9706   0.9073   0.5799     C
C       0.9738   0.4653   0.8394     C
H       0.9754   0.5962   0.7175     H
C       0.9768   0.0473   0.2276     C
C       0.9774   0.5332   0.7685     C
C       0.9791   0.3915    0.435     C
N       0.9816    0.556   0.0971     N
C       0.9843   0.3962   0.9137     C
C       0.9853  0.48671   0.1649     C
C       0.9855    0.476    0.502     C
H       0.9859   0.6181   0.0439     H
N       0.9899   0.5588   0.5643     N
N       0.9911   0.9284   0.1037     N
C       0.9921    0.025   0.4941     C
H       0.9956   0.3682   0.3907     H
H        0.997   0.9615   0.7246     H
C       0.9989  0.03632   0.8288     C
C       0.9997   0.4171   0.2379     C
