data_I
_chemical_name_common  '/home/zhangsd/repos/MofS-CGCNN/ML/data/TSD/clean_cifs/PEJNUP_clean'
_cell_length_a 16.96500
_cell_length_b 15.51710
_cell_length_c 14.07260
_cell_angle_alpha 90.00000
_cell_angle_beta  108.11900
_cell_angle_gamma 90.00000
_space_group_name_H-M_alt      'P 1'


loop_
_space_group_symop_operation_xyz
  'x, y, z' 

loop_
_atom_site_label
_atom_site_fract_x
_atom_site_fract_y
_atom_site_fract_z
_atom_site_type_symbol
Zn         0.0   0.0435     0.75    Zn
Zn         0.0   0.9565     0.25    Zn
O       0.0556   0.1164   0.8628     O
O       0.0556   0.8836   0.3628     O
O       0.0658   0.0215   0.1875     O
O       0.0658   0.9785   0.6875     O
H       0.0833   0.0804    0.036     H
H       0.0833   0.9196    0.536     H
C       0.1296   0.0657   0.2335     C
C       0.1296   0.9343   0.7335     C
C       0.1313   0.1402   0.8911     C
C       0.1313   0.8598   0.3911     C
C       0.1339   0.1082   0.0631     C
C       0.1339   0.8918   0.5631     C
O       0.1538   0.0773   0.3251     O
O       0.1538   0.9227   0.8251     O
C       0.1684   0.1094   0.1652     C
C       0.1684   0.8906   0.6652     C
C         0.17   0.1454   0.9999     C
C         0.17   0.8546   0.4999     C
O       0.1709   0.1593   0.8316     O
O       0.1709   0.8407   0.3316     O
C       0.2438   0.1498   0.2055     C
C       0.2438   0.8502   0.7055     C
C       0.2456   0.1836   0.0396     C
C       0.2456   0.8164   0.5396     C
H        0.267   0.1531   0.2746     H
H        0.267   0.8469   0.7746     H
H       0.2709   0.2086   0.9965     H
H       0.2709   0.7914   0.4965     H
C       0.2868   0.1864    0.143     C
C       0.2868   0.8136    0.643     C
C       0.3679   0.2254    0.185     C
C       0.3679   0.7746    0.685     C
O       0.3954   0.2337   0.2779     O
O       0.3954   0.7663   0.7779     O
O       0.4054    0.246   0.1249     O
O       0.4054    0.754   0.6249     O
O       0.4806   0.3193   0.4933     O
O       0.4806   0.6807   0.9933     O
Zn     0.48775  0.29563  0.36364    Zn
Zn     0.48775  0.70437  0.86364    Zn
O       0.4899   0.4152   0.3238     O
O       0.4899   0.5848   0.8238     O
C       0.4912   0.2723   0.5685     C
C       0.4912   0.7277   0.0685     C
C       0.4959   0.3183    0.662     C
C       0.4959   0.6817    0.162     C
H       0.4963    0.437   0.6065     H
H       0.4963    0.563   0.1065     H
C       0.4973   0.4069   0.6641     C
C       0.4973   0.5931   0.1641     C
O       0.4988   0.1947   0.5677     O
O       0.4988   0.8053   0.0677     O
H          0.5    0.214     0.75     H
C          0.5    0.274     0.75     C
C          0.5   0.4516     0.25     C
C          0.5   0.4526     0.75     C
C          0.5   0.5474     0.25     C
C          0.5   0.5484     0.75     C
C          0.5    0.726     0.25     C
H          0.5    0.786     0.25     H
O       0.5012   0.1947   0.9323     O
O       0.5012   0.8053   0.4323     O
C       0.5027   0.4069   0.8359     C
C       0.5027   0.5931   0.3359     C
H       0.5037    0.437   0.8935     H
H       0.5037    0.563   0.3935     H
C       0.5041   0.3183    0.838     C
C       0.5041   0.6817    0.338     C
C       0.5088   0.2723   0.9315     C
C       0.5088   0.7277   0.4315     C
O       0.5101   0.4152   0.1762     O
O       0.5101   0.5848   0.6762     O
Zn     0.51225  0.29563  0.13636    Zn
Zn     0.51225  0.70437  0.63636    Zn
O       0.5194   0.3193   0.0067     O
O       0.5194   0.6807   0.5067     O
O       0.5946    0.246   0.3751     O
O       0.5946    0.754   0.8751     O
O       0.6046   0.2337   0.2221     O
O       0.6046   0.7663   0.7221     O
C       0.6321   0.2254    0.315     C
C       0.6321   0.7746    0.815     C
C       0.7132   0.1864    0.357     C
C       0.7132   0.8136    0.857     C
H       0.7291   0.2086   0.5035     H
H       0.7291   0.7914   0.0035     H
H        0.733   0.1531   0.2254     H
H        0.733   0.8469   0.7254     H
C       0.7544   0.1836   0.4604     C
C       0.7544   0.8164   0.9604     C
C       0.7562   0.1498   0.2945     C
C       0.7562   0.8502   0.7945     C
O       0.8291   0.1593   0.6684     O
O       0.8291   0.8407   0.1684     O
C         0.83   0.1454   0.5001     C
C         0.83   0.8546   0.0001     C
C       0.8316   0.1094   0.3348     C
C       0.8316   0.8906   0.8348     C
O       0.8462   0.0773   0.1749     O
O       0.8462   0.9227   0.6749     O
C       0.8661   0.1082   0.4369     C
C       0.8661   0.8918   0.9369     C
C       0.8687   0.1402   0.6089     C
C       0.8687   0.8598   0.1089     C
C       0.8704   0.0657   0.2665     C
C       0.8704   0.9343   0.7665     C
H       0.9167   0.0804    0.464     H
H       0.9167   0.9196    0.964     H
O       0.9342   0.0215   0.3125     O
O       0.9342   0.9785   0.8125     O
O       0.9444   0.1164   0.6372     O
O       0.9444   0.8836   0.1372     O
