data_I
_chemical_name_common  '/home/zhangsd/repos/MofS-CGCNN/ML/data/TSD/clean_cifs/PEKDAM_clean'
_cell_length_a 10.37330
_cell_length_b 14.19080
_cell_length_c 34.21520
_cell_angle_alpha 78.30070
_cell_angle_beta  81.28100
_cell_angle_gamma 68.56200
_space_group_name_H-M_alt      'P 1'


loop_
_space_group_symop_operation_xyz
  'x, y, z' 

loop_
_atom_site_label
_atom_site_fract_x
_atom_site_fract_y
_atom_site_fract_z
_atom_site_type_symbol
H       0.0009   0.6938   0.9604     H
H       0.0221   0.8281   0.6725     H
Mn     0.02523  0.94114  0.85526    Mn
H        0.031   0.3596   0.2296     H
O      0.03286  0.20224  0.30484     O
H       0.0406   0.5558    0.012     H
O      0.04618  0.81336  0.90168     O
O      0.05353  0.86559  0.80455     O
O      0.05363  0.41151  0.29683     O
H       0.0569   0.1089   0.4267     H
H       0.0704   0.0944   0.9496     H
C       0.0759  0.84881  0.72359     C
C       0.0815  0.04955  0.22745     C
C       0.0914  0.64894  0.96386     C
C       0.0941  0.83298  0.68422     C
H       0.0952   0.3241   0.1655     H
H       0.0961    0.975    0.481     H
O      0.09919  0.25598  0.37744     O
O      0.10943  0.00618  0.89036     O
C      0.11291  0.09808   0.2543     C
C       0.1145  0.56706  0.99514     C
H       0.1151   0.1701   0.9977     H
C       0.1212  0.35143  0.21857     C
C       0.1232  0.09937  0.44403     C
H       0.1396   0.8595   0.5545     H
C       0.1479  0.01828  0.47632     C
C       0.1585  0.33201  0.17999     C
C        0.159  0.09651  0.94949     C
C      0.15977  0.87815  0.78311     C
H       0.1623   0.9683   0.1817     H
C       0.1695  0.75061  0.90319     C
H       0.1765   0.3317   0.0955     H
C       0.1767  0.25061  0.40319     C
Mn     0.17837  0.44114  0.35526    Mn
C      0.17897  0.37815  0.28311     C
H       0.1828   0.2758   0.0314     H
C      0.18374  0.85908  0.74144     C
C       0.1841  0.99912  0.20008     C
C       0.1844  0.14337  0.97823     C
H       0.1967   0.6788   0.5918     H
C        0.198  0.66595  0.93785     C
C       0.1982  0.16595  0.43785     C
C      0.21574  0.35908  0.24144     C
C       0.2208  0.82449  0.66251     C
H       0.2214   0.8249   0.5141     H
O      0.22608  0.80954   0.6237     O
C       0.2301  0.84153  0.53947     C
C       0.2331  0.99953  0.89127     C
O      0.23803  0.91151  0.79683     O
O      0.23878  0.31336  0.40168     O
H       0.2445   0.2178   0.1164     H
H       0.2449   0.1611   0.0527     H
C       0.2476  0.00286  0.50074     C
C      0.24825  0.09405  0.25425     C
C       0.2488  0.50286  0.00074     C
H       0.2504   0.6519   0.5485     H
O      0.25878  0.42559  0.03305     O
C       0.2603  0.05375  0.92105     C
C       0.2641  0.27732  0.10128     C
O      0.26739  0.75598  0.87744     O
C       0.2683  0.21956  0.03804     C
H         0.27   0.1256   0.2724     H
O      0.27633  0.36559  0.30455     O
H        0.277   0.5058   0.6268     H
C       0.2776  0.66275  0.57265     C
O      0.28258  0.92559  0.53305     O
H       0.2839    0.476   0.5846     H
H       0.2893   0.5409   0.7271     H
C       0.2922  0.32449  0.16251     C
C       0.2958  0.14894  0.46386     C
C       0.3088  0.85143  0.71857     C
C       0.3157    0.149    0.977     C
C       0.3186  0.99505  0.20055     C
H       0.3219   0.9692   0.1292     H
C       0.3233  0.06706  0.49514     C
C       0.3295  0.83201  0.67999     C
H        0.332   0.6256   0.7724     H
C       0.3334  0.59937  0.94403     C
C       0.3352  0.48934  0.60266     C
C       0.3355  0.75117  0.56303     C
O      0.33613  0.95344   0.8695     O
O      0.34068  0.30954   0.1237     O
H        0.342   0.1779   0.6947     H
H       0.3423   0.3013   0.6173     H
H       0.3449   0.1938   0.4604     H
C       0.3503  0.25117  0.06303     C
C       0.3517  0.34881  0.22359     C
C       0.3519  0.04294  0.22726     C
O      0.35581  0.19365  0.00233     O
C       0.3573  0.77732  0.60128     C
C       0.3575  0.51828  0.97632     C
H       0.3638   0.3347   0.4943     H
H       0.3641   0.3178   0.6596     H
H        0.375    0.854   0.1502     H
C       0.3779  0.54294  0.72726     C
H       0.3798   0.8596   0.7296     H
O      0.38314  0.57372   0.5888     O
C       0.3887  0.33298  0.18422     C
C       0.3889  0.34153  0.03947     C
H       0.3898   0.0448   0.7488     H
H       0.3916   0.0558    0.512     H
C       0.3922  0.05962  0.92078     C
H       0.3963   0.8317   0.5955     H
C       0.3991  0.91545  0.14195     C
Mn     0.39962  0.82683  0.83793    Mn
C      0.40345  0.59405  0.75425     C
H       0.4075   0.6089   0.9267     H
C        0.409  0.30601  0.63319     C
H       0.4152   0.8241   0.6655     H
H       0.4169   0.3527   0.2385     H
C       0.4178  0.10781  0.94799     C
H       0.4213   0.7178   0.6164     H
H       0.4215   0.8237   0.0161     H
H       0.4218   0.9254   0.0636     H
O      0.42876  0.94606  0.17562     O
C       0.4324  0.13228  0.69752     C
H        0.435   0.6128    0.447     H
H       0.4364   0.7892   0.9512     H
H       0.4396   0.3249   0.0141     H
H       0.4427   0.0409   0.2271     H
H       0.4444   0.3084   0.4296     H
H       0.4464   0.3595   0.0545     H
H       0.4479    0.475    0.981     H
O      0.44821  0.69365  0.50233     O
O      0.44956  0.44606  0.67562     O
O      0.45434  0.07372   0.0888     O
C       0.4559  0.32678  0.48542     C
O      0.46006  0.70224  0.80484     O
C       0.4614  0.39461  0.61299     C
C       0.4616  0.05251  0.73009     C
H        0.463   0.0304    0.902     H
H       0.4699   0.8086   0.0826     H
C       0.4741  0.71956  0.53804     C
H       0.4773   0.3281   0.1725     H
O      0.48181  0.34907  0.54851     O
C       0.4858  0.49505  0.70055     C
C        0.487  0.16275  0.07265     C
C       0.4975  0.86865  0.07575     C
C       0.5014  0.81929  0.99891     C
C       0.5042  0.31009  0.44691     C
H       0.5052   0.1128    0.947     H
H         0.51   0.7758   0.5314     H
C       0.5103  0.79969  0.95971     C
H       0.5212   0.5794   0.1542     H
O      0.52539  0.21501  0.63601     O
C       0.5264  0.60781  0.44799     C
C        0.531  0.89461  0.11299     C
H       0.5327   0.1788   0.0918     H
O      0.53305  0.89489  0.79681     O
C      0.53471  0.59808   0.7543     C
C       0.5391  0.14259  0.66961     C
H       0.5413   0.6611   0.5527     H
C       0.5435  0.41545  0.64195     C
C       0.5441  0.33192  0.51128     C
H       0.5492   0.1519   0.0485     H
H        0.551   0.4499   0.2091     H
O      0.55185  0.74439  0.88151     O
C       0.5581  0.36865  0.57575     C
C       0.5583    0.649    0.477     C
C      0.56155  0.65517  0.78333     C
C       0.5728  0.98934  0.10266     C
C       0.5793  0.57359  0.17341     C
H       0.5797   0.4692   0.6292     H
H       0.5892   0.4254   0.5636     H
H       0.5904   0.0058   0.1268     H
C       0.5948  0.98563  0.73477     C
C        0.598  0.49595  0.20625     C
O      0.60261  0.28748   0.3687     O
H       0.6046   0.5304    0.402     H
C       0.6127  0.83192  0.01128     C
C       0.6167  0.49912  0.70008     C
O      0.62061  0.84907  0.04851     O
H       0.6208    0.354   0.6502     H
O      0.62359  0.71501  0.13601     O
C        0.627  0.79576  0.93384     C
C       0.6274  0.55962  0.42078     C
C       0.6289  0.90046  0.77054     C
O      0.63423  0.34137  0.27197     O
C       0.6387  0.77474  0.89206     C
H       0.6389   0.3086   0.5826     H
C       0.6415  0.54955  0.72745     C
C       0.6434  0.29576  0.43384     C
C       0.6487  0.64259  0.16961     C
C       0.6518  0.80601  0.13319     C
H       0.6555    0.976   0.0846     H
H       0.6585   0.8178   0.1596     H
C       0.6737  0.07359  0.67341     C
C       0.6804  0.31929  0.49891     C
C       0.6848  0.48563  0.23477     C
O      0.68553  0.65095  0.78339     O
H       0.6877   0.4683   0.6817     H
Mn      0.6936   0.2132  0.31838    Mn
C        0.694  0.64337  0.47823     C
C       0.6945  0.27474  0.39206     C
C       0.6998  0.99595  0.70625     C
C       0.7001  0.40046  0.27054     C
H       0.7171   0.6701   0.4977     H
C       0.7303  0.29969  0.45971     C
H       0.7303   0.5508   0.7278     H
C       0.7319  0.82678  0.98542     C
C       0.7378  0.63228  0.19752     C
H       0.7387   0.3237   0.5161     H
C       0.7388  0.81009  0.94691     C
H       0.7391   0.8013   0.1173     H
O      0.74121  0.78748   0.8687     O
H       0.7452   0.0794   0.6542     H
O      0.75243  0.84137  0.77197     O
C       0.7558  0.55251  0.23009     C
C       0.7649  0.55375  0.42105     C
Mn     0.77482   0.7132  0.81838    Mn
O      0.77525  0.39489  0.29681     O
H       0.7854   0.6779   0.1947     H
H         0.79   0.9499   0.7091     H
C        0.795  0.59651  0.44949     C
H       0.8072   0.8347   0.9943     H
H       0.8166   0.5448   0.2488     H
H       0.8176   0.8084   0.9296     H
O      0.82225  0.24439  0.38151     O
H       0.8232   0.2892   0.4512     H
O      0.84093  0.45344   0.3695     O
C       0.8761  0.49953  0.39127     C
O      0.88013  0.15095  0.28339     O
H       0.8856   0.5944   0.4496     H
Mn     0.93562  0.32683  0.33793    Mn
H       0.9911   0.0508   0.2278     H
H       0.9919   0.8527   0.7385     H
O      0.99403  0.50618  0.39036     O
C      0.99995  0.15517  0.28333     C
