data_I
_chemical_name_common  '/home/zhangsd/repos/MofS-CGCNN/ML/data/TSD/clean_cifs/PEQWAK_clean'
_cell_length_a  7.53500
_cell_length_b 10.46600
_cell_length_c 21.51300
_cell_angle_alpha 90.00000
_cell_angle_beta  90.00000
_cell_angle_gamma 96.66600
_space_group_name_H-M_alt      'P 1'


loop_
_space_group_symop_operation_xyz
  'x, y, z' 

loop_
_atom_site_label
_atom_site_fract_x
_atom_site_fract_y
_atom_site_fract_z
_atom_site_type_symbol
C       0.0069   0.4137  0.42433     C
C        0.014   0.1062  0.10589     C
O       0.0516  0.81905  0.79393     O
C       0.0558   0.5446  0.51785     C
C       0.0657   0.1771  0.16541     C
H       0.0668   0.6444   0.5996     H
C       0.0907    0.024  0.00492     C
H       0.0963   0.4281   0.9269     H
O       0.0984  0.55448  0.82851     O
Mn      0.1256  0.66741  0.73761    Mn
O       0.1352  0.35258  0.30368     O
C       0.1382   0.0883  0.06162     C
H       0.1637    0.964   0.4648     H
C       0.1675    0.941  0.90451     C
C       0.1743   0.4576  0.40306     C
H       0.1925   0.3576   0.0198     H
C       0.2114    0.456  0.94053     C
C        0.217   0.0048  0.95862     C
O       0.2261  0.22582  0.16993     O
C       0.2312    0.586  0.49591     C
C       0.2409   0.4169  0.34209     C
H       0.2427   0.8809   0.5688     H
H       0.2469   0.0714   0.3746     H
H       0.2531   0.9286   0.8746     H
H       0.2573   0.1191   0.0688     H
C       0.2591   0.5831  0.84209     C
C       0.2688    0.414  0.99591     C
O       0.2739  0.77418  0.66993     O
C        0.283   0.9952  0.45862     C
C       0.2886    0.544  0.44053     C
H       0.3075   0.6424   0.5198     H
C       0.3257   0.5424  0.90306     C
C       0.3325    0.059  0.40451     C
H       0.3363    0.036   0.9648     H
C       0.3618   0.9117  0.56162     C
O       0.3648  0.64742  0.80368     O
Mn      0.3744  0.33259  0.23761    Mn
O       0.4016  0.44552  0.32851     O
H       0.4037   0.5719   0.4269     H
C       0.4093    0.976  0.50492     C
H       0.4332   0.3556   0.0996     H
C       0.4343   0.8229  0.66541     C
C       0.4442   0.4554  0.01785     C
O       0.4484  0.18095  0.29393     O
C        0.486   0.8938  0.60589     C
C       0.4931   0.5863  0.92433     C
C       0.5069   0.4137  0.07567     C
C        0.514   0.1062  0.39411     C
O       0.5516  0.81905  0.70607     O
C       0.5558   0.5446  0.98215     C
C       0.5657   0.1771  0.33459     C
H       0.5668   0.6444   0.9004     H
C       0.5907    0.024  0.49508     C
H       0.5963   0.4281   0.5731     H
O       0.5984  0.55448  0.67149     O
Mn      0.6256  0.66741  0.76239    Mn
O       0.6352  0.35258  0.19632     O
C       0.6382   0.0883  0.43838     C
H       0.6637    0.964   0.0352     H
C       0.6675    0.941  0.59549     C
C       0.6743   0.4576  0.09694     C
H       0.6925   0.3576   0.4802     H
C       0.7114    0.456  0.55947     C
C        0.717   0.0048  0.54138     C
O       0.7261  0.22582  0.33007     O
C       0.7312    0.586  0.00409     C
C       0.7409   0.4169  0.15791     C
H       0.7427   0.8809   0.9312     H
H       0.7469   0.0714   0.1254     H
H       0.7531   0.9286   0.6254     H
H       0.7573   0.1191   0.4312     H
C       0.7591   0.5831  0.65791     C
C       0.7688    0.414  0.50409     C
O       0.7739  0.77418  0.83007     O
C        0.783   0.9952  0.04138     C
C       0.7886    0.544  0.05947     C
H       0.8075   0.6424   0.9802     H
C       0.8257   0.5424  0.59694     C
C       0.8325    0.059  0.09549     C
H       0.8363    0.036   0.5352     H
C       0.8618   0.9117  0.93838     C
O       0.8648  0.64742  0.69632     O
Mn      0.8744  0.33259  0.26239    Mn
O       0.9016  0.44552  0.17149     O
H       0.9037   0.5719   0.0731     H
C       0.9093    0.976  0.99508     C
H       0.9332   0.3556   0.4004     H
C       0.9343   0.8229  0.83459     C
C       0.9442   0.4554  0.48215     C
O       0.9484  0.18095  0.20607     O
C        0.986   0.8938  0.89411     C
C       0.9931   0.5863  0.57567     C
