data_I
_chemical_name_common  '/home/zhangsd/repos/MofS-CGCNN/ML/data/TSD/clean_cifs/PETVER_clean'
_cell_length_a 10.19800
_cell_length_b 13.28500
_cell_length_c 22.36700
_cell_angle_alpha 90.00000
_cell_angle_beta  90.00000
_cell_angle_gamma 97.77500
_space_group_name_H-M_alt      'P 1'


loop_
_space_group_symop_operation_xyz
  'x, y, z' 

loop_
_atom_site_label
_atom_site_fract_x
_atom_site_fract_y
_atom_site_fract_z
_atom_site_type_symbol
N       0.0309   0.1797   0.6813     N
N       0.0309   0.6797   0.8187     N
N       0.0322   0.2204   0.6247     N
N       0.0322   0.7204   0.8753     N
H       0.0404   0.4915   0.4148     H
H       0.0404   0.9915   0.0852     H
H       0.0544   0.0712   0.1788     H
H       0.0544   0.5712   0.3212     H
C       0.0801    0.317   0.1006     C
C       0.0801    0.817   0.3994     C
C       0.0834   0.3786   0.1852     C
C       0.0834   0.8786   0.3148     C
H       0.1039    0.301   0.0619     H
H       0.1039    0.801   0.4381     H
H       0.1103   0.4156   0.2194     H
H       0.1103   0.9156   0.2806     H
O       0.1108   0.4202   0.5108     O
O       0.1108   0.9202   0.9892     O
C       0.1221   0.0217   0.0993     C
C       0.1221   0.5217   0.4007     C
C       0.1298   0.0707   0.1555     C
C       0.1298   0.5707   0.3445     C
N        0.158   0.3801   0.1358     N
N        0.158   0.8801   0.3642     N
H       0.1756   0.1866   0.2467     H
H       0.1756   0.6866   0.2533     H
H       0.1903   0.4608   0.7947     H
H       0.1903   0.9608   0.7053     H
C       0.2041   0.4644   0.7536     C
C       0.2041   0.9644   0.7464     C
Cd      0.2068  0.31683  0.58015    Cd
Cd      0.2068  0.81683  0.91985    Cd
Cd     0.21163  0.21535  0.74358    Cd
Cd     0.21163  0.71535  0.75642    Cd
N       0.2139   0.0517    0.777     N
N       0.2139   0.5517    0.723     N
N       0.2157   0.3839   0.7204     N
N       0.2157   0.8839   0.7796     N
C       0.2215    0.456   0.4912     C
C       0.2215    0.956   0.0088     C
C       0.2325   0.0181   0.0655     C
C       0.2325   0.5181   0.4345     C
C       0.2326   0.0193   0.8334     C
C       0.2326   0.5193   0.6666     C
N       0.2344   0.4208   0.6629     N
N       0.2344   0.9208   0.8371     N
H        0.243   0.0625   0.8663     H
H        0.243   0.5625   0.6337     H
C       0.2525   0.1184   0.1755     C
C       0.2525   0.6184   0.3245     C
C        0.261   0.1668   0.2366     C
C        0.261   0.6668   0.2634     C
O       0.2701   0.1172   0.3378     O
O       0.2701   0.6172   0.1622     O
C       0.3012   0.0978   0.2854     C
C       0.3012   0.5978   0.2146     C
H       0.3248    0.228   0.2353     H
H       0.3248    0.728   0.2647     H
O       0.3261   0.4363   0.5151     O
O       0.3261   0.9363   0.9849     O
Cd     0.33769  0.49124  0.10692    Cd
Cd     0.33769  0.99124  0.39308    Cd
N       0.3522   0.1802   0.6662     N
N       0.3522   0.6802   0.8338     N
C       0.3542   0.0667   0.0845     C
C       0.3542   0.5667   0.4155     C
N       0.3555   0.2126   0.6078     N
N       0.3555   0.7126   0.8922     N
C       0.3625   0.1167   0.1402     C
C       0.3625   0.6167   0.3598     C
O       0.3635   0.0258   0.2736     O
O       0.3635   0.5258   0.2264     O
H       0.4292   0.0663   0.0609     H
H       0.4292   0.5663   0.4391     H
C        0.442   0.1167   0.6692     C
C        0.442   0.6167   0.8308     C
H       0.4439   0.1491   0.1533     H
H       0.4439   0.6491   0.3467     H
C       0.4465   0.1658   0.5806     C
C       0.4465   0.6658   0.9194     C
H       0.4621   0.0842   0.7042     H
H       0.4621   0.5842   0.7958     H
H       0.4694   0.1753   0.5405     H
H       0.4694   0.6753   0.9595     H
N       0.4994   0.3957   0.1167     N
N       0.4994   0.8957   0.3833     N
N       0.5006   0.1043   0.6167     N
N       0.5006   0.6043   0.8833     N
H       0.5306   0.3247   0.0405     H
H       0.5306   0.8247   0.4595     H
H       0.5379   0.4158   0.2042     H
H       0.5379   0.9158   0.2958     H
C       0.5535   0.3342   0.0806     C
C       0.5535   0.8342   0.4194     C
H       0.5561   0.3509   0.6533     H
H       0.5561   0.8509   0.8467     H
C        0.558   0.3833   0.1692     C
C        0.558   0.8833   0.3308     C
H       0.5708   0.4337   0.5609     H
H       0.5708   0.9337   0.9391     H
O       0.6365   0.4742   0.7736     O
O       0.6365   0.9742   0.7264     O
C       0.6375   0.3833   0.6402     C
C       0.6375   0.8833   0.8598     C
N       0.6445   0.2874   0.1078     N
N       0.6445   0.7874   0.3922     N
C       0.6458   0.4333   0.5845     C
C       0.6458   0.9333   0.9155     C
N       0.6478   0.3198   0.1662     N
N       0.6478   0.8198   0.3338     N
Cd     0.66231  0.00876  0.60692    Cd
Cd     0.66231  0.50876  0.89308    Cd
O       0.6739   0.0637   0.0151     O
O       0.6739   0.5637   0.4849     O
H       0.6752    0.272   0.7353     H
H       0.6752    0.772   0.7647     H
C       0.6988   0.4022   0.7854     C
C       0.6988   0.9022   0.7146     C
O       0.7299   0.3828   0.8378     O
O       0.7299   0.8828   0.6622     O
C        0.739   0.3332   0.7366     C
C        0.739   0.8332   0.7634     C
C       0.7475   0.3816   0.6755     C
C       0.7475   0.8816   0.8245     C
H        0.757   0.4375   0.3663     H
H        0.757   0.9375   0.1337     H
N       0.7656   0.0792   0.1629     N
N       0.7656   0.5792   0.3371     N
C       0.7674   0.4807   0.3334     C
C       0.7674   0.9807   0.1666     C
C       0.7675   0.4819   0.5655     C
C       0.7675   0.9819   0.9345     C
C       0.7785    0.044   0.9912     C
C       0.7785    0.544   0.5088     C
N       0.7843   0.1161   0.2204     N
N       0.7843   0.6161   0.2796     N
N       0.7861   0.4483    0.277     N
N       0.7861   0.9483    0.223     N
Cd     0.78837  0.28465  0.24358    Cd
Cd     0.78837  0.78465  0.25642    Cd
Cd      0.7932  0.18317  0.08015    Cd
Cd      0.7932  0.68317  0.41985    Cd
C       0.7959   0.0356   0.2536     C
C       0.7959   0.5356   0.2464     C
H       0.8097   0.0392   0.2947     H
H       0.8097   0.5392   0.2053     H
H       0.8244   0.3134   0.7467     H
H       0.8244   0.8134   0.7533     H
N        0.842   0.1199   0.6358     N
N        0.842   0.6199   0.8642     N
C       0.8702   0.4293   0.6555     C
C       0.8702   0.9293   0.8445     C
C       0.8779   0.4783   0.5993     C
C       0.8779   0.9783   0.9007     C
O       0.8892   0.0798   0.0108     O
O       0.8892   0.5798   0.4892     O
H       0.8897   0.0844   0.7194     H
H       0.8897   0.5844   0.7806     H
H       0.8961    0.199   0.5619     H
H       0.8961    0.699   0.9381     H
C       0.9166   0.1214   0.6852     C
C       0.9166   0.6214   0.8148     C
C       0.9199    0.183   0.6006     C
C       0.9199    0.683   0.8994     C
H       0.9456   0.4288   0.6788     H
H       0.9456   0.9288   0.8212     H
H       0.9596   0.0085   0.9148     H
H       0.9596   0.5085   0.5852     H
N       0.9678   0.2796   0.1247     N
N       0.9678   0.7796   0.3753     N
N       0.9691   0.3203   0.1813     N
N       0.9691   0.8203   0.3187     N
