data_I
_chemical_name_common  '/home/zhangsd/repos/MofS-CGCNN/ML/data/TSD/clean_cifs/PEVQIS_clean_h'
_cell_length_a 25.65400
_cell_length_b 25.65400
_cell_length_c 25.65400
_cell_angle_alpha 90.00000
_cell_angle_beta  90.00000
_cell_angle_gamma 90.00000
_space_group_name_H-M_alt      'P 1'


loop_
_space_group_symop_operation_xyz
  'x, y, z' 

loop_
_atom_site_label
_atom_site_fract_x
_atom_site_fract_y
_atom_site_fract_z
_atom_site_type_symbol
C        0.023   0.2189   0.2189     C
C        0.023   0.2189   0.7811     C
C        0.023   0.2811   0.2811     C
C        0.023   0.2811   0.7189     C
C        0.023   0.7189   0.2811     C
C        0.023   0.7189   0.7189     C
C        0.023   0.7811   0.2189     C
C        0.023   0.7811   0.7811     C
H      0.04033  0.18997  0.18997     H
H      0.04033  0.18997  0.81003     H
H      0.04033  0.31003  0.31003     H
H      0.04033  0.31003  0.68997     H
H      0.04033  0.68997  0.31003     H
H      0.04033  0.68997  0.68997     H
H      0.04033  0.81003  0.18997     H
H      0.04033  0.81003  0.81003     H
C       0.0562     0.25     0.25     C
C       0.0562     0.25     0.75     C
C       0.0562     0.75     0.25     C
C       0.0562     0.75     0.75     C
C       0.1152     0.25     0.25     C
C       0.1152     0.25     0.75     C
C       0.1152     0.75     0.25     C
C       0.1152     0.75     0.75     C
O       0.1334   0.2146   0.2146     O
O       0.1334   0.2146   0.7854     O
O       0.1334   0.2854   0.2854     O
O       0.1334   0.2854   0.7146     O
O       0.1334   0.7146   0.2854     O
O       0.1334   0.7146   0.7146     O
O       0.1334   0.7854   0.2146     O
O       0.1334   0.7854   0.7854     O
H      0.18997  0.04033  0.18997     H
H      0.18997  0.04033  0.81003     H
H      0.18997  0.18997  0.04033     H
H      0.18997  0.18997  0.95967     H
H      0.18997  0.31003  0.45967     H
H      0.18997  0.31003  0.54033     H
H      0.18997  0.45967  0.31003     H
H      0.18997  0.45967  0.68997     H
H      0.18997  0.54033  0.31003     H
H      0.18997  0.54033  0.68997     H
H      0.18997  0.68997  0.45967     H
H      0.18997  0.68997  0.54033     H
H      0.18997  0.81003  0.04033     H
H      0.18997  0.81003  0.95967     H
H      0.18997  0.95967  0.18997     H
H      0.18997  0.95967  0.81003     H
Zn     0.20639  0.20639  0.20639    Zn
Zn     0.20639  0.20639  0.79361    Zn
Zn     0.20639  0.29361  0.29361    Zn
Zn     0.20639  0.29361  0.70639    Zn
Zn     0.20639  0.70639  0.29361    Zn
Zn     0.20639  0.70639  0.70639    Zn
Zn     0.20639  0.79361  0.20639    Zn
Zn     0.20639  0.79361  0.79361    Zn
O       0.2146   0.1334   0.2146     O
O       0.2146   0.1334   0.7854     O
O       0.2146   0.2146   0.1334     O
O       0.2146   0.2146   0.8666     O
O       0.2146   0.2854   0.3666     O
O       0.2146   0.2854   0.6334     O
O       0.2146   0.3666   0.2854     O
O       0.2146   0.3666   0.7146     O
O       0.2146   0.6334   0.2854     O
O       0.2146   0.6334   0.7146     O
O       0.2146   0.7146   0.3666     O
O       0.2146   0.7146   0.6334     O
O       0.2146   0.7854   0.1334     O
O       0.2146   0.7854   0.8666     O
O       0.2146   0.8666   0.2146     O
O       0.2146   0.8666   0.7854     O
C       0.2189    0.023   0.2189     C
C       0.2189    0.023   0.7811     C
C       0.2189   0.2189    0.023     C
C       0.2189   0.2189    0.977     C
C       0.2189   0.2811    0.477     C
C       0.2189   0.2811    0.523     C
C       0.2189    0.477   0.2811     C
C       0.2189    0.477   0.7189     C
C       0.2189    0.523   0.2811     C
C       0.2189    0.523   0.7189     C
C       0.2189   0.7189    0.477     C
C       0.2189   0.7189    0.523     C
C       0.2189   0.7811    0.023     C
C       0.2189   0.7811    0.977     C
C       0.2189    0.977   0.2189     C
C       0.2189    0.977   0.7811     C
C         0.25   0.0562     0.25     C
C         0.25   0.0562     0.75     C
C         0.25   0.1152     0.25     C
C         0.25   0.1152     0.75     C
C         0.25     0.25   0.0562     C
C         0.25     0.25   0.1152     C
O         0.25     0.25     0.25     O
C         0.25     0.25   0.3848     C
C         0.25     0.25   0.4438     C
C         0.25     0.25   0.5562     C
C         0.25     0.25   0.6152     C
O         0.25     0.25     0.75     O
C         0.25     0.25   0.8848     C
C         0.25     0.25   0.9438     C
C         0.25   0.3848     0.25     C
C         0.25   0.3848     0.75     C
C         0.25   0.4438     0.25     C
C         0.25   0.4438     0.75     C
C         0.25   0.5562     0.25     C
C         0.25   0.5562     0.75     C
C         0.25   0.6152     0.25     C
C         0.25   0.6152     0.75     C
C         0.25     0.75   0.0562     C
C         0.25     0.75   0.1152     C
O         0.25     0.75     0.25     O
C         0.25     0.75   0.3848     C
C         0.25     0.75   0.4438     C
C         0.25     0.75   0.5562     C
C         0.25     0.75   0.6152     C
O         0.25     0.75     0.75     O
C         0.25     0.75   0.8848     C
C         0.25     0.75   0.9438     C
C         0.25   0.8848     0.25     C
C         0.25   0.8848     0.75     C
C         0.25   0.9438     0.25     C
C         0.25   0.9438     0.75     C
C       0.2811    0.023   0.2811     C
C       0.2811    0.023   0.7189     C
C       0.2811   0.2189    0.477     C
C       0.2811   0.2189    0.523     C
C       0.2811   0.2811    0.023     C
C       0.2811   0.2811    0.977     C
C       0.2811    0.477   0.2189     C
C       0.2811    0.477   0.7811     C
C       0.2811    0.523   0.2189     C
C       0.2811    0.523   0.7811     C
C       0.2811   0.7189    0.023     C
C       0.2811   0.7189    0.977     C
C       0.2811   0.7811    0.477     C
C       0.2811   0.7811    0.523     C
C       0.2811    0.977   0.2811     C
C       0.2811    0.977   0.7189     C
O       0.2854   0.1334   0.2854     O
O       0.2854   0.1334   0.7146     O
O       0.2854   0.2146   0.3666     O
O       0.2854   0.2146   0.6334     O
O       0.2854   0.2854   0.1334     O
O       0.2854   0.2854   0.8666     O
O       0.2854   0.3666   0.2146     O
O       0.2854   0.3666   0.7854     O
O       0.2854   0.6334   0.2146     O
O       0.2854   0.6334   0.7854     O
O       0.2854   0.7146   0.1334     O
O       0.2854   0.7146   0.8666     O
O       0.2854   0.7854   0.3666     O
O       0.2854   0.7854   0.6334     O
O       0.2854   0.8666   0.2854     O
O       0.2854   0.8666   0.7146     O
Zn     0.29361  0.20639  0.29361    Zn
Zn     0.29361  0.20639  0.70639    Zn
Zn     0.29361  0.29361  0.20639    Zn
Zn     0.29361  0.29361  0.79361    Zn
Zn     0.29361  0.70639  0.20639    Zn
Zn     0.29361  0.70639  0.79361    Zn
Zn     0.29361  0.79361  0.29361    Zn
Zn     0.29361  0.79361  0.70639    Zn
H      0.31003  0.04033  0.31003     H
H      0.31003  0.04033  0.68997     H
H      0.31003  0.18997  0.45967     H
H      0.31003  0.18997  0.54033     H
H      0.31003  0.31003  0.04033     H
H      0.31003  0.31003  0.95967     H
H      0.31003  0.45967  0.18997     H
H      0.31003  0.45967  0.81003     H
H      0.31003  0.54033  0.18997     H
H      0.31003  0.54033  0.81003     H
H      0.31003  0.68997  0.04033     H
H      0.31003  0.68997  0.95967     H
H      0.31003  0.81003  0.45967     H
H      0.31003  0.81003  0.54033     H
H      0.31003  0.95967  0.31003     H
H      0.31003  0.95967  0.68997     H
O       0.3666   0.2146   0.2854     O
O       0.3666   0.2146   0.7146     O
O       0.3666   0.2854   0.2146     O
O       0.3666   0.2854   0.7854     O
O       0.3666   0.7146   0.2146     O
O       0.3666   0.7146   0.7854     O
O       0.3666   0.7854   0.2854     O
O       0.3666   0.7854   0.7146     O
C       0.3848     0.25     0.25     C
C       0.3848     0.25     0.75     C
C       0.3848     0.75     0.25     C
C       0.3848     0.75     0.75     C
C       0.4438     0.25     0.25     C
C       0.4438     0.25     0.75     C
C       0.4438     0.75     0.25     C
C       0.4438     0.75     0.75     C
H      0.45967  0.18997  0.31003     H
H      0.45967  0.18997  0.68997     H
H      0.45967  0.31003  0.18997     H
H      0.45967  0.31003  0.81003     H
H      0.45967  0.68997  0.18997     H
H      0.45967  0.68997  0.81003     H
H      0.45967  0.81003  0.31003     H
H      0.45967  0.81003  0.68997     H
C        0.477   0.2189   0.2811     C
C        0.477   0.2189   0.7189     C
C        0.477   0.2811   0.2189     C
C        0.477   0.2811   0.7811     C
C        0.477   0.7189   0.2189     C
C        0.477   0.7189   0.7811     C
C        0.477   0.7811   0.2811     C
C        0.477   0.7811   0.7189     C
C        0.523   0.2189   0.2811     C
C        0.523   0.2189   0.7189     C
C        0.523   0.2811   0.2189     C
C        0.523   0.2811   0.7811     C
C        0.523   0.7189   0.2189     C
C        0.523   0.7189   0.7811     C
C        0.523   0.7811   0.2811     C
C        0.523   0.7811   0.7189     C
H      0.54033  0.18997  0.31003     H
H      0.54033  0.18997  0.68997     H
H      0.54033  0.31003  0.18997     H
H      0.54033  0.31003  0.81003     H
H      0.54033  0.68997  0.18997     H
H      0.54033  0.68997  0.81003     H
H      0.54033  0.81003  0.31003     H
H      0.54033  0.81003  0.68997     H
C       0.5562     0.25     0.25     C
C       0.5562     0.25     0.75     C
C       0.5562     0.75     0.25     C
C       0.5562     0.75     0.75     C
C       0.6152     0.25     0.25     C
C       0.6152     0.25     0.75     C
C       0.6152     0.75     0.25     C
C       0.6152     0.75     0.75     C
O       0.6334   0.2146   0.2854     O
O       0.6334   0.2146   0.7146     O
O       0.6334   0.2854   0.2146     O
O       0.6334   0.2854   0.7854     O
O       0.6334   0.7146   0.2146     O
O       0.6334   0.7146   0.7854     O
O       0.6334   0.7854   0.2854     O
O       0.6334   0.7854   0.7146     O
H      0.68997  0.04033  0.31003     H
H      0.68997  0.04033  0.68997     H
H      0.68997  0.18997  0.45967     H
H      0.68997  0.18997  0.54033     H
H      0.68997  0.31003  0.04033     H
H      0.68997  0.31003  0.95967     H
H      0.68997  0.45967  0.18997     H
H      0.68997  0.45967  0.81003     H
H      0.68997  0.54033  0.18997     H
H      0.68997  0.54033  0.81003     H
H      0.68997  0.68997  0.04033     H
H      0.68997  0.68997  0.95967     H
H      0.68997  0.81003  0.45967     H
H      0.68997  0.81003  0.54033     H
H      0.68997  0.95967  0.31003     H
H      0.68997  0.95967  0.68997     H
Zn     0.70639  0.20639  0.29361    Zn
Zn     0.70639  0.20639  0.70639    Zn
Zn     0.70639  0.29361  0.20639    Zn
Zn     0.70639  0.29361  0.79361    Zn
Zn     0.70639  0.70639  0.20639    Zn
Zn     0.70639  0.70639  0.79361    Zn
Zn     0.70639  0.79361  0.29361    Zn
Zn     0.70639  0.79361  0.70639    Zn
O       0.7146   0.1334   0.2854     O
O       0.7146   0.1334   0.7146     O
O       0.7146   0.2146   0.3666     O
O       0.7146   0.2146   0.6334     O
O       0.7146   0.2854   0.1334     O
O       0.7146   0.2854   0.8666     O
O       0.7146   0.3666   0.2146     O
O       0.7146   0.3666   0.7854     O
O       0.7146   0.6334   0.2146     O
O       0.7146   0.6334   0.7854     O
O       0.7146   0.7146   0.1334     O
O       0.7146   0.7146   0.8666     O
O       0.7146   0.7854   0.3666     O
O       0.7146   0.7854   0.6334     O
O       0.7146   0.8666   0.2854     O
O       0.7146   0.8666   0.7146     O
C       0.7189    0.023   0.2811     C
C       0.7189    0.023   0.7189     C
C       0.7189   0.2189    0.477     C
C       0.7189   0.2189    0.523     C
C       0.7189   0.2811    0.023     C
C       0.7189   0.2811    0.977     C
C       0.7189    0.477   0.2189     C
C       0.7189    0.477   0.7811     C
C       0.7189    0.523   0.2189     C
C       0.7189    0.523   0.7811     C
C       0.7189   0.7189    0.023     C
C       0.7189   0.7189    0.977     C
C       0.7189   0.7811    0.477     C
C       0.7189   0.7811    0.523     C
C       0.7189    0.977   0.2811     C
C       0.7189    0.977   0.7189     C
C         0.75   0.0562     0.25     C
C         0.75   0.0562     0.75     C
C         0.75   0.1152     0.25     C
C         0.75   0.1152     0.75     C
C         0.75     0.25   0.0562     C
C         0.75     0.25   0.1152     C
O         0.75     0.25     0.25     O
C         0.75     0.25   0.3848     C
C         0.75     0.25   0.4438     C
C         0.75     0.25   0.5562     C
C         0.75     0.25   0.6152     C
O         0.75     0.25     0.75     O
C         0.75     0.25   0.8848     C
C         0.75     0.25   0.9438     C
C         0.75   0.3848     0.25     C
C         0.75   0.3848     0.75     C
C         0.75   0.4438     0.25     C
C         0.75   0.4438     0.75     C
C         0.75   0.5562     0.25     C
C         0.75   0.5562     0.75     C
C         0.75   0.6152     0.25     C
C         0.75   0.6152     0.75     C
C         0.75     0.75   0.0562     C
C         0.75     0.75   0.1152     C
O         0.75     0.75     0.25     O
C         0.75     0.75   0.3848     C
C         0.75     0.75   0.4438     C
C         0.75     0.75   0.5562     C
C         0.75     0.75   0.6152     C
O         0.75     0.75     0.75     O
C         0.75     0.75   0.8848     C
C         0.75     0.75   0.9438     C
C         0.75   0.8848     0.25     C
C         0.75   0.8848     0.75     C
C         0.75   0.9438     0.25     C
C         0.75   0.9438     0.75     C
C       0.7811    0.023   0.2189     C
C       0.7811    0.023   0.7811     C
C       0.7811   0.2189    0.023     C
C       0.7811   0.2189    0.977     C
C       0.7811   0.2811    0.477     C
C       0.7811   0.2811    0.523     C
C       0.7811    0.477   0.2811     C
C       0.7811    0.477   0.7189     C
C       0.7811    0.523   0.2811     C
C       0.7811    0.523   0.7189     C
C       0.7811   0.7189    0.477     C
C       0.7811   0.7189    0.523     C
C       0.7811   0.7811    0.023     C
C       0.7811   0.7811    0.977     C
C       0.7811    0.977   0.2189     C
C       0.7811    0.977   0.7811     C
O       0.7854   0.1334   0.2146     O
O       0.7854   0.1334   0.7854     O
O       0.7854   0.2146   0.1334     O
O       0.7854   0.2146   0.8666     O
O       0.7854   0.2854   0.3666     O
O       0.7854   0.2854   0.6334     O
O       0.7854   0.3666   0.2854     O
O       0.7854   0.3666   0.7146     O
O       0.7854   0.6334   0.2854     O
O       0.7854   0.6334   0.7146     O
O       0.7854   0.7146   0.3666     O
O       0.7854   0.7146   0.6334     O
O       0.7854   0.7854   0.1334     O
O       0.7854   0.7854   0.8666     O
O       0.7854   0.8666   0.2146     O
O       0.7854   0.8666   0.7854     O
Zn     0.79361  0.20639  0.20639    Zn
Zn     0.79361  0.20639  0.79361    Zn
Zn     0.79361  0.29361  0.29361    Zn
Zn     0.79361  0.29361  0.70639    Zn
Zn     0.79361  0.70639  0.29361    Zn
Zn     0.79361  0.70639  0.70639    Zn
Zn     0.79361  0.79361  0.20639    Zn
Zn     0.79361  0.79361  0.79361    Zn
H      0.81003  0.04033  0.18997     H
H      0.81003  0.04033  0.81003     H
H      0.81003  0.18997  0.04033     H
H      0.81003  0.18997  0.95967     H
H      0.81003  0.31003  0.45967     H
H      0.81003  0.31003  0.54033     H
H      0.81003  0.45967  0.31003     H
H      0.81003  0.45967  0.68997     H
H      0.81003  0.54033  0.31003     H
H      0.81003  0.54033  0.68997     H
H      0.81003  0.68997  0.45967     H
H      0.81003  0.68997  0.54033     H
H      0.81003  0.81003  0.04033     H
H      0.81003  0.81003  0.95967     H
H      0.81003  0.95967  0.18997     H
H      0.81003  0.95967  0.81003     H
O       0.8666   0.2146   0.2146     O
O       0.8666   0.2146   0.7854     O
O       0.8666   0.2854   0.2854     O
O       0.8666   0.2854   0.7146     O
O       0.8666   0.7146   0.2854     O
O       0.8666   0.7146   0.7146     O
O       0.8666   0.7854   0.2146     O
O       0.8666   0.7854   0.7854     O
C       0.8848     0.25     0.25     C
C       0.8848     0.25     0.75     C
C       0.8848     0.75     0.25     C
C       0.8848     0.75     0.75     C
C       0.9438     0.25     0.25     C
C       0.9438     0.25     0.75     C
C       0.9438     0.75     0.25     C
C       0.9438     0.75     0.75     C
H      0.95967  0.18997  0.18997     H
H      0.95967  0.18997  0.81003     H
H      0.95967  0.31003  0.31003     H
H      0.95967  0.31003  0.68997     H
H      0.95967  0.68997  0.31003     H
H      0.95967  0.68997  0.68997     H
H      0.95967  0.81003  0.18997     H
H      0.95967  0.81003  0.81003     H
C        0.977   0.2189   0.2189     C
C        0.977   0.2189   0.7811     C
C        0.977   0.2811   0.2811     C
C        0.977   0.2811   0.7189     C
C        0.977   0.7189   0.2811     C
C        0.977   0.7189   0.7189     C
C        0.977   0.7811   0.2189     C
C        0.977   0.7811   0.7811     C
