data_I
_chemical_name_common  '/home/zhangsd/repos/MofS-CGCNN/ML/data/TSD/clean_cifs/PEWGEF_clean'
_cell_length_a 11.57330
_cell_length_b 14.60660
_cell_length_c 14.60660
_cell_angle_alpha 66.71110
_cell_angle_beta  74.68580
_cell_angle_gamma 105.31400
_space_group_name_H-M_alt      'P 1'


loop_
_space_group_symop_operation_xyz
  'x, y, z' 

loop_
_atom_site_label
_atom_site_fract_x
_atom_site_fract_y
_atom_site_fract_z
_atom_site_type_symbol
N       0.0065   0.1626   0.3218     N
N       0.0065   0.6782   0.8374     N
H       0.0436    0.165   0.5802     H
H       0.0436   0.4198    0.835     H
N       0.0728   0.3396   0.2186     N
N       0.0728   0.7814   0.6604     N
H       0.0783    0.276   0.4728     H
H       0.0783   0.5272    0.724     H
H       0.0803   0.2782   0.5812     H
H       0.0803   0.4188   0.7218     H
Cu     0.08442  0.48332  0.11814    Cu
Cu     0.08442  0.88186  0.51668    Cu
O      0.08925  0.61355     -0.0     O
O      0.08925      1.0  0.38645     O
C       0.0984   0.2441   0.5363     C
C       0.0984   0.4637   0.7559     C
N        0.127   0.2119   0.3189     N
N        0.127   0.6811   0.7881     N
H       0.1329     -0.0   0.3299     H
H       0.1329   0.6701     -0.0     H
C       0.1653   0.3187   0.2547     C
C       0.1653   0.7453   0.6813     C
Cu     0.20256  0.11814  0.39854    Cu
Cu     0.20256  0.60146  0.88186    Cu
C       0.2403   0.2641   0.4978     C
C       0.2403   0.5022   0.7359     C
O       0.2411     -0.0   0.4826     O
O       0.2411   0.5174      0.0     O
H        0.278   0.4515   0.2564     H
H        0.278   0.7436   0.5485     H
N       0.2914   0.2186   0.4418     N
N       0.2914   0.5582   0.7814     N
C       0.2941   0.4054    0.225     C
C       0.2941    0.775   0.5946     C
Cu     0.32055  0.40469  0.59531    Cu
N       0.3283   0.3218   0.5156     N
N       0.3283   0.4844   0.6782     N
H       0.3407   0.4509   0.1451     H
H       0.3407   0.8549   0.5491     H
H       0.3478   0.3707   0.2542     H
H       0.3478   0.7458   0.6293     H
C         0.42   0.2547   0.4266     C
C         0.42   0.5734   0.7453     C
N       0.4459   0.3189   0.4692     N
N       0.4459   0.5308   0.6811     N
H       0.4628   0.3299   0.6701     H
O       0.4757  0.38645  0.61355     O
H       0.4858   0.1451    0.404     H
H       0.4858    0.596   0.8549     H
C       0.5191    0.225   0.3696     C
C       0.5191   0.6304    0.775     C
H       0.5344   0.2564   0.2921     H
H       0.5344   0.7079   0.7436     H
H       0.5511   0.4728   0.2512     H
H       0.5511   0.7488   0.5272     H
Cu      0.6011  0.39854  0.48332    Cu
Cu      0.6011  0.51668  0.60146    Cu
H        0.602   0.2542   0.3751     H
H        0.602   0.6249   0.7458     H
H       0.6238   0.5802   0.2548     H
H       0.6238   0.7452   0.4198     H
C       0.6347   0.5363   0.2196     C
C       0.6347   0.7804   0.4637     C
H       0.6615   0.5812   0.1406     H
H       0.6615   0.8594   0.4188     H
O       0.7237   0.4826   0.5174     O
N       0.7332   0.4418   0.3396     N
N       0.7332   0.6604   0.5582     N
C       0.7381   0.4978   0.2381     C
C       0.7381   0.7619   0.5022     C
H       0.8021   0.1406   0.2782     H
H       0.8021   0.7218   0.8594     H
H       0.8023   0.2512    0.276     H
H       0.8023    0.724   0.7488     H
H       0.8265   0.2921   0.4515     H
H       0.8265   0.5485   0.7079     H
N       0.8439   0.5156   0.1626     N
N       0.8439   0.8374   0.4844     N
C       0.8466   0.4266   0.3187     C
C       0.8466   0.6813   0.5734     C
C       0.8543   0.2196   0.2441     C
C       0.8543   0.7559   0.7804     C
H       0.8786   0.2548    0.165     H
H       0.8786    0.835   0.7452     H
C       0.8887   0.3696   0.4054     C
C       0.8887   0.5946   0.6304     C
H       0.8898    0.404   0.4509     H
H       0.8898   0.5491    0.596     H
N       0.9151   0.4692   0.2119     N
N       0.9151   0.7881   0.5308     N
Cu     0.91586  0.59531     -0.0    Cu
Cu     0.91586      1.0  0.40469    Cu
C       0.9762   0.2381   0.2641     C
C       0.9762   0.7359   0.7619     C
H       0.9771   0.3751   0.3707     H
H       0.9771   0.6293   0.6249     H
