data_I
_chemical_name_common  '/home/zhangsd/repos/MofS-CGCNN/ML/data/TSD/clean_cifs/PIBPAS01_clean'
_cell_length_a 17.99800
_cell_length_b 17.99800
_cell_length_c 25.95770
_cell_angle_alpha 90.00000
_cell_angle_beta  90.00000
_cell_angle_gamma 90.00000
_space_group_name_H-M_alt      'P 1'


loop_
_space_group_symop_operation_xyz
  'x, y, z' 

loop_
_atom_site_label
_atom_site_fract_x
_atom_site_fract_y
_atom_site_fract_z
_atom_site_type_symbol
H       0.0037    0.335   0.3242     H
H       0.0037    0.665   0.1758     H
C       0.0105   0.3593   0.7068     C
C       0.0105   0.6407   0.7932     C
C       0.0224   0.4212   0.2143     C
C       0.0224   0.5788   0.2857     C
C       0.0427   0.3871   0.2606     C
C       0.0427   0.6129   0.2394     C
C       0.0506   0.4276   0.7979     C
C       0.0506   0.5724   0.7021     C
H         0.06     0.44    0.187     H
H         0.06     0.56    0.313     H
H       0.0645   0.4508   0.8294     H
H       0.0645   0.5492   0.6706     H
C       0.0836   0.3666   0.7191     C
C       0.0836   0.6334   0.7809     C
C        0.106   0.4005   0.7647     C
C        0.106   0.5995   0.7353     C
H       0.1202   0.3482    0.696     H
H       0.1202   0.6518    0.804     H
C       0.1249   0.3842  0.27356     C
C       0.1249   0.6158  0.22644     C
O      0.14237   0.3464  0.31381     O
O      0.14237   0.6536  0.18619     O
O      0.16866  0.41616  0.24506     O
O      0.16866  0.58384  0.25494     O
O       0.1766    0.186   0.4277     O
O       0.1766    0.814   0.0723     O
C       0.1856    0.412   0.7766     C
C       0.1856    0.588   0.7234     C
O        0.186   0.1766   0.3223     O
O        0.186   0.8234   0.1777     O
C       0.1874   0.2269   0.3908     C
C       0.1874   0.7731   0.1092     C
H       0.1897   0.4468   0.6165     H
H       0.1897   0.5532   0.8835     H
N       0.2019   0.4548  0.81646     N
N       0.2019   0.5452  0.68354     N
H       0.2221   0.3694   0.5487     H
H       0.2221   0.6306   0.9513     H
C       0.2269   0.1874   0.3592     C
C       0.2269   0.8126   0.1408     C
N       0.2356   0.3784   0.7469     N
N       0.2356   0.6216   0.7531     N
C       0.2401   0.4433    0.606     C
C       0.2401   0.5567    0.894     C
O      0.24045  0.49712  0.17076     O
O      0.24045  0.50288  0.32924     O
H        0.247    0.376   0.1304     H
H        0.247    0.624   0.3696     H
Zn     0.24806      0.5     0.25    Zn
Zn     0.24982  0.33706  0.32541    Zn
Zn     0.24982  0.66294  0.17459    Zn
O      0.25149  0.25149    0.375     O
O      0.25149  0.74851    0.125     O
C       0.2594   0.3969   0.5661     C
C       0.2594   0.6031   0.9339     C
C        0.274   0.4656   0.8251     C
C        0.274   0.5344   0.6749     C
C       0.2767   0.4783   0.3658     C
C       0.2767   0.5217   0.1342     C
C       0.2801   0.3954    0.097     C
C       0.2801   0.6046    0.403     C
O       0.2902  0.40933  0.37349     O
O       0.2902  0.59067  0.12651     O
H        0.294    0.307    0.068     H
H        0.294    0.693    0.432     H
C       0.2941    0.485   0.6309     C
C       0.2941    0.515   0.8691     C
O      0.30332  0.30608  0.48419     O
O      0.30332  0.69392  0.01581     O
C       0.3041   0.4684  0.09483     C
C       0.3041   0.5316  0.40517     C
C       0.3059   0.3918   0.7581     C
C       0.3059   0.6082   0.7419     C
O      0.30608  0.30332  0.26581     O
O      0.30608  0.69668  0.23419     O
H        0.307    0.294    0.682     H
H        0.307    0.706    0.818     H
C       0.3084   0.3442   0.0631     C
C       0.3084   0.6558   0.4369     C
N       0.3289   0.4359  0.79758     N
N       0.3289   0.5641  0.70242     N
O      0.33357  0.42265  0.25216     O
O      0.33357  0.57735  0.24784     O
C       0.3336   0.3901   0.5512     C
C       0.3336   0.6099   0.9488     C
H        0.335   0.0037   0.4258     H
H        0.335   0.9963   0.0742     H
Zn     0.33706  0.24982  0.42459    Zn
Zn     0.33706  0.75018  0.07541    Zn
C        0.339   0.3549  0.24171     C
C        0.339   0.6451  0.25829     C
C       0.3442   0.3084   0.6869     C
C       0.3442   0.6916   0.8131     C
O       0.3464  0.14237  0.43619     O
O       0.3464  0.85763  0.06381     O
H       0.3482   0.1202    0.054     H
H       0.3482   0.8798    0.446     H
C       0.3549    0.339  0.50829     C
C       0.3549    0.661  0.99171     C
C       0.3563   0.4893   0.0572     C
C       0.3563   0.5107   0.4428     C
C       0.3593   0.0105   0.0432     C
C       0.3593   0.9895   0.4568     C
C       0.3597   0.3636   0.0255     C
C       0.3597   0.6364   0.4745     C
C       0.3636   0.3597   0.7245     C
C       0.3636   0.6403   0.7755     C
C       0.3666   0.0836   0.0309     C
C       0.3666   0.9164   0.4691     C
C       0.3688   0.4771  0.61642     C
C       0.3688   0.5229  0.88358     C
H       0.3694   0.2221   0.2013     H
H       0.3694   0.7779   0.2987     H
H       0.3734   0.4608   0.4444     H
H       0.3734   0.5392   0.0556     H
H        0.376    0.247   0.6196     H
H        0.376    0.753   0.8804     H
N       0.3784   0.2356   0.0031     N
N       0.3784   0.7644   0.4969     N
C       0.3829    0.437   0.0224     C
C       0.3829    0.563   0.4776     C
C       0.3842   0.1249  0.47644     C
C       0.3842   0.8751  0.02356     C
C       0.3871   0.0427   0.4894     C
C       0.3871   0.9573   0.0106     C
C       0.3878     0.43  0.57659     C
C       0.3878     0.57  0.92341     C
C       0.3901   0.3336   0.1988     C
C       0.3901   0.6664   0.3012     C
C       0.3918   0.3059   0.9919     C
C       0.3918   0.6941   0.5081     C
C       0.3954   0.2801    0.653     C
C       0.3954   0.7199    0.847     C
C       0.3969   0.2594   0.1839     C
C       0.3969   0.7406   0.3161     C
C       0.4005    0.106   0.9853     C
C       0.4005    0.894   0.5147     C
O      0.40933   0.2902  0.37651     O
O      0.40933   0.7098  0.12349     O
C        0.412   0.1856   0.9734     C
C        0.412   0.8144   0.5266     C
O      0.41616  0.16866  0.50494     O
O      0.41616  0.83134  0.99506     O
H       0.4171   0.4515   0.9964     H
H       0.4171   0.5485   0.5036     H
C       0.4212   0.0224   0.5357     C
C       0.4212   0.9776   0.9643     C
O      0.42265  0.33357  0.49784     O
O      0.42265  0.66643  0.00216     O
H        0.423    0.443   0.1836     H
H        0.423    0.557   0.3164     H
H        0.424    0.499    0.868     H
H        0.424    0.501    0.632     H
C       0.4276   0.0506   0.9521     C
C       0.4276   0.9494   0.5479     C
C         0.43   0.3878  0.17341     C
C         0.43   0.6122  0.32659     C
N       0.4359   0.3289  0.95242     N
N       0.4359   0.6711  0.54758     N
C        0.437   0.3829   0.7276     C
C        0.437   0.6171   0.7724     C
H         0.44     0.06    0.563     H
H         0.44     0.94    0.937     H
H        0.443    0.423   0.5664     H
H        0.443    0.577   0.9336     H
C       0.4433   0.2401    0.144     C
C       0.4433   0.7599    0.356     C
H       0.4468   0.1897   0.1335     H
H       0.4468   0.8103   0.3665     H
H       0.4508   0.0645   0.9206     H
H       0.4508   0.9355   0.5794     H
H       0.4515   0.4171   0.7536     H
H       0.4515   0.5829   0.7464     H
N       0.4548   0.2019  0.93354     N
N       0.4548   0.7981  0.56646     N
H       0.4608   0.3734   0.3056     H
H       0.4608   0.6266   0.1944     H
C       0.4656    0.274   0.9249     C
C       0.4656    0.726   0.5751     C
C       0.4684   0.3041  0.65517     C
C       0.4684   0.6959  0.84483     C
C       0.4771   0.3688  0.13358     C
C       0.4771   0.6312  0.36642     C
C       0.4783   0.2767   0.3842     C
C       0.4783   0.7233   0.1158     C
C        0.485   0.2941   0.1191     C
C        0.485   0.7059   0.3809     C
C       0.4893   0.3563   0.6928     C
C       0.4893   0.6437   0.8072     C
O      0.49712  0.24045  0.57924     O
O      0.49712  0.75955  0.92076     O
H        0.499    0.424    0.882     H
H        0.499    0.576    0.618     H
Zn         0.5  0.24806      0.5    Zn
Zn         0.5  0.75194      0.0    Zn
H        0.501    0.424    0.118     H
H        0.501    0.576    0.382     H
O      0.50288  0.24045  0.42076     O
O      0.50288  0.75955  0.07924     O
C       0.5107   0.3563   0.3072     C
C       0.5107   0.6437   0.1928     C
C        0.515   0.2941   0.8809     C
C        0.515   0.7059   0.6191     C
C       0.5217   0.2767   0.6158     C
C       0.5217   0.7233   0.8842     C
C       0.5229   0.3688  0.86642     C
C       0.5229   0.6312  0.63358     C
C       0.5316   0.3041  0.34483     C
C       0.5316   0.6959  0.15517     C
C       0.5344    0.274   0.0751     C
C       0.5344    0.726   0.4249     C
H       0.5392   0.3734   0.6944     H
H       0.5392   0.6266   0.8056     H
N       0.5452   0.2019  0.06646     N
N       0.5452   0.7981  0.43354     N
H       0.5485   0.4171   0.2464     H
H       0.5485   0.5829   0.2536     H
H       0.5492   0.0645   0.0794     H
H       0.5492   0.9355   0.4206     H
H       0.5532   0.1897   0.8665     H
H       0.5532   0.8103   0.6335     H
C       0.5567   0.2401    0.856     C
C       0.5567   0.7599    0.644     C
H        0.557    0.423   0.4336     H
H        0.557    0.577   0.0664     H
H         0.56     0.06    0.437     H
H         0.56     0.94    0.063     H
C        0.563   0.3829   0.2724     C
C        0.563   0.6171   0.2276     C
N       0.5641   0.3289  0.04758     N
N       0.5641   0.6711  0.45242     N
C         0.57   0.3878  0.82659     C
C         0.57   0.6122  0.67341     C
C       0.5724   0.0506   0.0479     C
C       0.5724   0.9494   0.4521     C
H        0.576    0.499    0.132     H
H        0.576    0.501    0.368     H
H        0.577    0.443   0.8164     H
H        0.577    0.557   0.6836     H
O      0.57735  0.33357  0.50216     O
O      0.57735  0.66643  0.99784     O
C       0.5788   0.0224   0.4643     C
C       0.5788   0.9776   0.0357     C
H       0.5829   0.4515   0.0036     H
H       0.5829   0.5485   0.4964     H
O      0.58384  0.16866  0.49506     O
O      0.58384  0.83134  0.00494     O
C        0.588   0.1856   0.0266     C
C        0.588   0.8144   0.4734     C
O      0.59067   0.2902  0.62349     O
O      0.59067   0.7098  0.87651     O
C       0.5995    0.106   0.0147     C
C       0.5995    0.894   0.4853     C
C       0.6031   0.2594   0.8161     C
C       0.6031   0.7406   0.6839     C
C       0.6046   0.2801    0.347     C
C       0.6046   0.7199    0.153     C
C       0.6082   0.3059   0.0081     C
C       0.6082   0.6941   0.4919     C
C       0.6099   0.3336   0.8012     C
C       0.6099   0.6664   0.6988     C
C       0.6122     0.43  0.42341     C
C       0.6122     0.57  0.07659     C
C       0.6129   0.0427   0.5106     C
C       0.6129   0.9573   0.9894     C
C       0.6158   0.1249  0.52356     C
C       0.6158   0.8751  0.97644     C
C       0.6171    0.437   0.9776     C
C       0.6171    0.563   0.5224     C
N       0.6216   0.2356   0.9969     N
N       0.6216   0.7644   0.5031     N
H        0.624    0.247   0.3804     H
H        0.624    0.753   0.1196     H
H       0.6266   0.4608   0.5556     H
H       0.6266   0.5392   0.9444     H
H       0.6306   0.2221   0.7987     H
H       0.6306   0.7779   0.7013     H
C       0.6312   0.4771  0.38358     C
C       0.6312   0.5229  0.11642     C
C       0.6334   0.0836   0.9691     C
C       0.6334   0.9164   0.5309     C
C       0.6364   0.3597   0.2755     C
C       0.6364   0.6403   0.2245     C
C       0.6403   0.3636   0.9745     C
C       0.6403   0.6364   0.5255     C
C       0.6407   0.0105   0.9568     C
C       0.6407   0.9895   0.5432     C
C       0.6437   0.4893   0.9428     C
C       0.6437   0.5107   0.5572     C
C       0.6451    0.339  0.49171     C
C       0.6451    0.661  0.00829     C
H       0.6518   0.1202    0.946     H
H       0.6518   0.8798    0.554     H
O       0.6536  0.14237  0.56381     O
O       0.6536  0.85763  0.93619     O
C       0.6558   0.3084   0.3131     C
C       0.6558   0.6916   0.1869     C
C        0.661   0.3549  0.75829     C
C        0.661   0.6451  0.74171     C
Zn     0.66294  0.24982  0.57541    Zn
Zn     0.66294  0.75018  0.92459    Zn
H        0.665   0.0037   0.5742     H
H        0.665   0.9963   0.9258     H
C       0.6664   0.3901   0.4488     C
C       0.6664   0.6099   0.0512     C
O      0.66643  0.42265  0.74784     O
O      0.66643  0.57735  0.75216     O
N       0.6711   0.4359  0.20242     N
N       0.6711   0.5641  0.29758     N
C       0.6916   0.3442   0.9369     C
C       0.6916   0.6558   0.5631     C
H        0.693    0.294    0.318     H
H        0.693    0.706    0.182     H
O      0.69392  0.30332  0.73419     O
O      0.69392  0.69668  0.76581     O
C       0.6941   0.3918   0.2419     C
C       0.6941   0.6082   0.2581     C
C       0.6959   0.4684  0.90517     C
C       0.6959   0.5316  0.59483     C
O      0.69668  0.30608  0.51581     O
O      0.69668  0.69392  0.98419     O
C       0.7059    0.485   0.3691     C
C       0.7059    0.515   0.1309     C
H        0.706    0.307    0.932     H
H        0.706    0.693    0.568     H
O       0.7098  0.40933  0.62651     O
O       0.7098  0.59067  0.87349     O
C       0.7199   0.3954    0.903     C
C       0.7199   0.6046    0.597     C
C       0.7233   0.4783   0.6342     C
C       0.7233   0.5217   0.8658     C
C        0.726   0.4656   0.1749     C
C        0.726   0.5344   0.3251     C
C       0.7406   0.3969   0.4339     C
C       0.7406   0.6031   0.0661     C
O      0.74851  0.25149    0.625     O
O      0.74851  0.74851    0.875     O
Zn     0.75018  0.33706  0.67459    Zn
Zn     0.75018  0.66294  0.82541    Zn
Zn     0.75194      0.5     0.75    Zn
H        0.753    0.376   0.8696     H
H        0.753    0.624   0.6304     H
O      0.75955  0.49712  0.82924     O
O      0.75955  0.50288  0.67076     O
C       0.7599   0.4433    0.394     C
C       0.7599   0.5567    0.106     C
N       0.7644   0.3784   0.2531     N
N       0.7644   0.6216   0.2469     N
C       0.7731   0.1874   0.6408     C
C       0.7731   0.8126   0.8592     C
H       0.7779   0.3694   0.4513     H
H       0.7779   0.6306   0.0487     H
N       0.7981   0.4548  0.18354     N
N       0.7981   0.5452  0.31646     N
H       0.8103   0.4468   0.3835     H
H       0.8103   0.5532   0.1165     H
C       0.8126   0.2269   0.6092     C
C       0.8126   0.7731   0.8908     C
O        0.814   0.1766   0.6777     O
O        0.814   0.8234   0.8223     O
C       0.8144    0.412   0.2234     C
C       0.8144    0.588   0.2766     C
O       0.8234    0.186   0.5723     O
O       0.8234    0.814   0.9277     O
O      0.83134  0.41616  0.75494     O
O      0.83134  0.58384  0.74506     O
O      0.85763   0.3464  0.68619     O
O      0.85763   0.6536  0.81381     O
C       0.8751   0.3842  0.72644     C
C       0.8751   0.6158  0.77356     C
H       0.8798   0.3482    0.304     H
H       0.8798   0.6518    0.196     H
C        0.894   0.4005   0.2353     C
C        0.894   0.5995   0.2647     C
C       0.9164   0.3666   0.2809     C
C       0.9164   0.6334   0.2191     C
H       0.9355   0.4508   0.1706     H
H       0.9355   0.5492   0.3294     H
H         0.94     0.44    0.813     H
H         0.94     0.56    0.687     H
C       0.9494   0.4276   0.2021     C
C       0.9494   0.5724   0.2979     C
C       0.9573   0.3871   0.7394     C
C       0.9573   0.6129   0.7606     C
C       0.9776   0.4212   0.7857     C
C       0.9776   0.5788   0.7143     C
C       0.9895   0.3593   0.2932     C
C       0.9895   0.6407   0.2068     C
H       0.9963    0.335   0.6758     H
H       0.9963    0.665   0.8242     H
