data_I
_chemical_name_common  '/home/zhangsd/repos/MofS-CGCNN/ML/data/TSD/clean_cifs/PIJDIX_clean'
_cell_length_a  9.74120
_cell_length_b 13.09550
_cell_length_c 15.69220
_cell_angle_alpha 90.00000
_cell_angle_beta  95.09200
_cell_angle_gamma 90.00000
_space_group_name_H-M_alt      'P 1'


loop_
_space_group_symop_operation_xyz
  'x, y, z' 

loop_
_atom_site_label
_atom_site_fract_x
_atom_site_fract_y
_atom_site_fract_z
_atom_site_type_symbol
O       0.0497   0.6324   0.0841     O
O       0.0497   0.8676   0.5841     O
P      0.10195  0.11297  0.40618     P
P      0.10195  0.38703  0.90618     P
O       0.1304   0.1183   0.3132     O
O       0.1304   0.3817   0.8132     O
O       0.1537   0.0142  0.44791     O
O       0.1537   0.4858  0.94791     O
H       0.1707   0.1963   0.4555     H
H       0.1707   0.3037   0.9555     H
Zn     0.18929  0.52908   0.0659    Zn
Zn     0.18929  0.97092   0.5659    Zn
O        0.191   0.0658  0.65832     O
O        0.191   0.4342  0.15832     O
O       0.2535   0.0507  0.15029     O
O       0.2535   0.4493  0.65029     O
Zn     0.28845  0.13752  0.25016    Zn
Zn     0.28845  0.36248  0.75016    Zn
O       0.2928   0.0975  0.80646     O
O       0.2928   0.4025  0.30646     O
O       0.2998   0.0704  0.99708     O
O       0.2998   0.4296  0.49708     O
P      0.30293  0.12087  0.71366     P
P      0.30293  0.37913  0.21366     P
O       0.3059   0.2328   0.6954     O
O       0.3059   0.2672   0.1954     O
O       0.3513   0.6131  0.06927     O
O       0.3513   0.8869  0.56927     O
P      0.35934  0.03917  0.08559     P
P      0.35934  0.46083  0.58559     P
Zn       0.403  0.13144  0.90995    Zn
Zn       0.403  0.36856  0.40995    Zn
O       0.4178   0.5671   0.5864     O
O       0.4178   0.9329   0.0864     O
H       0.4367   0.0605   0.4453     H
H       0.4367   0.4395   0.9453     H
H       0.4377   0.0928   0.6885     H
H       0.4377   0.4072   0.1885     H
O       0.4467   0.2285   0.4357     O
O       0.4467   0.2715   0.9357     O
H       0.4602    0.113   0.1138     H
H       0.4602    0.387   0.6138     H
O       0.4607   0.1067    0.314     O
O       0.4607   0.3933    0.814     O
P      0.49734  0.12727  0.40727     P
P      0.49734  0.37273  0.90727     P
P      0.50266  0.62727  0.09273     P
P      0.50266  0.87273  0.59273     P
O       0.5393   0.6067    0.186     O
O       0.5393   0.8933    0.686     O
H       0.5398    0.613   0.3862     H
H       0.5398    0.887   0.8862     H
O       0.5533   0.7285   0.0643     O
O       0.5533   0.7715   0.5643     O
H       0.5623   0.5928   0.8115     H
H       0.5623   0.9072   0.3115     H
H       0.5633   0.5605   0.0547     H
H       0.5633   0.9395   0.5547     H
O       0.5822   0.0671   0.9136     O
O       0.5822   0.4329   0.4136     O
Zn       0.597  0.63144  0.59005    Zn
Zn       0.597  0.86856  0.09005    Zn
P      0.64066  0.53917  0.41441     P
P      0.64066  0.96083  0.91441     P
O       0.6487   0.1131  0.43073     O
O       0.6487   0.3869  0.93073     O
O       0.6941   0.7328   0.8046     O
O       0.6941   0.7672   0.3046     O
P      0.69707  0.62087  0.78634     P
P      0.69707  0.87913  0.28634     P
O       0.7002   0.5704  0.50292     O
O       0.7002   0.9296  0.00292     O
O       0.7072   0.5975  0.69354     O
O       0.7072   0.9025  0.19354     O
Zn     0.71155  0.63752  0.24984    Zn
Zn     0.71155  0.86248  0.74984    Zn
O       0.7465   0.5507  0.34971     O
O       0.7465   0.9493  0.84971     O
O        0.809   0.5658  0.84168     O
O        0.809   0.9342  0.34168     O
Zn     0.81071  0.02908   0.4341    Zn
Zn     0.81071  0.47092   0.9341    Zn
H       0.8293   0.6963   0.0445     H
H       0.8293   0.8037   0.5445     H
O       0.8463   0.5142  0.05209     O
O       0.8463   0.9858  0.55209     O
O       0.8696   0.6183   0.1868     O
O       0.8696   0.8817   0.6868     O
P      0.89805  0.61297  0.09382     P
P      0.89805  0.88703  0.59382     P
O       0.9503   0.1324   0.4159     O
O       0.9503   0.3676   0.9159     O
