data_I
_chemical_name_common  '/home/zhangsd/repos/MofS-CGCNN/ML/data/TSD/clean_cifs/PIJJEZ_clean'
_cell_length_a 26.58790
_cell_length_b 26.58790
_cell_length_c 67.33100
_cell_angle_alpha 90.00000
_cell_angle_beta  90.00000
_cell_angle_gamma 120.00000
_space_group_name_H-M_alt      'P 1'


loop_
_space_group_symop_operation_xyz
  'x, y, z' 

loop_
_atom_site_label
_atom_site_fract_x
_atom_site_fract_y
_atom_site_fract_z
_atom_site_type_symbol
Cd         0.0      0.5      0.0    Cd
Cd         0.0      0.5      0.5    Cd
C      0.00067  0.21853  0.34541     C
C      0.00067  0.78213  0.84541     C
C      0.00393  0.14137  0.80447     C
C      0.00393  0.86257  0.30447     C
Cd     0.00428  0.48094   0.5524    Cd
Cd     0.00428  0.52335   0.0524    Cd
C      0.00483  0.25067  0.65274     C
C      0.00483  0.75417  0.15274     C
O      0.00702  0.43057  0.51825     O
O      0.00702  0.57645  0.01825     O
H      0.00777  0.24713  0.30853     H
H      0.00777  0.76063  0.80853     H
H      0.00847  0.17683  0.69483     H
H      0.00847  0.83163  0.19483     H
H      0.01307  0.29993  0.82403     H
H      0.01307  0.71313  0.32403     H
C      0.01343  0.27667  0.67112     C
C      0.01343  0.73677  0.17112     C
H      0.01373  0.13367  0.30297     H
H      0.01373  0.88007  0.80297     H
H      0.01413  0.18337  0.10977     H
H      0.01413  0.83077  0.60977     H
H      0.01493  0.26497  0.22437     H
H      0.01493  0.74997  0.72437     H
C      0.01617  0.21483  0.36515     C
C      0.01617  0.80133  0.86515     C
O      0.01787  0.50233  0.41566     O
O      0.01787  0.51553  0.91566     O
C      0.01857  0.05963  0.69756     C
C      0.01857  0.95893  0.19756     C
C      0.01973  0.05987  0.30292     C
C      0.01973  0.95987  0.80292     C
O      0.02257  0.43743  0.92143     O
O      0.02257  0.58513  0.42143     O
C      0.02423  0.19627  0.12281     C
C      0.02423  0.82797  0.62281     C
H      0.02737  0.42713  0.36113     H
H      0.02737  0.60023  0.86113     H
H      0.02777  0.24743  0.33713     H
H      0.02777  0.78033  0.83713     H
C      0.02787  0.47663  0.91024     C
C      0.02787  0.55123  0.41024     C
H      0.02897  0.48783  0.37993     H
H      0.02897  0.54113  0.87993     H
C      0.02983  0.25167  0.19583     C
C      0.02983  0.77817  0.69583     C
H       0.0334   0.3798   0.4907     H
H       0.0334   0.6536   0.9907     H
O       0.0352   0.4789  0.02818     O
O       0.0352   0.5563  0.52818     O
C      0.03737  0.11903  0.69623     C
C      0.03737  0.91833  0.19623     C
C      0.04013  0.05987  0.80292     C
C      0.04013  0.98027  0.30292     C
C      0.04033  0.12067  0.30331     C
C      0.04033  0.91967  0.80331     C
C      0.04107  0.05963  0.19756     C
C      0.04107  0.98143  0.69756     C
H      0.04223  0.22327  0.63247     H
H      0.04223  0.81897  0.13247     H
C      0.04287  0.51723  0.87543     C
C      0.04287  0.52563  0.37543     C
C      0.04323  0.26777  0.21564     C
C      0.04323  0.77547  0.71564     C
C      0.04567  0.47803  0.88866     C
C      0.04567  0.56763  0.38866     C
C      0.04607  0.44003  0.34892     C
C      0.04607  0.60603  0.84892     C
C      0.04633  0.23817  0.64525     C
C      0.04633  0.80817  0.14525     C
H      0.04647  0.36673  0.34263     H
H      0.04647  0.67973  0.84263     H
C      0.04907  0.28193  0.85906     C
C      0.04907  0.76713  0.35906     C
O      0.05027  0.26683  0.87706     O
O      0.05027  0.78343  0.37706     O
C       0.0514   0.4338  0.52573     C
C       0.0514   0.6176  0.02573     C
C      0.05463  0.23437  0.16203     C
C      0.05463  0.82027  0.66203     C
C      0.05667  0.40343  0.33778     C
C      0.05667  0.65323  0.83778     C
C      0.05963  0.01857  0.80244     C
C      0.05963  0.04107  0.30244     C
C      0.05987  0.01973  0.19708     C
C      0.05987  0.04013  0.69708     C
C      0.06027  0.52133  0.85568     C
C      0.06027  0.53893  0.35568     C
C      0.06063  0.28727  0.68226     C
C      0.06063  0.77337  0.18226     C
C      0.06223  0.16017  0.80412     C
C      0.06223  0.90207  0.30412     C
C      0.06237  0.49663   0.3426     C
C      0.06237  0.56573   0.8426     C
C      0.06557  0.44213   0.8823     C
C      0.06557  0.62343   0.3823     C
H      0.06643  0.30597  0.69447     H
H      0.06643  0.76047  0.19447     H
O       0.0665   0.4501  0.54373     O
O       0.0665   0.6164  0.04373     O
H      0.06837  0.41663  0.89103     H
H      0.06837  0.65173  0.39103     H
H      0.06927  0.14613  0.19583     H
H      0.06927  0.92313  0.69583     H
C       0.0701     0.39  0.49555     C
C       0.0701   0.6801  0.99555     C
C      0.07033  0.25307   0.1823     C
C      0.07033  0.81727   0.6823     C
C      0.07617  0.25633  0.37239     C
C      0.07617  0.81983  0.87239     C
H      0.07687  0.14613  0.69583     H
H      0.07687  0.93073  0.19583     H
C        0.077   0.4865  0.03906     C
C        0.077   0.5905  0.53906     C
C      0.07873  0.21207  0.12936     C
C      0.07873  0.86667  0.62936     C
C      0.08027  0.48393  0.84896     C
C      0.08027  0.59633  0.34896     C
C      0.08033  0.12067  0.80331     C
C      0.08033  0.95967  0.30331     C
O      0.08153  0.31077  0.25477     O
O      0.08153  0.77077  0.75477     O
C      0.08167  0.11903  0.19623     C
C      0.08167  0.44483  0.86249     C
C      0.08167  0.63683  0.36249     C
C      0.08167  0.96263  0.69623     C
C      0.08267  0.42083   0.3194     C
C      0.08267  0.66183   0.8194     C
H       0.0833   0.4017   0.9423     H
H       0.0833   0.6816   0.4423     H
C      0.08537  0.51313  0.32367     C
C      0.08537  0.57223  0.82367     C
O       0.0856   0.5092  0.05597     O
O       0.0856   0.5764  0.55597     O
H       0.0859    0.447   0.0038     H
H       0.0859   0.6389   0.5038     H
H       0.0862   0.4273   0.9752     H
H       0.0862   0.6589   0.4752     H
O      0.08637  0.53313  0.95592     O
O      0.08637  0.55323  0.45592     O
C       0.0875    0.416  0.51393     C
C       0.0875   0.6715  0.01393     C
O      0.08827  0.53283   0.4884     O
O      0.08827  0.55543   0.9884     O
O      0.09022  0.32631  0.85158     O
O      0.09022   0.7639  0.35158     O
O      0.09027  0.24773   0.3893     O
O      0.09027  0.84253   0.8893     O
H       0.0938   0.3607   0.4722     H
H       0.0938   0.7331   0.9722     H
H      0.09397  0.41953  0.85813     H
H      0.09397  0.67443  0.35813     H
C      0.09443  0.24797  0.65701     C
C      0.09443  0.84647  0.15701     C
C      0.09517  0.47483  0.31191     C
C      0.09517  0.62033  0.81191     C
C      0.09563  0.23047  0.14911     C
C      0.09563  0.86517  0.64911     C
O      0.09724  0.34035  0.31508     O
O      0.09724  0.75688  0.81508     O
C      0.09793  0.16017  0.30412     C
C      0.09793  0.93777  0.80412     C
C      0.09897  0.48693  0.82869     C
C      0.09897  0.61203  0.32869     C
C      0.09903  0.28767    0.222     C
C      0.09903  0.81137    0.722     C
C      0.10047  0.38473   0.3076     C
C      0.10047  0.71573   0.8076     C
C      0.10093  0.27097  0.67594     C
C      0.10093  0.82997  0.17594     C
C      0.10287  0.53183  0.81577     C
C      0.10287  0.57103  0.31577     C
O       0.1041   0.3559   0.9119     O
O       0.1041   0.7482   0.4119     O
H      0.10513  0.21067  0.12067     H
H      0.10513  0.89447  0.62067     H
H      0.10553  0.21067  0.62067     H
H      0.10553  0.89487  0.12067     H
C      0.10613  0.22397   0.8049     C
C      0.10613  0.88217   0.3049     C
C       0.1067   0.3794  0.48441     C
C       0.1067   0.7273  0.98441     C
C       0.1088   0.3989  0.95103     C
C       0.1088   0.7099  0.45103     C
C      0.10937  0.54883  0.47156     C
C      0.10937  0.56053  0.97156     C
H      0.11007  0.48563  0.29913     H
H      0.11007  0.62443  0.79913     H
O      0.11037  0.29813  0.36151     O
O      0.11037  0.81223  0.86151     O
O      0.11123  0.24507  0.82174     O
O      0.11123  0.86617  0.32174     O
C       0.1115    0.415  0.97084     C
C       0.1115   0.6965  0.47084     C
O      0.11343  0.24697  0.28926     O
O      0.11343  0.86647  0.78926     O
H      0.11367  0.41923  0.82953     H
H      0.11367  0.69443  0.32953     H
C       0.1148   0.4488  0.01208     C
C       0.1148    0.666  0.51208     C
C      0.11543  0.30547  0.24358     C
C      0.11543  0.80997  0.74358     C
C      0.11547  0.44813  0.82125     C
C      0.11547  0.66733  0.32125     C
O      0.11677  0.39983   0.2896     O
O      0.11677  0.71693   0.7896     O
C      0.11783  0.22397   0.3049     C
C      0.11783  0.89387   0.8049     C
C       0.1185    0.468  0.03182     C
C       0.1185   0.6505  0.53182     C
C      0.11903  0.03737  0.80377     C
C      0.11903  0.08167  0.30377     C
H      0.11993  0.13367  0.80297     H
H      0.11993  0.98627  0.30297     H
C      0.12067  0.04033  0.19669     C
C      0.12067  0.08033  0.69669     C
C      0.12127  0.53333  0.79602     C
C      0.12127  0.58793  0.29602     C
H      0.12267  0.56113  0.78733     H
H      0.12267  0.56153  0.28733     H
H      0.12553  0.30437  0.71327     H
H      0.12553  0.82117  0.21327     H
C      0.12773  0.27307  0.18902     C
C      0.12773  0.85467  0.68902     C
C      0.13333  0.21207  0.62936     C
C      0.13333  0.92127  0.12936     C
O      0.13353  0.24697  0.78926     O
O      0.13353  0.88657  0.28926     O
H      0.13367  0.01373  0.19703     H
H      0.13367  0.11993  0.69703     H
O      0.13383  0.24507  0.32174     O
O      0.13383  0.88877  0.82174     O
C      0.13467  0.45183  0.80151     C
C      0.13467  0.68283  0.30151     C
C      0.13483  0.23047  0.64911     C
C      0.13483  0.90437  0.14911     C
C      0.13707  0.49463  0.78947     C
C      0.13707  0.64243  0.28947     C
C      0.13743  0.14137  0.30447     C
C      0.13743  0.99607  0.80447     C
C      0.14103  0.29047  0.20877     C
C      0.14103  0.85057  0.70877     C
C      0.14137  0.00393  0.69553     C
C      0.14137  0.13743  0.19553     C
C       0.1415   0.4285  0.52142     C
C       0.1415    0.713  0.02142     C
C       0.1433   0.3612  0.92309     C
C       0.1433   0.7821  0.42309     C
Cd     0.14332  0.32905  0.88574    Cd
Cd     0.14332  0.81427  0.38574    Cd
C       0.1447    0.379  0.94467     C
C       0.1447   0.7657  0.44467     C
C      0.14533  0.27307  0.68902     C
C      0.14533  0.87227  0.18902     C
O      0.14557  0.36853  0.80515     O
O      0.14557  0.77703  0.30515     O
H      0.14613  0.06927  0.30417     H
H      0.14613  0.07687  0.80417     H
Cd      0.1476  0.33762  0.28093    Cd
Cd      0.1476  0.80999  0.78093    Cd
C      0.14943  0.29047  0.70877     C
C      0.14943  0.85897  0.20877     C
H      0.14997  0.49743  0.77643     H
H      0.14997  0.65253  0.27643     H
C       0.1506   0.4136  0.98437     C
C       0.1506    0.737  0.48437     C
O      0.15113  0.31547    0.749     O
O      0.15113  0.83567    0.249     O
H       0.1523   0.4434   0.5342     H
H       0.1523   0.7089   0.0342     H
C      0.15317  0.41033  0.79427     C
C      0.15317  0.74283  0.29427     C
C      0.15353  0.24797  0.15701     C
C      0.15353  0.90557  0.65701     C
C       0.1536   0.4323  0.00464     C
C       0.1536   0.7213  0.50464     C
H       0.1545   0.3623   0.4534     H
H       0.1545   0.7922   0.9534     H
H       0.1565   0.4983   0.3615     H
H       0.1565   0.6582   0.8615     H
O      0.15747  0.24773   0.8893     O
O      0.15747  0.90973   0.3893     O
C      0.16017  0.06223  0.69588     C
C      0.16017  0.09793  0.19588     C
C       0.1613   0.4704  0.04386     C
C       0.1613   0.6909  0.54386     C
C       0.1633   0.3957  0.49073     C
C       0.1633   0.7676  0.99073     C
H       0.1641   0.4833   0.0569     H
H       0.1641   0.6808   0.5569     H
O      0.16433  0.31547    0.249     O
O      0.16433  0.84887    0.749     O
H      0.16497  0.48983  0.47183     H
H      0.16497  0.67513  0.97183     H
Cd     0.16667  0.33333  0.33333    Cd
Cd     0.16667  0.33333  0.83333    Cd
Cd     0.16667  0.83333  0.33333    Cd
Cd     0.16667  0.83333  0.83333    Cd
H      0.16837  0.17683  0.19483     H
H      0.16837  0.99153  0.69483     H
O        0.169   0.3512  0.41767     O
O        0.169   0.8178  0.91767     O
H      0.16923  0.18337  0.60977     H
H      0.16923  0.98587  0.10977     H
C      0.17003  0.27097  0.17594     C
C      0.17003  0.89907  0.67594     C
C      0.17203  0.19627  0.62281     C
C      0.17203  0.97577  0.12281     C
C      0.17317  0.56873  0.47078     C
C      0.17317  0.60443  0.97078     C
O      0.17587  0.41893  0.77736     O
O      0.17587  0.75693  0.27736     O
H      0.17683  0.00847  0.80517     H
H      0.17683  0.16837  0.30517     H
H      0.17883  0.30437  0.21327     H
H      0.17883  0.87447  0.71327     H
C      0.17973  0.23437  0.66203     C
C      0.17973  0.94537  0.16203     C
C       0.1798   0.4187  0.50966     C
C       0.1798   0.7611  0.00966     C
C      0.18017  0.25633  0.87239     C
C      0.18017  0.92383  0.37239     C
H      0.18103  0.22327  0.13247     H
H      0.18103  0.95777  0.63247     H
O       0.1822   0.3512  0.91767     O
O       0.1822    0.831  0.41767     O
C      0.18273  0.25307   0.6823     C
C      0.18273  0.92967   0.1823     C
H      0.18337  0.01413  0.39023     H
H      0.18337  0.16923  0.89023     H
C       0.1839   0.3762   0.9579     C
C       0.1839   0.8077   0.4579     C
Cd     0.18573  0.32905  0.38574    Cd
Cd     0.18573  0.85668  0.88574    Cd
H       0.1872   0.5898   0.8625     H
H       0.1872   0.5974   0.3625     H
O      0.18777  0.29813  0.86151     O
O      0.18777  0.88963  0.36151     O
C        0.188   0.3936  0.97765     C
C        0.188   0.7944  0.47765     C
C      0.18863  0.28767    0.722     C
C      0.18863  0.90097    0.222     C
Cd     0.19001  0.33762  0.78093    Cd
Cd     0.19001   0.8524  0.28093    Cd
C      0.19003  0.30547  0.74358     C
C      0.19003  0.88457  0.24358     C
C      0.19183  0.23817  0.14525     C
C      0.19183  0.95367  0.64525     C
C      0.19197  0.52923  0.47113     C
C      0.19197  0.66273  0.97113     C
C       0.1923   0.3762   0.4579     C
C       0.1923   0.8161   0.9579     C
C       0.1959   0.5253   0.3622     C
C       0.1959   0.6706   0.8622     C
C      0.19627  0.02423  0.37719     C
C      0.19627  0.17203  0.87719     C
C       0.1985   0.4362  0.01756     C
C       0.1985   0.7623  0.51756     C
C      0.19867  0.21483  0.86515     C
C      0.19867  0.98383  0.36515     C
O       0.1995   0.4216  0.34493     O
O       0.1995   0.7779  0.84493     O
H      0.19967  0.54673  0.96963     H
H      0.19967  0.65293  0.46963     H
O       0.1998   0.4197  0.87741     O
O       0.1998   0.7801  0.37741     O
C          0.2   0.4546  0.03731     C
C          0.2   0.7454  0.53731     C
C       0.2056   0.3936  0.47765     C
C       0.2056    0.812  0.97765     C
H       0.2078   0.3623   0.9534     H
H       0.2078   0.8455   0.4534     H
H      0.21067  0.10513  0.37933     H
H      0.21067  0.10553  0.87933     H
C      0.21207  0.07873  0.37064     C
C      0.21207  0.13333  0.87064     C
C      0.21267  0.58633  0.96997     C
C      0.21267  0.62633  0.46997     C
H       0.2134    0.533   0.8637     H
H       0.2134   0.6804   0.3637     H
C       0.2143    0.585   0.3629     C
C       0.2143   0.6293   0.8629     C
C      0.21483  0.01617  0.13485     C
C      0.21483  0.19867  0.63485     C
C       0.2155   0.4427  0.36177     C
C       0.2155   0.7728  0.86177     C
O      0.21657  0.26683  0.37706     O
O      0.21657  0.94973  0.87706     O
C      0.21787  0.21853  0.84541     C
C      0.21787  0.99933  0.34541     C
C       0.2179   0.3612  0.42309     C
C       0.2179   0.8567  0.92309     C
C      0.21853  0.00067  0.15459     C
C      0.21853  0.21787  0.65459     C
H      0.21967  0.24743  0.83713     H
H      0.21967  0.97223  0.33713     H
O       0.2199   0.4197  0.37741     O
O       0.2199   0.8002  0.87741     O
C      0.22183  0.25167  0.69583     C
C      0.22183  0.97017  0.19583     C
O       0.2221   0.4216  0.84493     O
O       0.2221   0.8005  0.34493     O
O      0.22297  0.36853  0.30515     O
O      0.22297  0.85443  0.80515     O
H      0.22327  0.04223  0.86753     H
H      0.22327  0.18103  0.36753     H
C      0.22397  0.10613   0.6951     C
C      0.22397  0.11783   0.1951     C
C      0.22453  0.26777  0.71564     C
C      0.22453  0.95677  0.21564     C
C      0.22663  0.28727  0.18226     C
C      0.22663  0.93937  0.68226     C
C       0.2272   0.4427  0.86177     C
C       0.2272   0.7845  0.36177     C
H       0.2278    0.456    0.046     H
H       0.2278   0.7718    0.546     H
H       0.2282    0.456    0.546     H
H       0.2282   0.7722    0.046     H
O      0.22923  0.31077  0.75477     O
O      0.22923  0.91847  0.25477     O
C      0.23047  0.09563  0.35089     C
C      0.23047  0.13483  0.85089     C
C       0.2324   0.3957  0.99073     C
C       0.2324   0.8367  0.49073     C
C      0.23287  0.28193  0.35906     C
C      0.23287  0.95093  0.85906     C
C       0.2343    0.379  0.44467     C
C       0.2343   0.8553  0.94467     C
C      0.23437  0.05463  0.33797     C
C      0.23437  0.17973  0.83797     C
C       0.2354   0.5065  0.36255     C
C       0.2354   0.7289  0.86255     C
O       0.2361  0.32631  0.35158     O
O       0.2361  0.90978  0.85158     O
C       0.2377   0.4362  0.51756     C
C       0.2377   0.8015  0.01756     C
C      0.23817  0.04633  0.85475     C
C      0.23817  0.19183  0.35475     C
C       0.2389   0.4187  0.00966     C
C       0.2389   0.8202  0.50966     C
H      0.23937  0.24713  0.80853     H
H      0.23937  0.99223  0.30853     H
H      0.23953  0.30597  0.19447     H
H      0.23953  0.93357  0.69447     H
O      0.24307  0.41893  0.27736     O
O      0.24307  0.82413  0.77736     O
O      0.24312  0.34035  0.81508     O
O      0.24312  0.90276  0.31508     O
O      0.24507  0.11123  0.67826     O
O      0.24507  0.13383  0.17826     O
C      0.24583  0.25067  0.15274     C
C      0.24583  0.99517  0.65274     C
O      0.24697  0.11343  0.21074     O
O      0.24697  0.13353  0.71074     O
H      0.24713  0.00777  0.19147     H
H      0.24713  0.23937  0.69147     H
H      0.24743  0.02777  0.16287     H
H      0.24743  0.21967  0.66287     H
O      0.24773  0.09027   0.1107     O
O      0.24773  0.15747   0.6107     O
C      0.24797  0.09443  0.84299     C
C      0.24797  0.15353  0.34299     C
H      0.25003  0.26497  0.72437     H
H      0.25003  0.98507  0.22437     H
C      0.25067  0.00483  0.84726     C
C      0.25067  0.24583  0.34726     C
C      0.25167  0.02983  0.30417     C
C      0.25167  0.22183  0.80417     C
C      0.25167  0.54763  0.47043     C
C      0.25167  0.70403  0.97043     C
O       0.2518   0.3559   0.4119     O
O       0.2518   0.8959   0.9119     O
C        0.253    0.546  0.86336     C
C        0.253    0.707  0.36336     C
C      0.25307  0.07033   0.3177     C
C      0.25307  0.18273   0.8177     C
C       0.2546   0.4546  0.53731     C
C       0.2546      0.8  0.03731     C
C      0.25633  0.07617  0.12761     C
C      0.25633  0.18017  0.62761     C
H      0.25647  0.52053  0.97083     H
H      0.25647  0.73593  0.47083     H
C      0.25717  0.41033  0.29427     C
C      0.25717  0.84683  0.79427     C
C        0.263   0.4136  0.48437     C
C        0.263   0.8494  0.98437     C
C      0.26323  0.27667  0.17112     C
C      0.26323  0.98657  0.67112     C
H      0.26407  0.52053  0.47083     H
H      0.26407  0.74353  0.97083     H
H      0.26497  0.01493  0.27563     H
H      0.26497  0.25003  0.77563     H
O      0.26683  0.05027  0.62294     O
O      0.26683  0.21657  0.12294     O
H       0.2669   0.3607   0.9722     H
H       0.2669   0.9062   0.4722     H
C      0.26777  0.04323  0.28436     C
C      0.26777  0.22453  0.78436     C
C      0.27097  0.10093  0.82406     C
C      0.27097  0.17003  0.32406     C
C       0.2711   0.5065  0.86255     C
C       0.2711   0.7646  0.36255     C
C       0.2727   0.3794  0.98441     C
C       0.2727   0.8933  0.48441     C
C      0.27307  0.12773  0.31098     C
C      0.27307  0.14533  0.81098     C
C      0.27347  0.62653  0.96958     C
C      0.27347  0.64693  0.46958     C
C       0.2737   0.6256  0.36423     C
C       0.2737   0.6481  0.86423     C
C      0.27667  0.01343  0.82888     C
C      0.27667  0.26323  0.32888     C
C       0.2787   0.4323  0.50464     C
C       0.2787   0.8464  0.00464     C
C      0.28193  0.04907  0.64094     C
C      0.28193  0.23287  0.14094     C
O      0.28307  0.39983   0.7896     O
O      0.28307  0.88323   0.2896     O
C      0.28427  0.38473   0.8076     C
C      0.28427  0.89953   0.3076     C
H      0.28687  0.29993  0.32403     H
H      0.28687  0.98693  0.82403     H
C        0.287   0.4285  0.02142     C
C        0.287   0.8585  0.52142     C
C      0.28727  0.06063  0.81774     C
C      0.28727  0.22663  0.31774     C
C      0.28767  0.09903    0.278     C
C      0.28767  0.18863    0.778     C
C       0.2901   0.3989  0.45103     C
C       0.2901   0.8912  0.95103     C
C      0.29047  0.14103  0.29123     C
C      0.29047  0.14943  0.79123     C
H       0.2911   0.4434   0.0342     H
H       0.2911   0.8477   0.5342     H
C      0.29227  0.60703   0.4691     C
C      0.29227  0.68523   0.9691     C
C        0.293    0.546  0.36336     C
C        0.293    0.747  0.86336     C
C       0.2932   0.6068  0.86375     C
C       0.2932   0.6864  0.36375     C
C      0.29597  0.54763  0.97043     C
C      0.29597  0.74833  0.47043     C
O      0.29813  0.11037  0.13849     O
O      0.29813  0.18777  0.63849     O
H      0.29993  0.01307  0.67597     H
H      0.29993  0.28687  0.17597     H
C       0.3035    0.415  0.47084     C
C       0.3035   0.8885  0.97084     C
H      0.30437  0.12553  0.78673     H
H      0.30437  0.17883  0.28673     H
C      0.30547  0.11543  0.25642     C
C      0.30547  0.19003  0.75642     C
H      0.30557  0.41923  0.32953     H
H      0.30557  0.88633  0.82953     H
H      0.30597  0.06643  0.80553     H
H      0.30597  0.23953  0.30553     H
C       0.3091   0.4704  0.54386     C
C       0.3091   0.8387  0.04386     C
O      0.31077  0.08153  0.24523     O
O      0.31077  0.22923  0.74523     O
C       0.3136   0.6068  0.36375     C
C       0.3136   0.7068  0.86375     C
C      0.31477  0.60703   0.9691     C
C      0.31477  0.70773   0.4691     C
O      0.31547  0.15113    0.751     O
O      0.31547  0.16433    0.251     O
C      0.31717  0.45183  0.30151     C
C      0.31717  0.86533  0.80151     C
H       0.3184   0.4017   0.4423     H
H       0.3184   0.9167   0.9423     H
H       0.3192   0.4833   0.5569     H
H       0.3192   0.8359   0.0569     H
H       0.3196    0.533   0.3637     H
H       0.3196   0.7866   0.8637     H
C       0.3199     0.39  0.99555     C
C       0.3199   0.9299  0.49555     C
H      0.32027  0.36673  0.84263     H
H      0.32027  0.95353  0.34263     H
H      0.32487  0.48983  0.97183     H
H      0.32487  0.83503  0.47183     H
H      0.32557  0.41953  0.35813     H
H      0.32557  0.90603  0.85813     H
O      0.32631  0.09022  0.64842     O
O      0.32631   0.2361  0.14842     O
C       0.3285    0.416  0.01393     C
C       0.3285   0.9125  0.51393     C
Cd     0.32905  0.14332  0.61426    Cd
Cd     0.32905  0.18573  0.11426    Cd
C       0.3294   0.5253   0.8622     C
C       0.3294   0.8041   0.3622     C
C      0.33267  0.44813  0.32125     C
C      0.33267  0.88453  0.82125     C
Cd     0.33333  0.16667  0.16667    Cd
Cd     0.33333  0.16667  0.66667    Cd
C        0.334   0.4488  0.51208     C
C        0.334   0.8852  0.01208     C
C      0.33727  0.52923  0.97113     C
C      0.33727  0.80803  0.47113     C
Cd     0.33762   0.1476  0.21907    Cd
Cd     0.33762  0.19001  0.71907    Cd
C      0.33817  0.42083   0.8194     C
C      0.33817  0.91733   0.3194     C
O      0.34035  0.09724  0.18492     O
O      0.34035  0.24312  0.68492     O
H       0.3411   0.4273   0.4752     H
H       0.3411   0.9138   0.9752     H
H       0.3418   0.4983   0.8615     H
H       0.3418   0.8435   0.3615     H
H       0.3464   0.3798   0.9907     H
H       0.3464   0.9666   0.4907     H
C      0.34677  0.40343  0.83778     C
C      0.34677  0.94333  0.33778     C
H      0.34707  0.54673  0.46963     H
H      0.34707  0.80033  0.96963     H
H      0.34747  0.49743  0.27643     H
H      0.34747  0.85003  0.77643     H
H      0.34827  0.41663  0.39103     H
H      0.34827  0.93163  0.89103     H
C       0.3495    0.468  0.53182     C
C       0.3495   0.8815  0.03182     C
O       0.3512    0.169  0.08233     O
O       0.3512   0.1822  0.58233     O
C       0.3519   0.6256  0.86423     C
C       0.3519   0.7263  0.36423     C
C      0.35307  0.62653  0.46958     C
C      0.35307  0.72653  0.96958     C
O       0.3559   0.1041   0.5881     O
O       0.3559   0.2518   0.0881     O
C      0.35757  0.49463  0.28947     C
C      0.35757  0.86293  0.78947     C
H       0.3607   0.0938   0.0278     H
H       0.3607   0.2669   0.5278     H
H       0.3611    0.447   0.5038     H
H       0.3611   0.9141   0.0038     H
C       0.3612   0.1433  0.57691     C
C       0.3612   0.2179  0.07691     C
H       0.3623   0.1545   0.0466     H
H       0.3623   0.2078   0.5466     H
C      0.36317  0.44483  0.36249     C
C      0.36317  0.91833  0.86249     C
H      0.36673  0.04647  0.15737     H
H      0.36673  0.32027  0.65737     H
O      0.36853  0.14557  0.69485     O
O      0.36853  0.22297  0.19485     O
C       0.3707    0.585   0.8629     C
C       0.3707   0.7857   0.3629     C
C      0.37347  0.64693  0.96958     C
C      0.37347  0.72653  0.46958     C
C      0.37367  0.58633  0.46997     C
C      0.37367  0.78733  0.96997     C
C       0.3744   0.6481  0.36423     C
C       0.3744   0.7263  0.86423     C
H      0.37557  0.48563  0.79913     H
H      0.37557  0.88993  0.29913     H
C       0.3762   0.1839   0.5421     C
C       0.3762   0.1923   0.0421     C
C      0.37657  0.44213   0.3823     C
C      0.37657  0.93443   0.8823     C
C        0.379   0.1447  0.55533     C
C        0.379   0.2343  0.05533     C
C       0.3794   0.1067  0.01559     C
C       0.3794   0.2727  0.51559     C
C      0.37967  0.47483  0.81191     C
C      0.37967  0.90483  0.31191     C
H       0.3798   0.0334   0.0093     H
H       0.3798   0.3464   0.5093     H
C       0.3824   0.4338  0.02573     C
C       0.3824   0.9486  0.52573     C
O       0.3836   0.4501  0.04373     O
O       0.3836   0.9335  0.54373     O
C      0.38473  0.10047   0.1924     C
C      0.38473  0.28427   0.6924     C
C      0.38797  0.48693  0.32869     C
C      0.38797  0.90103  0.82869     C
C         0.39   0.0701  0.00445     C
C         0.39   0.3199  0.50445     C
C      0.39297  0.68523   0.4691     C
C      0.39297  0.70773   0.9691     C
C       0.3932   0.6864  0.86375     C
C       0.3932   0.7068  0.36375     C
C       0.3936    0.188  0.52235     C
C       0.3936   0.2056  0.02235     C
C      0.39397  0.44003  0.84892     C
C      0.39397  0.95393  0.34892     C
C      0.39557  0.56873  0.97078     C
C      0.39557  0.82683  0.47078     C
C       0.3957   0.1633  0.00927     C
C       0.3957   0.2324  0.50927     C
C       0.3989   0.1088  0.54897     C
C       0.3989   0.2901  0.04897     C
H      0.39977  0.42713  0.86113     H
H      0.39977  0.97263  0.36113     H
O      0.39983  0.11677   0.2104     O
O      0.39983  0.28307   0.7104     O
H       0.4017   0.0833   0.5577     H
H       0.4017   0.3184   0.0577     H
H       0.4026   0.5898   0.3625     H
H       0.4026   0.8128   0.8625     H
C      0.40343  0.05667  0.16222     C
C      0.40343  0.34677  0.66222     C
C      0.40367  0.48393  0.34896     C
C      0.40367  0.91973  0.84896     C
C       0.4095   0.4865  0.53906     C
C       0.4095    0.923  0.03906     C
H       0.4102   0.5974   0.8625     H
H       0.4102   0.8128   0.3625     H
C      0.41033  0.15317  0.70573     C
C      0.41033  0.25717  0.20573     C
C      0.41207  0.53333  0.29602     C
C      0.41207  0.87873  0.79602     C
C       0.4136   0.1506  0.51563     C
C       0.4136    0.263  0.01563     C
C      0.41367  0.62633  0.96997     C
C      0.41367  0.78733  0.46997     C
O      0.41487  0.43743  0.42143     O
O      0.41487  0.97743  0.92143     O
C        0.415   0.1115  0.52916     C
C        0.415   0.3035  0.02916     C
C        0.415   0.6293   0.3629     C
C        0.415   0.7857   0.8629     C
C        0.416   0.0875  0.98607     C
C        0.416   0.3285  0.48607     C
H      0.41663  0.06837  0.60897     H
H      0.41663  0.34827  0.10897     H
C       0.4187   0.1798  0.99034     C
C       0.4187   0.2389  0.49034     C
O      0.41893  0.17587  0.72264     O
O      0.41893  0.24307  0.22264     O
H      0.41923  0.11367  0.67047     H
H      0.41923  0.30557  0.17047     H
H      0.41953  0.09397  0.64187     H
H      0.41953  0.32557  0.14187     H
O       0.4197   0.1998  0.62259     O
O       0.4197   0.2199  0.12259     O
C      0.42083  0.08267   0.1806     C
C      0.42083  0.33817   0.6806     C
O       0.4216   0.1995  0.15507     O
O       0.4216   0.2221  0.65507     O
O      0.42355  0.43057  0.01825     O
O      0.42355  0.99298  0.51825     O
O       0.4236   0.5092  0.55597     O
O       0.4236   0.9144  0.05597     O
H      0.42713  0.02737  0.13887     H
H      0.42713  0.39977  0.63887     H
H       0.4273   0.0862   0.5248     H
H       0.4273   0.3411   0.0248     H
C      0.42777  0.51313  0.82367     C
C      0.42777  0.91463  0.32367     C
C       0.4285   0.1415  0.97858     C
C       0.4285    0.287  0.47858     C
C      0.42897  0.53183  0.31577     C
C      0.42897  0.89713  0.81577     C
O      0.43057  0.00702  0.98175     O
O      0.43057  0.42355  0.48175     O
C      0.43127  0.60443  0.47078     C
C      0.43127  0.82683  0.97078     C
C       0.4323   0.1536  0.49536     C
C       0.4323   0.2787  0.99536     C
C      0.43237  0.47803  0.38866     C
C      0.43237  0.95433  0.88866     C
C       0.4338   0.0514  0.97427     C
C       0.4338   0.3824  0.47427     C
C      0.43427  0.49663   0.8426     C
C      0.43427  0.93763   0.3426     C
C       0.4362   0.1985  0.48244     C
C       0.4362   0.2377  0.98244     C
O      0.43743  0.02257  0.57857     O
O      0.43743  0.41487  0.07857     O
H      0.43847  0.56113  0.28733     H
H      0.43847  0.87733  0.78733     H
H      0.43887  0.56153  0.78733     H
H      0.43887  0.87733  0.28733     H
C      0.43947  0.54883  0.97156     C
C      0.43947  0.89063  0.47156     C
C      0.44003  0.04607  0.15108     C
C      0.44003  0.39397  0.65108     C
C      0.44213  0.06557   0.6177     C
C      0.44213  0.37657   0.1177     C
C       0.4427   0.2155  0.13823     C
C       0.4427   0.2272  0.63823     C
H       0.4434   0.1523   0.9658     H
H       0.4434   0.2911   0.4658     H
O       0.4437   0.4789  0.52818     O
O       0.4437   0.9648  0.02818     O
O      0.44457  0.53283   0.9884     O
O      0.44457  0.91173   0.4884     O
C      0.44483  0.08167  0.63751     C
C      0.44483  0.36317  0.13751     C
O      0.44677  0.53313  0.45592     O
O      0.44677  0.91363  0.95592     O
H        0.447   0.0859   0.4962     H
H        0.447   0.3611   0.9962     H
C      0.44813  0.11547  0.67875     C
C      0.44813  0.33267  0.17875     C
C      0.44877  0.47663  0.41024     C
C      0.44877  0.97213  0.91024     C
C       0.4488   0.1148  0.48792     C
C       0.4488    0.334  0.98792     C
O       0.4501   0.0665  0.95627     O
O       0.4501   0.3836  0.45627     O
C      0.45117  0.56053  0.47156     C
C      0.45117  0.89063  0.97156     C
C      0.45183  0.13467  0.69849     C
C      0.45183  0.31717  0.19849     C
C      0.45237  0.70403  0.47043     C
C      0.45237  0.74833  0.97043     C
H      0.45327  0.65293  0.96963     H
H      0.45327  0.80033  0.46963     H
C        0.454    0.707  0.86336     C
C        0.454    0.747  0.36336     C
C       0.4546      0.2  0.46269     C
C       0.4546   0.2546  0.96269     C
H        0.456   0.2278    0.454     H
H        0.456   0.2282    0.954     H
H      0.45887  0.48783  0.87993     H
H      0.45887  0.97103  0.37993     H
C      0.46107  0.52133  0.35568     C
C      0.46107  0.93973  0.85568     C
C      0.46667  0.58793  0.79602     C
C      0.46667  0.87873  0.29602     C
O      0.46687  0.55323  0.95592     O
O      0.46687  0.91363  0.45592     O
H        0.467   0.6804   0.8637     H
H        0.467   0.7866   0.3637     H
O      0.46717  0.55543   0.4884     O
O      0.46717  0.91173   0.9884     O
C        0.468   0.1185  0.46818     C
C        0.468   0.3495  0.96818     C
C      0.46817  0.57103  0.81577     C
C      0.46817  0.89713  0.31577     C
C       0.4704   0.1613  0.45614     C
C       0.4704   0.3091  0.95614     C
C      0.47077  0.66273  0.47113     C
C      0.47077  0.80803  0.97113     C
C      0.47437  0.51723  0.37543     C
C      0.47437  0.95713  0.87543     C
C       0.4747   0.6706   0.3622     C
C       0.4747   0.8041   0.8622     C
C      0.47483  0.09517  0.18809     C
C      0.47483  0.37967  0.68809     C
C      0.47663  0.02787  0.58976     C
C      0.47663  0.44877  0.08976     C
Cd     0.47665  0.48094   0.0524    Cd
Cd     0.47665  0.99572   0.5524    Cd
C      0.47803  0.04567  0.61134     C
C      0.47803  0.43237  0.11134     C
C      0.47867  0.53893  0.85568     C
C      0.47867  0.93973  0.35568     C
O       0.4789   0.0352  0.47182     O
O       0.4789   0.4437  0.97182     O
H      0.47947  0.73593  0.97083     H
H      0.47947  0.74353  0.47083     H
Cd     0.48094  0.00428   0.9476    Cd
Cd     0.48094  0.47665   0.4476    Cd
C      0.48277  0.52563  0.87543     C
C      0.48277  0.95713  0.37543     C
H       0.4833   0.1641   0.4431     H
H       0.4833   0.3192   0.9431     H
C      0.48393  0.08027  0.65104     C
C      0.48393  0.40367  0.15104     C
O      0.48447  0.50233  0.91566     O
O      0.48447  0.98213  0.41566     O
H      0.48563  0.11007  0.20087     H
H      0.48563  0.37557  0.70087     H
C       0.4865    0.077  0.46094     C
C       0.4865   0.4095  0.96094     C
C      0.48687  0.57223  0.32367     C
C      0.48687  0.91463  0.82367     C
C      0.48693  0.09897  0.67131     C
C      0.48693  0.38797  0.17131     C
H      0.48783  0.02897  0.12007     H
H      0.48783  0.45887  0.62007     H
H      0.48983  0.16497  0.02817     H
H      0.48983  0.32487  0.52817     H
O       0.4908   0.5764  0.05597     O
O       0.4908   0.9144  0.55597     O
C       0.4935   0.7289  0.36255     C
C       0.4935   0.7646  0.86255     C
C      0.49463  0.13707  0.71053     C
C      0.49463  0.35757  0.21053     C
C      0.49663  0.06237   0.1574     C
C      0.49663  0.43427   0.6574     C
H      0.49743  0.14997  0.72357     H
H      0.49743  0.34747  0.22357     H
O      0.49767  0.51553  0.41566     O
O      0.49767  0.98213  0.91566     O
H       0.4983   0.1565   0.1385     H
H       0.4983   0.3418   0.6385     H
Cd         0.5      0.0      0.0    Cd
Cd         0.5      0.0      0.5    Cd
Cd         0.5      0.5      0.0    Cd
Cd         0.5      0.5      0.5    Cd
H       0.5017   0.6582   0.3615     H
H       0.5017   0.8435   0.8615     H
O      0.50233  0.01787  0.08434     O
O      0.50233  0.48447  0.58434     O
H      0.50257  0.65253  0.77643     H
H      0.50257  0.85003  0.27643     H
C      0.50337  0.56573   0.3426     C
C      0.50337  0.93763   0.8426     C
C      0.50537  0.64243  0.78947     C
C      0.50537  0.86293  0.28947     C
C       0.5065   0.2354  0.13745     C
C       0.5065   0.2711  0.63745     C
O       0.5092   0.0856  0.44403     O
O       0.5092   0.4236  0.94403     O
H      0.51017  0.67513  0.47183     H
H      0.51017  0.83503  0.97183     H
H      0.51217  0.54113  0.37993     H
H      0.51217  0.97103  0.87993     H
C      0.51307  0.61203  0.82869     C
C      0.51307  0.90103  0.32869     C
C      0.51313  0.08537  0.17633     C
C      0.51313  0.42777  0.67633     C
C       0.5135   0.5905  0.03906     C
C       0.5135    0.923  0.53906     C
H      0.51437  0.62443  0.29913     H
H      0.51437  0.88993  0.79913     H
O      0.51553  0.01787  0.58434     O
O      0.51553  0.49767  0.08434     O
C      0.51607  0.59633  0.84896     C
C      0.51607  0.91973  0.34896     C
H       0.5167   0.6808   0.0569     H
H       0.5167   0.8359   0.5569     H
C      0.51723  0.04287  0.62457     C
C      0.51723  0.47437  0.12457     C
Cd     0.51906  0.52335   0.5524    Cd
Cd     0.51906  0.99572   0.0524    Cd
H      0.52053  0.25647  0.52917     H
H      0.52053  0.26407  0.02917     H
O       0.5211   0.5563  0.02818     O
O       0.5211   0.9648  0.52818     O
C      0.52133  0.06027  0.64432     C
C      0.52133  0.46107  0.14432     C
C      0.52197  0.56763  0.88866     C
C      0.52197  0.95433  0.38866     C
Cd     0.52335  0.00428   0.4476    Cd
Cd     0.52335  0.51906   0.9476    Cd
C      0.52337  0.55123  0.91024     C
C      0.52337  0.97213  0.41024     C
C      0.52517  0.62033  0.31191     C
C      0.52517  0.90483  0.81191     C
C       0.5253   0.1959   0.1378     C
C       0.5253   0.3294   0.6378     C
C      0.52563  0.04287  0.12457     C
C      0.52563  0.48277  0.62457     C
C      0.52923  0.19197  0.02887     C
C      0.52923  0.33727  0.52887     C
C       0.5296   0.6909  0.04386     C
C       0.5296   0.8387  0.54386     C
C      0.53183  0.10287  0.68423     C
C      0.53183  0.42897  0.18423     C
C        0.532   0.6505  0.03182     C
C        0.532   0.8815  0.53182     C
O      0.53283  0.08827   0.0116     O
O      0.53283  0.44457   0.5116     O
H        0.533   0.2134   0.6363     H
H        0.533   0.3196   0.1363     H
O      0.53313  0.08637  0.54408     O
O      0.53313  0.44677  0.04408     O
C      0.53333  0.12127  0.70398     C
C      0.53333  0.41207  0.20398     C
C      0.53893  0.06027  0.14432     C
C      0.53893  0.47867  0.64432     C
H      0.54113  0.02897  0.62007     H
H      0.54113  0.51217  0.12007     H
H        0.544   0.7718    0.046     H
H        0.544   0.7722    0.546     H
C       0.5454   0.7454  0.03731     C
C       0.5454      0.8  0.53731     C
C        0.546    0.253  0.63664     C
C        0.546    0.293  0.13664     C
H      0.54673  0.19967  0.53037     H
H      0.54673  0.34707  0.03037     H
C      0.54763  0.25167  0.02957     C
C      0.54763  0.29597  0.52957     C
C      0.54817  0.68283  0.80151     C
C      0.54817  0.86533  0.30151     C
C      0.54883  0.10937  0.02844     C
C      0.54883  0.43947  0.52844     C
O       0.5499   0.6164  0.54373     O
O       0.5499   0.9335  0.04373     O
C       0.5512    0.666  0.01208     C
C       0.5512   0.8852  0.51208     C
C      0.55123  0.02787  0.08976     C
C      0.55123  0.52337  0.58976     C
C      0.55187  0.66733  0.82125     C
C      0.55187  0.88453  0.32125     C
H        0.553   0.6389   0.0038     H
H        0.553   0.9141   0.5038     H
O      0.55323  0.08637  0.04408     O
O      0.55323  0.46687  0.54408     O
C      0.55517  0.63683  0.86249     C
C      0.55517  0.91833  0.36249     C
O      0.55543  0.08827   0.5116     O
O      0.55543  0.46717   0.0116     O
O       0.5563   0.0352  0.97182     O
O       0.5563   0.5211  0.47182     O
H       0.5566   0.7089   0.5342     H
H       0.5566   0.8477   0.0342     H
C       0.5573   0.7728  0.36177     C
C       0.5573   0.7845  0.86177     C
C      0.55787  0.62343   0.8823     C
C      0.55787  0.93443   0.3823     C
C      0.55997  0.60603  0.34892     C
C      0.55997  0.95393  0.84892     C
C      0.56053  0.10937  0.52844     C
C      0.56053  0.45117  0.02844     C
H      0.56113  0.12267  0.71267     H
H      0.56113  0.43847  0.21267     H
H      0.56153  0.12267  0.21267     H
H      0.56153  0.43887  0.71267     H
O      0.56257  0.58513  0.92143     O
O      0.56257  0.97743  0.42143     O
C       0.5638   0.7623  0.01756     C
C       0.5638   0.8015  0.51756     C
C      0.56573  0.06237   0.6574     C
C      0.56573  0.50337   0.1574     C
C       0.5662   0.6176  0.52573     C
C       0.5662   0.9486  0.02573     C
C      0.56763  0.04567  0.11134     C
C      0.56763  0.52197  0.61134     C
C       0.5677   0.7213  0.00464     C
C       0.5677   0.8464  0.50464     C
C      0.56873  0.17317  0.02922     C
C      0.56873  0.39557  0.52922     C
O      0.56943  0.57645  0.51825     O
O      0.56943  0.99298  0.01825     O
C      0.57103  0.10287  0.18423     C
C      0.57103  0.46817  0.68423     C
C       0.5715    0.713  0.52142     C
C       0.5715   0.8585  0.02142     C
C      0.57223  0.08537  0.67633     C
C      0.57223  0.48687  0.17633     C
H       0.5727   0.6589   0.9752     H
H       0.5727   0.9138   0.4752     H
H      0.57287  0.60023  0.36113     H
H      0.57287  0.97263  0.86113     H
O       0.5764   0.0856  0.94403     O
O       0.5764   0.4908  0.44403     O
O      0.57645  0.00702  0.48175     O
O      0.57645  0.56943  0.98175     O
O       0.5784   0.7779  0.34493     O
O       0.5784   0.8005  0.84493     O
C      0.57917  0.66183   0.3194     C
C      0.57917  0.91733   0.8194     C
O       0.5803   0.7801  0.87741     O
O       0.5803   0.8002  0.37741     O
H      0.58047  0.67443  0.85813     H
H      0.58047  0.90603  0.35813     H
H      0.58077  0.69443  0.82953     H
H      0.58077  0.88633  0.32953     H
O      0.58107  0.75693  0.77736     O
O      0.58107  0.82413  0.27736     O
C       0.5813   0.7611  0.50966     C
C       0.5813   0.8202  0.00966     C
H      0.58337  0.65173  0.89103     H
H      0.58337  0.93163  0.39103     H
C        0.584   0.6715  0.51393     C
C        0.584   0.9125  0.01393     C
C        0.585   0.2143   0.1371     C
C        0.585   0.3707   0.6371     C
C        0.585   0.6965  0.97084     C
C        0.585   0.8885  0.47084     C
O      0.58513  0.02257  0.07857     O
O      0.58513  0.56257  0.57857     O
C      0.58633  0.21267  0.53003     C
C      0.58633  0.37367  0.03003     C
C       0.5864    0.737  0.98437     C
C       0.5864   0.8494  0.48437     C
C      0.58793  0.12127  0.20398     C
C      0.58793  0.46667  0.70398     C
C      0.58967  0.74283  0.79427     C
C      0.58967  0.84683  0.29427     C
H       0.5898   0.1872   0.6375     H
H       0.5898   0.4026   0.1375     H
C       0.5905    0.077  0.96094     C
C       0.5905   0.5135  0.46094     C
C      0.59633  0.08027  0.15104     C
C      0.59633  0.51607  0.65104     C
C      0.59657  0.65323  0.33778     C
C      0.59657  0.94333  0.83778     C
H       0.5974   0.1872   0.1375     H
H       0.5974   0.4102   0.6375     H
H       0.5983   0.6816   0.9423     H
H       0.5983   0.9167   0.4423     H
O      0.60017  0.71693   0.2896     O
O      0.60017  0.88323   0.7896     O
H      0.60023  0.02737  0.63887     H
H      0.60023  0.57287  0.13887     H
C       0.6011   0.7099  0.95103     C
C       0.6011   0.8912  0.45103     C
C       0.6043   0.7676  0.49073     C
C       0.6043   0.8367  0.99073     C
C      0.60443  0.17317  0.52922     C
C      0.60443  0.43127  0.02922     C
C      0.60603  0.04607  0.65108     C
C      0.60603  0.55997  0.15108     C
C       0.6064   0.7944  0.97765     C
C       0.6064    0.812  0.47765     C
C       0.6068   0.2932  0.63625     C
C       0.6068   0.3136  0.13625     C
C      0.60703  0.29227   0.0309     C
C      0.60703  0.31477   0.5309     C
C         0.61   0.6801  0.49555     C
C         0.61   0.9299  0.99555     C
C      0.61203  0.09897  0.17131     C
C      0.61203  0.51307  0.67131     C
C      0.61527  0.71573   0.3076     C
C      0.61527  0.89953   0.8076     C
O       0.6164   0.0665  0.45627     O
O       0.6164   0.5499  0.95627     O
C       0.6176   0.0514  0.47427     C
C       0.6176   0.5662  0.97427     C
H       0.6202   0.6536   0.4907     H
H       0.6202   0.9666   0.9907     H
C      0.62033  0.09517  0.68809     C
C      0.62033  0.52517  0.18809     C
C       0.6206   0.7273  0.48441     C
C       0.6206   0.8933  0.98441     C
C        0.621   0.7657  0.94467     C
C        0.621   0.8553  0.44467     C
C      0.62343  0.06557   0.1177     C
C      0.62343  0.55787   0.6177     C
C       0.6238   0.8077   0.9579     C
C       0.6238   0.8161   0.4579     C
H      0.62443  0.11007  0.70087     H
H      0.62443  0.51437  0.20087     H
C       0.6256   0.2737  0.13577     C
C       0.6256   0.3519  0.63577     C
C      0.62633  0.21267  0.03003     C
C      0.62633  0.41367  0.53003     C
C      0.62653  0.27347  0.53042     C
C      0.62653  0.35307  0.03042     C
C       0.6293   0.2143   0.6371     C
C       0.6293    0.415   0.1371     C
O      0.63147  0.77703  0.80515     O
O      0.63147  0.85443  0.30515     O
H      0.63327  0.67973  0.34263     H
H      0.63327  0.95353  0.84263     H
C      0.63683  0.08167  0.13751     C
C      0.63683  0.55517  0.63751     C
H       0.6377   0.7922   0.4534     H
H       0.6377   0.8455   0.9534     H
C       0.6388   0.7821  0.92309     C
C       0.6388   0.8567  0.42309     C
H       0.6389   0.0859   0.9962     H
H       0.6389    0.553   0.4962     H
H       0.6393   0.7331   0.4722     H
H       0.6393   0.9062   0.9722     H
C      0.64243  0.13707  0.21053     C
C      0.64243  0.50537  0.71053     C
O       0.6441   0.7482   0.9119     O
O       0.6441   0.8959   0.4119     O
C      0.64693  0.27347  0.03042     C
C      0.64693  0.37347  0.53042     C
C       0.6481   0.2737  0.63577     C
C       0.6481   0.3744  0.13577     C
O       0.6488   0.8178  0.41767     O
O       0.6488    0.831  0.91767     O
C       0.6505   0.1185  0.96818     C
C       0.6505    0.532  0.46818     C
H      0.65173  0.06837  0.10897     H
H      0.65173  0.58337  0.60897     H
H      0.65253  0.14997  0.22357     H
H      0.65253  0.50257  0.72357     H
H      0.65293  0.19967  0.03037     H
H      0.65293  0.45327  0.53037     H
C      0.65323  0.05667  0.66222     C
C      0.65323  0.59657  0.16222     C
H       0.6536   0.0334   0.5093     H
H       0.6536   0.6202   0.0093     H
H       0.6582   0.1565   0.6385     H
H       0.6582   0.5017   0.1385     H
H       0.6589   0.0862   0.0248     H
H       0.6589   0.5727   0.5248     H
O      0.65965  0.75688  0.31508     O
O      0.65965  0.90276  0.81508     O
C      0.66183  0.08267   0.6806     C
C      0.66183  0.57917   0.1806     C
Cd     0.66238  0.80999  0.28093    Cd
Cd     0.66238   0.8524  0.78093    Cd
C      0.66273  0.19197  0.52887     C
C      0.66273  0.47077  0.02887     C
C        0.666   0.1148  0.98792     C
C        0.666   0.5512  0.48792     C
Cd     0.66667  0.83333  0.33333    Cd
Cd     0.66667  0.83333  0.83333    Cd
C      0.66733  0.11547  0.17875     C
C      0.66733  0.55187  0.67875     C
C       0.6706   0.1959   0.6378     C
C       0.6706   0.4747   0.1378     C
Cd     0.67095  0.81427  0.88574    Cd
Cd     0.67095  0.85668  0.38574    Cd
C       0.6715   0.0875  0.48607     C
C       0.6715    0.584  0.98607     C
O      0.67369   0.7639  0.85158     O
O      0.67369  0.90978  0.35158     O
H      0.67443  0.09397  0.14187     H
H      0.67443  0.58047  0.64187     H
H      0.67513  0.16497  0.52817     H
H      0.67513  0.51017  0.02817     H
H      0.67973  0.04647  0.65737     H
H      0.67973  0.63327  0.15737     H
C       0.6801   0.0701  0.50445     C
C       0.6801     0.61  0.00445     C
H       0.6804   0.2134   0.1363     H
H       0.6804    0.467   0.6363     H
H       0.6808   0.1641   0.9431     H
H       0.6808   0.5167   0.4431     H
H       0.6816   0.0833   0.0577     H
H       0.6816   0.5983   0.5577     H
C      0.68283  0.13467  0.19849     C
C      0.68283  0.54817  0.69849     C
O      0.68453  0.83567    0.749     O
O      0.68453  0.84887    0.249     O
C      0.68523  0.29227   0.5309     C
C      0.68523  0.39297   0.0309     C
C       0.6864   0.2932  0.13625     C
C       0.6864   0.3932  0.63625     C
O      0.68923  0.77077  0.25477     O
O      0.68923  0.91847  0.75477     O
C       0.6909   0.1613  0.95614     C
C       0.6909   0.5296  0.45614     C
H      0.69403  0.76047  0.69447     H
H      0.69403  0.93357  0.19447     H
H      0.69443  0.11367  0.17047     H
H      0.69443  0.58077  0.67047     H
C      0.69453  0.80997  0.24358     C
C      0.69453  0.88457  0.74358     C
H      0.69563  0.82117  0.71327     H
H      0.69563  0.87447  0.21327     H
C       0.6965   0.1115  0.02916     C
C       0.6965    0.585  0.52916     C
H      0.70007  0.71313  0.82403     H
H      0.70007  0.98693  0.32403     H
O      0.70187  0.81223  0.36151     O
O      0.70187  0.88963  0.86151     O
C      0.70403  0.25167  0.52957     C
C      0.70403  0.45237  0.02957     C
C       0.7068   0.3136  0.63625     C
C       0.7068   0.3932  0.13625     C
C        0.707    0.253  0.13664     C
C        0.707    0.454  0.63664     C
C      0.70773  0.31477   0.0309     C
C      0.70773  0.39297   0.5309     C
H       0.7089   0.1523   0.4658     H
H       0.7089   0.5566   0.9658     H
C      0.70953  0.85057  0.20877     C
C      0.70953  0.85897  0.70877     C
C       0.7099   0.1088  0.04897     C
C       0.7099   0.6011  0.54897     C
C      0.71233  0.81137    0.222     C
C      0.71233  0.90097    0.722     C
C      0.71273  0.77337  0.68226     C
C      0.71273  0.93937  0.18226     C
C        0.713   0.1415  0.47858     C
C        0.713   0.5715  0.97858     C
H      0.71313  0.01307  0.17597     H
H      0.71313  0.70007  0.67597     H
C      0.71573  0.10047   0.6924     C
C      0.71573  0.61527   0.1924     C
O      0.71693  0.11677   0.7104     O
O      0.71693  0.60017   0.2104     O
C      0.71807  0.76713  0.85906     C
C      0.71807  0.95093  0.35906     C
C       0.7213   0.1536  0.99536     C
C       0.7213   0.5677  0.49536     C
C      0.72333  0.73677  0.67112     C
C      0.72333  0.98657  0.17112     C
C       0.7263   0.3519  0.13577     C
C       0.7263   0.3744  0.63577     C
C      0.72653  0.35307  0.53042     C
C      0.72653  0.37347  0.03042     C
C      0.72693  0.85467  0.18902     C
C      0.72693  0.87227  0.68902     C
C       0.7273   0.1067  0.51559     C
C       0.7273   0.6206  0.01559     C
C       0.7289   0.2354  0.63745     C
C       0.7289   0.4935  0.13745     C
C      0.72903  0.82997  0.67594     C
C      0.72903  0.89907  0.17594     C
C      0.73223  0.77547  0.21564     C
C      0.73223  0.95677  0.71564     C
H       0.7331   0.0938   0.5278     H
H       0.7331   0.6393   0.0278     H
O      0.73317  0.78343  0.87706     O
O      0.73317  0.94973  0.37706     O
H      0.73503  0.74997  0.22437     H
H      0.73503  0.98507  0.72437     H
H      0.73593  0.25647  0.02917     H
H      0.73593  0.47947  0.52917     H
C      0.73677  0.01343  0.32888     C
C      0.73677  0.72333  0.82888     C
C        0.737   0.1506  0.01563     C
C        0.737   0.5864  0.51563     C
C      0.74283  0.15317  0.20573     C
C      0.74283  0.58967  0.70573     C
H      0.74353  0.26407  0.52917     H
H      0.74353  0.47947  0.02917     H
C      0.74367  0.81983  0.37239     C
C      0.74367  0.92383  0.87239     C
C       0.7454      0.2  0.96269     C
C       0.7454   0.5454  0.46269     C
C      0.74693  0.81727   0.1823     C
C      0.74693  0.92967   0.6823     C
C        0.747    0.293  0.63664     C
C        0.747    0.454  0.13664     C
O       0.7482   0.1041   0.0881     O
O       0.7482   0.6441   0.5881     O
C      0.74833  0.29597  0.02957     C
C      0.74833  0.45237  0.52957     C
C      0.74833  0.77817  0.19583     C
C      0.74833  0.97017  0.69583     C
C      0.74933  0.75417  0.65274     C
C      0.74933  0.99517  0.15274     C
H      0.74997  0.01493  0.77563     H
H      0.74997  0.73503  0.27563     H
C      0.75203  0.84647  0.65701     C
C      0.75203  0.90557  0.15701     C
O      0.75227  0.84253   0.3893     O
O      0.75227  0.90973   0.8893     O
H      0.75257  0.78033  0.33713     H
H      0.75257  0.97223  0.83713     H
H      0.75287  0.76063  0.30853     H
H      0.75287  0.99223  0.80853     H
O      0.75303  0.86647  0.28926     O
O      0.75303  0.88657  0.78926     O
C      0.75417  0.00483  0.34726     C
C      0.75417  0.74933  0.84726     C
O      0.75493  0.86617  0.82174     O
O      0.75493  0.88877  0.32174     O
O      0.75688  0.09724  0.68492     O
O      0.75688  0.65965  0.18492     O
O      0.75693  0.17587  0.22264     O
O      0.75693  0.58107  0.72264     O
H      0.76047  0.06643  0.30553     H
H      0.76047  0.69403  0.80553     H
H      0.76063  0.00777  0.69147     H
H      0.76063  0.75287  0.19147     H
C       0.7611   0.1798  0.49034     C
C       0.7611   0.5813  0.99034     C
C      0.76183  0.80817  0.64525     C
C      0.76183  0.95367  0.14525     C
C       0.7623   0.1985  0.98244     C
C       0.7623   0.5638  0.48244     C
O       0.7639  0.09022  0.14842     O
O       0.7639  0.67369  0.64842     O
C       0.7646   0.2711  0.13745     C
C       0.7646   0.4935  0.63745     C
C      0.76563  0.82027  0.16203     C
C      0.76563  0.94537  0.66203     C
C       0.7657   0.1447  0.05533     C
C       0.7657    0.621  0.55533     C
C      0.76713  0.04907  0.14094     C
C      0.76713  0.71807  0.64094     C
C       0.7676   0.1633  0.50927     C
C       0.7676   0.6043  0.00927     C
C      0.76953  0.86517  0.14911     C
C      0.76953  0.90437  0.64911     C
O      0.77077  0.08153  0.74523     O
O      0.77077  0.68923  0.24523     O
H       0.7718   0.2278    0.954     H
H       0.7718    0.544    0.454     H
H       0.7722   0.2282    0.454     H
H       0.7722    0.544    0.954     H
C       0.7728   0.2155  0.63823     C
C       0.7728   0.5573  0.13823     C
C      0.77337  0.06063  0.31774     C
C      0.77337  0.71273  0.81774     C
C      0.77547  0.04323  0.78436     C
C      0.77547  0.73223  0.28436     C
C      0.77603  0.88217   0.8049     C
C      0.77603  0.89387   0.3049     C
H      0.77673  0.81897  0.63247     H
H      0.77673  0.95777  0.13247     H
O      0.77703  0.14557  0.19485     O
O      0.77703  0.63147  0.69485     O
O       0.7779   0.1995  0.65507     O
O       0.7779   0.5784  0.15507     O
C      0.77817  0.02983  0.80417     C
C      0.77817  0.74833  0.30417     C
O       0.7801   0.1998  0.12259     O
O       0.7801   0.5803  0.62259     O
H      0.78033  0.02777  0.66287     H
H      0.78033  0.75257  0.16287     H
C      0.78147  0.78213  0.34541     C
C      0.78147  0.99933  0.84541     C
C       0.7821   0.1433  0.07691     C
C       0.7821   0.6388  0.57691     C
C      0.78213  0.00067  0.65459     C
C      0.78213  0.78147  0.15459     C
O      0.78343  0.05027  0.12294     O
O      0.78343  0.73317  0.62294     O
C       0.7845   0.2272  0.13823     C
C       0.7845   0.5573  0.63823     C
C      0.78517  0.80133  0.36515     C
C      0.78517  0.98383  0.86515     C
C       0.7857   0.3707   0.1371     C
C       0.7857    0.415   0.6371     C
H       0.7866   0.3196   0.6363     H
H       0.7866    0.467   0.1363     H
C      0.78733  0.37367  0.53003     C
C      0.78733  0.41367  0.03003     C
C      0.78793  0.86667  0.12936     C
C      0.78793  0.92127  0.62936     C
H      0.78933  0.89447  0.12067     H
H      0.78933  0.89487  0.62067     H
H       0.7922   0.1545   0.5466     H
H       0.7922   0.6377   0.0466     H
C       0.7944    0.188  0.02235     C
C       0.7944   0.6064  0.52235     C
C          0.8   0.2546  0.46269     C
C          0.8   0.5454  0.96269     C
O       0.8002   0.2199  0.62259     O
O       0.8002   0.5803  0.12259     O
H      0.80033  0.34707  0.53037     H
H      0.80033  0.45327  0.03037     H
O       0.8005   0.2221  0.15507     O
O       0.8005   0.5784  0.65507     O
C      0.80133  0.01617  0.63485     C
C      0.80133  0.78517  0.13485     C
C       0.8015   0.2377  0.48244     C
C       0.8015   0.5638  0.98244     C
C      0.80373  0.82797  0.12281     C
C      0.80373  0.97577  0.62281     C
C       0.8041   0.3294   0.1378     C
C       0.8041   0.4747   0.6378     C
C       0.8077   0.1839   0.0421     C
C       0.8077   0.6238   0.5421     C
C      0.80803  0.33727  0.02887     C
C      0.80803  0.47077  0.52887     C
C      0.80817  0.04633  0.35475     C
C      0.80817  0.76183  0.85475     C
C      0.80997  0.11543  0.75642     C
C      0.80997  0.69453  0.25642     C
Cd     0.80999   0.1476  0.71907    Cd
Cd     0.80999  0.66238  0.21907    Cd
C      0.81137  0.09903    0.778     C
C      0.81137  0.71233    0.278     C
C        0.812   0.2056  0.52235     C
C        0.812   0.6064  0.02235     C
O      0.81223  0.11037  0.63849     O
O      0.81223  0.70187  0.13849     O
H       0.8128   0.4026   0.6375     H
H       0.8128   0.4102   0.1375     H
Cd     0.81427  0.14332  0.11426    Cd
Cd     0.81427  0.67095  0.61426    Cd
C       0.8161   0.1923   0.5421     C
C       0.8161   0.6238   0.0421     C
H      0.81663  0.83077  0.10977     H
H      0.81663  0.98587  0.60977     H
C      0.81727  0.07033   0.8177     C
C      0.81727  0.74693   0.3177     C
O       0.8178    0.169  0.58233     O
O       0.8178   0.6488  0.08233     O
H      0.81897  0.04223  0.36753     H
H      0.81897  0.77673  0.86753     H
C      0.81983  0.07617  0.62761     C
C      0.81983  0.74367  0.12761     C
C       0.8202   0.2389  0.99034     C
C       0.8202   0.5813  0.49034     C
C      0.82027  0.05463  0.83797     C
C      0.82027  0.76563  0.33797     C
H      0.82117  0.12553  0.28673     H
H      0.82117  0.69563  0.78673     H
H      0.82317  0.83163  0.69483     H
H      0.82317  0.99153  0.19483     H
O      0.82413  0.24307  0.72264     O
O      0.82413  0.58107  0.22264     O
C      0.82683  0.39557  0.02922     C
C      0.82683  0.43127  0.52922     C
C      0.82797  0.02423  0.87719     C
C      0.82797  0.80373  0.37719     C
C      0.82997  0.10093  0.32406     C
C      0.82997  0.72903  0.82406     C
H      0.83077  0.01413  0.89023     H
H      0.83077  0.81663  0.39023     H
O        0.831   0.1822  0.08233     O
O        0.831   0.6488  0.58233     O
H      0.83163  0.00847  0.30517     H
H      0.83163  0.82317  0.80517     H
Cd     0.83333  0.16667  0.16667    Cd
Cd     0.83333  0.16667  0.66667    Cd
Cd     0.83333  0.66667  0.16667    Cd
Cd     0.83333  0.66667  0.66667    Cd
H      0.83503  0.32487  0.02817     H
H      0.83503  0.51017  0.52817     H
O      0.83567  0.15113    0.251     O
O      0.83567  0.68453    0.751     O
H       0.8359   0.3192   0.4431     H
H       0.8359   0.5167   0.9431     H
C       0.8367   0.2324  0.00927     C
C       0.8367   0.6043  0.50927     C
C       0.8387   0.3091  0.45614     C
C       0.8387   0.5296  0.95614     C
C      0.83983  0.90207  0.80412     C
C      0.83983  0.93777  0.30412     C
O      0.84253  0.09027   0.6107     O
O      0.84253  0.75227   0.1107     O
H       0.8435   0.3418   0.1385     H
H       0.8435   0.5017   0.6385     H
H       0.8455   0.2078   0.0466     H
H       0.8455   0.6377   0.5466     H
C       0.8464   0.2787  0.49536     C
C       0.8464   0.5677  0.99536     C
C      0.84647  0.09443  0.34299     C
C      0.84647  0.75203  0.84299     C
C      0.84683  0.25717  0.70573     C
C      0.84683  0.58967  0.20573     C
H       0.8477   0.2911   0.9658     H
H       0.8477   0.5566   0.4658     H
O      0.84887  0.16433    0.751     O
O      0.84887  0.68453    0.251     O
C       0.8494    0.263  0.51563     C
C       0.8494   0.5864  0.01563     C
H      0.85003  0.34747  0.72357     H
H      0.85003  0.50257  0.22357     H
C      0.85057  0.14103  0.79123     C
C      0.85057  0.70953  0.29123     C
Cd      0.8524  0.19001  0.21907    Cd
Cd      0.8524  0.66238  0.71907    Cd
H      0.85387  0.92313  0.19583     H
H      0.85387  0.93073  0.69583     H
O      0.85443  0.22297  0.69485     O
O      0.85443  0.63147  0.19485     O
C      0.85467  0.12773  0.81098     C
C      0.85467  0.72693  0.31098     C
C       0.8553   0.2343  0.55533     C
C       0.8553    0.621  0.05533     C
Cd     0.85668  0.18573  0.61426    Cd
Cd     0.85668  0.67095  0.11426    Cd
C       0.8567   0.2179  0.57691     C
C       0.8567   0.6388  0.07691     C
C       0.8585    0.287  0.97858     C
C       0.8585   0.5715  0.47858     C
C      0.85863  0.86257  0.80447     C
C      0.85863  0.99607  0.30447     C
C      0.85897  0.14943  0.29123     C
C      0.85897  0.70953  0.79123     C
C      0.86257  0.00393  0.19553     C
C      0.86257  0.85863  0.69553     C
C      0.86293  0.35757  0.71053     C
C      0.86293  0.50537  0.21053     C
C      0.86517  0.09563  0.85089     C
C      0.86517  0.76953  0.35089     C
C      0.86533  0.31717  0.69849     C
C      0.86533  0.54817  0.19849     C
O      0.86617  0.11123  0.17826     O
O      0.86617  0.75493  0.67826     O
H      0.86633  0.88007  0.30297     H
H      0.86633  0.98627  0.80297     H
O      0.86647  0.11343  0.71074     O
O      0.86647  0.75303  0.21074     O
C      0.86667  0.07873  0.87064     C
C      0.86667  0.78793  0.37064     C
C      0.87227  0.14533  0.31098     C
C      0.87227  0.72693  0.81098     C
H      0.87447  0.17883  0.78673     H
H      0.87447  0.69563  0.28673     H
H      0.87733  0.43847  0.71267     H
H      0.87733  0.43887  0.21267     H
C      0.87873  0.41207  0.70398     C
C      0.87873  0.46667  0.20398     C
C      0.87933  0.91967  0.30331     C
C      0.87933  0.95967  0.80331     C
H      0.88007  0.01373  0.69703     H
H      0.88007  0.86633  0.19703     H
C      0.88097  0.91833  0.69623     C
C      0.88097  0.96263  0.19623     C
C       0.8815   0.3495  0.46818     C
C       0.8815    0.532  0.96818     C
C      0.88217  0.10613   0.1951     C
C      0.88217  0.77603   0.6951     C
O      0.88323  0.28307   0.2104     O
O      0.88323  0.60017   0.7104     O
C      0.88453  0.33267  0.67875     C
C      0.88453  0.55187  0.17875     C
C      0.88457  0.19003  0.25642     C
C      0.88457  0.69453  0.75642     C
C       0.8852    0.334  0.48792     C
C       0.8852   0.5512  0.98792     C
H      0.88633  0.30557  0.67047     H
H      0.88633  0.58077  0.17047     H
O      0.88657  0.13353  0.21074     O
O      0.88657  0.75303  0.71074     O
C       0.8885   0.3035  0.52916     C
C       0.8885    0.585  0.02916     C
O      0.88877  0.13383  0.67826     O
O      0.88877  0.75493  0.17826     O
O      0.88963  0.18777  0.13849     O
O      0.88963  0.70187  0.63849     O
H      0.88993  0.37557  0.20087     H
H      0.88993  0.51437  0.70087     H
C      0.89063  0.43947  0.02844     C
C      0.89063  0.45117  0.52844     C
C       0.8912   0.2901  0.54897     C
C       0.8912   0.6011  0.04897     C
C       0.8933   0.2727  0.01559     C
C       0.8933   0.6206  0.51559     C
C      0.89387  0.11783   0.6951     C
C      0.89387  0.77603   0.1951     C
H      0.89447  0.10513  0.87933     H
H      0.89447  0.78933  0.37933     H
H      0.89487  0.10553  0.37933     H
H      0.89487  0.78933  0.87933     H
O       0.8959   0.2518   0.5881     O
O       0.8959   0.6441   0.0881     O
C      0.89713  0.42897  0.68423     C
C      0.89713  0.46817  0.18423     C
C      0.89907  0.17003  0.82406     C
C      0.89907  0.72903  0.32406     C
C      0.89953  0.28427   0.1924     C
C      0.89953  0.61527   0.6924     C
C      0.90097  0.18863    0.278     C
C      0.90097  0.71233    0.778     C
C      0.90103  0.38797  0.67131     C
C      0.90103  0.51307  0.17131     C
C      0.90207  0.06223  0.19588     C
C      0.90207  0.83983  0.69588     C
O      0.90276  0.24312  0.18492     O
O      0.90276  0.65965  0.68492     O
C      0.90437  0.13483  0.35089     C
C      0.90437  0.76953  0.85089     C
C      0.90483  0.37967  0.18809     C
C      0.90483  0.52517  0.68809     C
C      0.90557  0.15353  0.84299     C
C      0.90557  0.75203  0.34299     C
H      0.90603  0.32557  0.64187     H
H      0.90603  0.58047  0.14187     H
H       0.9062   0.2669   0.0278     H
H       0.9062   0.6393   0.5278     H
O      0.90973  0.15747   0.1107     O
O      0.90973  0.75227   0.6107     O
O      0.90978   0.2361  0.64842     O
O      0.90978  0.67369  0.14842     O
O      0.91173  0.44457   0.0116     O
O      0.91173  0.46717   0.5116     O
C       0.9125   0.3285  0.98607     C
C       0.9125    0.584  0.48607     C
O      0.91363  0.44677  0.54408     O
O      0.91363  0.46687  0.04408     O
H       0.9138   0.3411   0.5248     H
H       0.9138   0.5727   0.0248     H
H       0.9141   0.3611   0.4962     H
H       0.9141    0.553   0.9962     H
O       0.9144   0.4236  0.44403     O
O       0.9144   0.4908  0.94403     O
C      0.91463  0.42777  0.17633     C
C      0.91463  0.48687  0.67633     C
H       0.9167   0.3184   0.5577     H
H       0.9167   0.5983   0.0577     H
C      0.91733  0.33817   0.1806     C
C      0.91733  0.57917   0.6806     C
C      0.91833  0.03737  0.30377     C
C      0.91833  0.36317  0.63751     C
C      0.91833  0.55517  0.13751     C
C      0.91833  0.88097  0.80377     C
O      0.91847  0.22923  0.24523     O
O      0.91847  0.68923  0.74523     O
C      0.91967  0.04033  0.69669     C
C      0.91967  0.87933  0.19669     C
C      0.91973  0.40367  0.65104     C
C      0.91973  0.51607  0.15104     C
C      0.92127  0.13333  0.37064     C
C      0.92127  0.78793  0.87064     C
C        0.923   0.4095  0.46094     C
C        0.923   0.5135  0.96094     C
H      0.92313  0.06927  0.80417     H
H      0.92313  0.85387  0.30417     H
C      0.92383  0.18017  0.12761     C
C      0.92383  0.74367  0.62761     C
C      0.92967  0.18273   0.3177     C
C      0.92967  0.74693   0.8177     C
C       0.9299   0.3199  0.00445     C
C       0.9299     0.61  0.50445     C
H      0.93073  0.07687  0.30417     H
H      0.93073  0.85387  0.80417     H
H      0.93163  0.34827  0.60897     H
H      0.93163  0.58337  0.10897     H
O       0.9335   0.3836  0.95627     O
O       0.9335   0.5499  0.45627     O
H      0.93357  0.23953  0.80553     H
H      0.93357  0.69403  0.30553     H
C      0.93443  0.37657   0.6177     C
C      0.93443  0.55787   0.1177     C
C      0.93763  0.43427   0.1574     C
C      0.93763  0.50337   0.6574     C
C      0.93777  0.09793  0.69588     C
C      0.93777  0.83983  0.19588     C
C      0.93937  0.22663  0.81774     C
C      0.93937  0.71273  0.31774     C
C      0.93973  0.46107  0.64432     C
C      0.93973  0.47867  0.14432     C
C      0.94013  0.95987  0.30292     C
C      0.94013  0.98027  0.80292     C
C      0.94037  0.95893  0.69756     C
C      0.94037  0.98143  0.19756     C
C      0.94333  0.34677  0.16222     C
C      0.94333  0.59657  0.66222     C
C      0.94537  0.17973  0.33797     C
C      0.94537  0.76563  0.83797     C
C       0.9486   0.3824  0.97427     C
C       0.9486   0.5662  0.47427     C
O      0.94973  0.21657  0.62294     O
O      0.94973  0.73317  0.12294     O
C      0.95093  0.23287  0.64094     C
C      0.95093  0.71807  0.14094     C
H      0.95353  0.32027  0.15737     H
H      0.95353  0.63327  0.65737     H
C      0.95367  0.19183  0.85475     C
C      0.95367  0.76183  0.35475     C
C      0.95393  0.39397  0.15108     C
C      0.95393  0.55997  0.65108     C
C      0.95433  0.43237  0.61134     C
C      0.95433  0.52197  0.11134     C
C      0.95677  0.22453  0.28436     C
C      0.95677  0.73223  0.78436     C
C      0.95713  0.47437  0.62457     C
C      0.95713  0.48277  0.12457     C
H      0.95777  0.18103  0.86753     H
H      0.95777  0.77673  0.36753     H
C      0.95893  0.01857  0.30244     C
C      0.95893  0.94037  0.80244     C
C      0.95967  0.08033  0.19669     C
C      0.95967  0.87933  0.69669     C
C      0.95987  0.01973  0.69708     C
C      0.95987  0.94013  0.19708     C
C      0.96263  0.08167  0.80377     C
C      0.96263  0.88097  0.30377     C
O       0.9648   0.4437  0.47182     O
O       0.9648   0.5211  0.97182     O
H       0.9666   0.3464   0.0093     H
H       0.9666   0.6202   0.5093     H
C      0.97017  0.22183  0.30417     C
C      0.97017  0.74833  0.80417     C
H      0.97103  0.45887  0.12007     H
H      0.97103  0.51217  0.62007     H
C      0.97213  0.44877  0.58976     C
C      0.97213  0.52337  0.08976     C
H      0.97223  0.21967  0.16287     H
H      0.97223  0.75257  0.66287     H
H      0.97263  0.39977  0.13887     H
H      0.97263  0.57287  0.63887     H
C      0.97577  0.17203  0.37719     C
C      0.97577  0.80373  0.87719     C
O      0.97743  0.41487  0.57857     O
O      0.97743  0.56257  0.07857     O
C      0.98027  0.04013  0.19708     C
C      0.98027  0.94013  0.69708     C
C      0.98143  0.04107  0.80244     C
C      0.98143  0.94037  0.30244     C
O      0.98213  0.48447  0.08434     O
O      0.98213  0.49767  0.58434     O
C      0.98383  0.19867  0.13485     C
C      0.98383  0.78517  0.63485     C
H      0.98507  0.25003  0.27563     H
H      0.98507  0.73503  0.77563     H
H      0.98587  0.16923  0.39023     H
H      0.98587  0.81663  0.89023     H
H      0.98627  0.11993  0.19703     H
H      0.98627  0.86633  0.69703     H
C      0.98657  0.26323  0.82888     C
C      0.98657  0.72333  0.32888     C
H      0.98693  0.28687  0.67597     H
H      0.98693  0.70007  0.17597     H
H      0.99153  0.16837  0.80517     H
H      0.99153  0.82317  0.30517     H
H      0.99223  0.23937  0.19147     H
H      0.99223  0.75287  0.69147     H
O      0.99298  0.42355  0.98175     O
O      0.99298  0.56943  0.48175     O
C      0.99517  0.24583  0.84726     C
C      0.99517  0.74933  0.34726     C
Cd     0.99572  0.47665   0.9476    Cd
Cd     0.99572  0.51906   0.4476    Cd
C      0.99607  0.13743  0.69553     C
C      0.99607  0.85863  0.19553     C
C      0.99933  0.21787  0.15459     C
C      0.99933  0.78147  0.65459     C
