data_I
_chemical_name_common  '/home/zhangsd/repos/MofS-CGCNN/ML/data/TSD/clean_cifs/PIZQUM_clean'
_cell_length_a 13.01400
_cell_length_b 14.39400
_cell_length_c 16.30600
_cell_angle_alpha 90.00000
_cell_angle_beta  90.00000
_cell_angle_gamma 90.00000
_space_group_name_H-M_alt      'P 1'


loop_
_space_group_symop_operation_xyz
  'x, y, z' 

loop_
_atom_site_label
_atom_site_fract_x
_atom_site_fract_y
_atom_site_fract_z
_atom_site_type_symbol
H       0.0006    0.154   0.0979     H
N       0.0011   0.9086   0.1808     N
H       0.0021   0.1541   0.5256     H
C       0.0026   0.6922   0.4503     C
H       0.0182   0.1727   0.6945     H
C       0.0184   0.4512   0.2402     C
O       0.0205    0.862   0.0266     O
H       0.0214    0.772   0.8292     H
H       0.0252   0.3317   0.1695     H
C       0.0385   0.2354   0.6827     C
C       0.0447   0.6384   0.5182     C
H       0.0458   0.7449   0.4399     H
H       0.0467   0.9731   0.2831     H
C       0.0497   0.7644   0.6319     C
C       0.0564   0.2894   0.8368     C
Cu     0.06007  0.46299  0.41414    Cu
H       0.0612   0.5816   0.0254     H
C       0.0629    0.623   0.9792     C
C       0.0632    0.667   0.5988     C
H       0.0653   0.2131   0.0358     H
H       0.0678   0.8078   0.5888     H
C       0.0681   0.8437   0.1683     C
C       0.0698   0.3837   0.1792     C
N         0.07   0.5495   0.5092     N
C       0.0722   0.8161   0.0782     C
H       0.0761   0.5881   0.9301     H
H       0.0792   0.5827   0.7612     H
H       0.0827   0.4153   0.1284     H
H       0.0836   0.2359   0.6362     H
C       0.0889   0.5343   0.2549     C
C       0.0926   0.2752    0.755     C
H       0.0982   0.4172   0.9724     H
H       0.0983   0.7732   0.6763     H
C       0.1014   0.5904   0.6375     C
N       0.1029   0.5202   0.5822     N
O        0.114   0.5516   0.3298     O
O       0.1202   0.5786   0.1955     O
H       0.1225   0.4643   0.5927     H
O       0.1259   0.8028   0.2197     O
N       0.1306   0.7438   0.0681     N
H       0.1336    0.362   0.2017     H
C       0.1355    0.572   0.7244     C
C       0.1362   0.3328    0.876     C
H       0.1396   0.3202   0.0011     H
C       0.1478   0.6947   0.9915     C
C       0.1487   0.3699   0.9625     C
H       0.1493   0.7385   0.9455     H
H        0.158   0.5087   0.7293     H
N       0.1884   0.3074   0.7483     N
H       0.1912   0.6129   0.7381     H
O       0.2094   0.3572   0.5717     O
Cu     0.20982  0.70564  0.16047    Cu
O       0.2134    0.393   0.4385     O
N       0.2138    0.341   0.8228     N
H       0.2162   0.3958   0.9687     H
H       0.2273   0.6353   0.3346     H
C       0.2497   0.3546   0.4993     C
C       0.2503   0.6454   0.9993     C
H       0.2727   0.3647   0.8346     H
H       0.2838   0.6042   0.4687     H
N       0.2862    0.659   0.3228     N
O       0.2866    0.607   0.9385     O
Cu     0.29018  0.29436  0.66047    Cu
O       0.2906   0.6428   0.0717     O
H       0.3088   0.3871   0.2381     H
N       0.3116   0.6926   0.2483     N
H        0.342   0.4913   0.2293     H
H       0.3507   0.2615   0.4455     H
C       0.3513   0.6301   0.4625     C
C       0.3522   0.3053   0.4915     C
H       0.3604   0.6798   0.5011     H
C       0.3638   0.6672    0.376     C
C       0.3645    0.428   0.2244     C
H       0.3664    0.638   0.7017     H
N       0.3694   0.2562   0.5681     N
O       0.3741   0.1972   0.7197     O
H       0.3775   0.5357   0.0927     H
O       0.3798   0.4214   0.6955     O
O        0.386   0.4484   0.8298     O
N       0.3971   0.4798   0.0822     N
C       0.3986   0.4096   0.1375     C
H       0.4017   0.2268   0.1763     H
H       0.4018   0.5828   0.4724     H
C       0.4074   0.7248    0.255     C
C       0.4111   0.4657   0.7549     C
H       0.4164   0.7641   0.1362     H
H       0.4173   0.5847   0.6284     H
H       0.4208   0.4173   0.2612     H
H       0.4239   0.4119   0.4301     H
C       0.4278   0.1839   0.5782     C
N         0.43   0.4505   0.0092     N
C       0.4302   0.6163   0.6792     C
C       0.4319   0.1563   0.6683     C
H       0.4322   0.1922   0.0888     H
H       0.4347   0.7869   0.5358     H
C       0.4368    0.333   0.0988     C
C       0.4371    0.377   0.4792     C
H       0.4388   0.4184   0.5254     H
Cu     0.43993  0.53701  0.91414    Cu
C       0.4436   0.7106   0.3368     C
C       0.4503   0.2356   0.1319     C
H       0.4533   0.0269   0.7831     H
H       0.4542   0.2551   0.9399     H
C       0.4553   0.3616   0.0182     C
C       0.4615   0.7646   0.1827     C
H       0.4748   0.6683   0.6695     H
H       0.4786    0.228   0.3292     H
O       0.4795    0.138   0.5266     O
C       0.4816   0.5488   0.7402     C
H       0.4818   0.8273   0.1945     H
C       0.4974   0.3078   0.9503     C
H       0.4979   0.8459   0.0256     H
N       0.4989   0.0914   0.6808     N
H       0.4994    0.846   0.5979     H
H       0.5006    0.346   0.9021     H
N       0.5011   0.5914   0.8192     N
H       0.5021   0.3459   0.4744     H
C       0.5026   0.8078   0.5497     C
H       0.5182   0.3273   0.3055     H
C       0.5184   0.0488   0.7598     C
O       0.5205    0.638   0.9734     O
H       0.5214    0.728   0.1708     H
H       0.5252   0.1683   0.8305     H
C       0.5385   0.2646   0.3173     C
C       0.5447   0.8616   0.4818     C
H       0.5458   0.7551   0.5601     H
H       0.5467   0.5269   0.7169     H
C       0.5497   0.7356   0.3681     C
C       0.5564   0.2106   0.1632     C
Cu     0.56007  0.03701  0.58586    Cu
H       0.5612   0.9184   0.9746     H
C       0.5629    0.877   0.0208     C
C       0.5632    0.833   0.4012     C
H       0.5653   0.2869   0.9642     H
H       0.5678   0.6922   0.4112     H
C       0.5681   0.6563   0.8317     C
C       0.5698   0.1163   0.8208     C
N         0.57   0.9505   0.4908     N
C       0.5722   0.6839   0.9218     C
H       0.5761   0.9119   0.0699     H
H       0.5792   0.9173   0.2388     H
H       0.5827   0.0847   0.8716     H
H       0.5836   0.2641   0.3638     H
C       0.5889   0.9657   0.7451     C
C       0.5926   0.2248    0.245     C
H       0.5982   0.0828   0.0276     H
H       0.5983   0.7268   0.3237     H
C       0.6014   0.9096   0.3625     C
N       0.6029   0.9798   0.4178     N
O        0.614   0.9484   0.6702     O
O       0.6202   0.9214   0.8045     O
H       0.6225   0.0357   0.4073     H
O       0.6259   0.6972   0.7803     O
N       0.6306   0.7562   0.9319     N
H       0.6336    0.138   0.7983     H
C       0.6355    0.928   0.2756     C
C       0.6362   0.1672    0.124     C
H       0.6396   0.1798   0.9989     H
C       0.6478   0.8053   0.0085     C
C       0.6487   0.1301   0.0375     C
H       0.6493   0.7615   0.0545     H
H        0.658   0.9913   0.2707     H
N       0.6884   0.1926   0.2517     N
H       0.6912   0.8871   0.2619     H
O       0.7094   0.1428   0.4283     O
Cu     0.70982  0.79436  0.83953    Cu
O       0.7134    0.107   0.5615     O
N       0.7138    0.159   0.1772     N
H       0.7162   0.1042   0.0313     H
H       0.7273   0.8647   0.6654     H
C       0.7497   0.1454   0.5007     C
C       0.7503   0.8546   0.0007     C
H       0.7727   0.1353   0.1654     H
H       0.7838   0.8958   0.5313     H
N       0.7862    0.841   0.6772     N
O       0.7866    0.893   0.0615     O
Cu     0.79018  0.20564  0.33953    Cu
O       0.7906   0.8572   0.9283     O
H       0.8088   0.1129   0.7619     H
N       0.8116   0.8074   0.7517     N
H        0.842   0.0087   0.7707     H
H       0.8507   0.2385   0.5545     H
C       0.8513   0.8699   0.5375     C
C       0.8522   0.1947   0.5085     C
H       0.8604   0.8202   0.4989     H
C       0.8638   0.8328    0.624     C
C       0.8645    0.072   0.7756     C
H       0.8664    0.862   0.2983     H
N       0.8694   0.2438   0.4319     N
O       0.8741   0.3028   0.2803     O
H       0.8775   0.9643   0.9073     H
O       0.8798   0.0786   0.3045     O
O        0.886   0.0516   0.1702     O
N       0.8971   0.0202   0.9178     N
C       0.8986   0.0904   0.8625     C
H       0.9017   0.2732   0.8237     H
H       0.9018   0.9172   0.5276     H
C       0.9074   0.7752    0.745     C
C       0.9111   0.0343   0.2451     C
H       0.9164   0.7359   0.8638     H
H       0.9173   0.9153   0.3716     H
H       0.9208   0.0827   0.7388     H
H       0.9239   0.0881   0.5699     H
C       0.9278   0.3161   0.4218     C
N         0.93   0.0495   0.9908     N
C       0.9302   0.8837   0.3208     C
C       0.9319   0.3437   0.3317     C
H       0.9322   0.3078   0.9112     H
H       0.9347   0.7131   0.4642     H
C       0.9368    0.167   0.9012     C
C       0.9371    0.123   0.5208     C
H       0.9388   0.0816   0.4746     H
Cu     0.93993  0.96299  0.08586    Cu
C       0.9436   0.7894   0.6632     C
C       0.9503   0.2644   0.8681     C
H       0.9533   0.4731   0.2169     H
H       0.9542   0.2449   0.0601     H
C       0.9553   0.1384   0.9818     C
C       0.9615   0.7354   0.8173     C
H       0.9748   0.8317   0.3305     H
H       0.9786    0.272   0.6708     H
O       0.9795    0.362   0.4734     O
C       0.9816   0.9512   0.2598     C
H       0.9818   0.6727   0.8055     H
C       0.9974   0.1922   0.0497     C
H       0.9979   0.6541   0.9744     H
N       0.9989   0.4086   0.3192     N
H       0.9994    0.654   0.4021     H
