data_I
_chemical_name_common  '/home/zhangsd/repos/MofS-CGCNN/ML/data/TSD/clean_cifs/PODKUQ_clean'
_cell_length_a 36.78760
_cell_length_b 36.78760
_cell_length_c 37.71530
_cell_angle_alpha 119.19000
_cell_angle_beta  119.19000
_cell_angle_gamma 90.00000
_space_group_name_H-M_alt      'P 1'


loop_
_space_group_symop_operation_xyz
  'x, y, z' 

loop_
_atom_site_label
_atom_site_fract_x
_atom_site_fract_y
_atom_site_fract_z
_atom_site_type_symbol
C       0.0034   0.3899   0.2672     C
C      0.00393  0.28413  0.46466     C
H        0.004   0.6275   0.7238     H
C      0.00571  0.75473  0.54262     C
C      0.00985  0.73345   0.2229     C
H       0.0114   0.6866   0.5746     H
C      0.01357  0.69338  0.20096     C
H       0.0148   0.2399   0.4806     H
H       0.0159   0.2643   0.7772     H
C       0.0162  0.58547  0.77934     C
C      0.02012   0.3458   0.8166     C
C      0.02112  0.71151  0.57604     C
N      0.02129  0.38677  0.84014     N
C      0.02673  0.42153  0.23026     C
C      0.02815  0.59998  0.76096     C
H       0.0311   0.4246    0.209     H
H       0.0371   0.7995   0.2594     H
H       0.0373   0.5788    0.801     H
C      0.04172  0.77188  0.24576     C
C      0.04486  0.78761  0.58312     C
C        0.045   0.4039    0.283     C
C      0.04569  0.31936  0.50838     C
C      0.04693   0.6917   0.1988     C
H       0.0486   0.6635   0.1802     H
H        0.053   0.8131   0.5846     H
N       0.0559  0.41178  0.85396     N
C      0.05622  0.34816  0.81632     C
N      0.05928  0.35704  0.51596     N
C      0.05993  0.42365   0.2677     C
C       0.0607  0.74541    0.618     C
H       0.0641   0.3238      0.8     H
H       0.0663   0.3997    0.307     H
C      0.07139  0.78347  0.62038     C
C      0.07347   0.6079   0.7738     C
C      0.07707  0.31909  0.54614     C
H       0.0773   0.2957   0.5504     H
N       0.0778  0.38734  0.84068     N
H       0.0797   0.7424    0.644     H
C      0.08077   0.7277   0.2214     C
C      0.08077  0.76867  0.24794     C
N      0.08864  0.62412  0.75744     N
H       0.0902   0.4399    0.225     H
H       0.0927   0.9337    0.693     H
H       0.0932   0.8663    0.657     H
H       0.0963    0.004   0.7238     H
H       0.0984   0.9203    0.356     H
N      0.09852  0.38055  0.55704     N
H       0.1034    0.847   0.3232     H
C      0.10383  0.43657  0.28114     C
H       0.1046   0.7234    0.218     H
C      0.10611  0.60272  0.80426     C
H       0.1062   0.5945   0.8246     H
N      0.10769  0.35716  0.57638     N
H        0.112   0.9886   0.4254     H
C      0.11325  0.81996   0.6671     C
C      0.11339   0.4457   0.2556     C
H       0.1134   0.4946    0.218     H
H       0.1155   0.3465   0.7988     H
C       0.1164  0.80947  0.27314     C
C       0.1171  0.86096   0.6778     C
C      0.11941  0.40457  0.85142     C
C      0.12081  0.84684  0.31108     C
C       0.1209    0.955    0.717     C
C       0.1227   0.9966   0.7328     C
C      0.12741   0.9393    0.382     C
N      0.12903  0.62431  0.77232     N
H       0.1316   0.5167   0.1802     H
N      0.13332  0.08864  0.75744     N
C      0.13347  0.37602  0.82406     C
H       0.1337   0.4362    0.343     H
H       0.1345   0.3232   0.6276     H
H       0.1348   0.7851    0.225     H
C      0.13547  0.97888  0.42396     C
H       0.1355    0.469    0.907     H
C      0.13904   0.4393   0.3222     C
N      0.13994  0.61126  0.80188     N
C      0.14063   0.4937   0.2214     C
C      0.14221   0.8099   0.2556     C
C      0.14541  0.44922  0.88846     C
N      0.14801  0.12903  0.77232     N
C      0.14832  0.37229  0.62142     C
C      0.15187   0.5071   0.1988     C
C      0.15286  0.88675   0.3329     C
H        0.153   0.7802   0.6768     H
C      0.15316  0.80973  0.68892     C
C      0.15543  0.89617  0.71886     C
C      0.15595  0.94007   0.7323     C
C      0.15601  0.34933  0.64286     C
C      0.15674  0.46367  0.27314     C
N      0.15892  0.05928  0.51596     N
C      0.16098  0.02815  0.76096     C
O      0.16276  0.32208    0.768     O
C      0.16309  0.92861  0.37962     C
C       0.1659  0.07347   0.7738     C
C      0.16717  0.47927  0.24794     C
O      0.17166  0.31154  0.69502     O
C       0.1734  0.39036  0.83354     C
H        0.174    0.426    0.627     H
Cu     0.17582  0.27821  0.72378    Cu
N      0.17649  0.09852  0.55704     N
C      0.17731  0.84457  0.28114     C
H       0.1779   0.7844    0.209     H
C      0.17936  0.41073  0.64244     C
C      0.18004  0.44615   0.3329     C
C      0.18053  0.00393  0.46466     C
H       0.1811   0.6154   0.8836     H
N      0.18115  0.54663  0.15986     N
H       0.1817   0.1956   0.7762     H
C      0.18257  0.60573  0.82666     C
C      0.18316   0.8829   0.3222     C
C      0.18475  0.46321  0.89692     C
H       0.1869   0.4684   0.4154     H
C      0.18739  0.50758  0.20096     C
C      0.18902  0.04569  0.50838     C
C      0.18983   0.3595  0.80522     C
C       0.1901  0.88661   0.7444     C
C      0.19027  0.46424  0.31108     C
C      0.19053  0.84326  0.72686     C
N      0.19062  0.13994  0.80188     N
C      0.19127  0.97327  0.76974     C
O       0.1923  0.25195  0.76176     O
C      0.19387   0.0162  0.77934     C
O      0.19495  0.53764  0.95054     O
C      0.19549  0.36457  0.68708     C
H       0.1956   0.5945   0.7762     H
C      0.19737  0.60802  0.86912     C
C      0.19982  0.43441  0.87174     C
H       0.2005   0.7777   0.7406     H
H        0.201    0.174    0.627     H
C      0.20154  0.10611  0.80426     C
O      0.20192  0.24256  0.69078     O
N      0.20194  0.55782  0.14604     N
C      0.20341   0.3422  0.71198     C
C      0.20352   0.5292   0.1834     C
C      0.20353  0.80873  0.23026     C
C      0.20404  0.47388  0.24576     C
C      0.20449  0.95514  0.41688     C
C      0.20626  0.59572  0.80544     C
C      0.20777  0.84405   0.2677     C
H       0.2093   0.9068    0.343     H
C      0.20972  0.20626  0.80544     C
C      0.21211  0.99429  0.45738     C
C      0.21239  0.46174  0.41688     C
C      0.21305  0.48945   0.2229     C
C      0.21333  0.50978  0.93456     C
H       0.2149   0.9098    0.775     H
H       0.2156   0.9689    0.791     H
C      0.21653  0.45101  0.37962     C
C      0.21906  0.42592  0.68764     C
N      0.21922  0.10769  0.57638     N
H       0.2198   0.4762   0.3232     H
C      0.22093  0.18257  0.82666     C
H       0.2222   0.0373    0.801     H
H       0.2223   0.4599   0.2594     H
O      0.22488  0.60558  0.94928     O
C      0.22705  0.07707  0.54614     C
C      0.22741  0.40298  0.70932     C
C      0.22812  0.79596  0.75424     C
H       0.2284   0.4441     0.88     H
H       0.2285    0.562    0.093     H
H       0.2285    0.947   0.4154     H
C      0.22936  0.26863  0.80214     C
Cu     0.22961  0.59943     -0.0    Cu
H       0.2301   0.1062   0.8246     H
O      0.23012  0.37223   0.8217     O
C      0.23133  0.83283  0.75206     C
C      0.23171  0.17936  0.64244     C
C      0.23537  0.59966  0.89024     C
H       0.2363   0.7778    0.199     H
C      0.23686  0.80613  0.22066     C
N      0.23712  0.54666  0.15932     N
C        0.238   0.8791    0.283     C
H       0.2387   0.4871   0.2228     H
C        0.239  0.24492   0.8267     C
H       0.2399   0.4658   0.4806     H
C       0.2399  0.53184  0.18368     C
H       0.2407   0.0148   0.4806     H
H       0.2407   0.9073    0.307     H
O      0.24161   0.3543  0.74884     O
C      0.24242  0.25177  0.71206     C
O      0.24256  0.48886  0.69078     O
O      0.24441   0.5871  0.04946     O
C      0.24492   0.5877   0.8267     C
C      0.24527  0.46309  0.45738     C
C      0.24913  0.14832  0.62142     C
C      0.24954  0.59673  0.93348     C
C      0.25177  0.46964  0.71206     C
O      0.25195  0.56946  0.76176     O
O      0.25287  0.51815  0.94944     O
C      0.25459   0.4427    0.382     C
H       0.2547   0.0773   0.5504     H
H       0.2547   0.4132   0.7392     H
Cu     0.25688  0.33372  0.79206    Cu
C      0.25695  0.56076  0.11154     C
H       0.2576   0.4357    0.356     H
O      0.25838   0.3036  0.82292     O
C      0.25964   0.5897  0.86996     C
C       0.2611  0.19737  0.86912     C
C      0.26172  0.21906  0.68764     C
C       0.2638   0.8773   0.2672     C
H       0.2641   0.5238      0.2     H
H       0.2643   0.7613   0.7772     H
C      0.26655  0.78695   0.7771     C
C      0.26719  0.83902  0.23904     C
C      0.26799  0.55315  0.14858     C
H       0.2682   0.1811   0.8836     H
C      0.26863  0.57278  0.80214     C
O       0.2718  0.28644  0.75256     O
C       0.2723  0.85937   0.7786     C
O       0.2756   0.6563  0.05072     O
H       0.2766   0.8866    0.782     H
Cu     0.27821  0.54796  0.72378    Cu
C      0.27877  0.57522  0.06544     C
H       0.2802   0.9037   0.2762     H
C      0.28026  0.25964  0.86996     C
H       0.2816   0.7699   0.1754     H
O       0.2826  0.58602  0.94992     O
C      0.28413  0.46073  0.46466     C
H       0.2863   0.5841   0.8852     H
O      0.28644  0.48076  0.75256     O
C      0.28783  0.56629  0.10308     C
C      0.28849  0.44508  0.42396     C
C      0.29058  0.23537  0.89024     C
C      0.29353  0.15601  0.64286     C
H       0.2957   0.4731   0.5504     H
H       0.2975   0.7318   0.1164     H
Cu     0.29762  0.57501     -0.0    Cu
C      0.29967   0.8341   0.2262     C
H       0.3011   0.2863   0.8852     H
C      0.30185  0.79846  0.19574     C
O      0.30343  0.56871  0.05056     O
O       0.3036  0.56454  0.82292     O
H       0.3044   0.1345   0.6276     H
C      0.30634  0.22741  0.70932     C
C      0.30662  0.81261  0.79904     C
C       0.3083  0.84813   0.8012     C
C      0.30941  0.55196  0.17594     C
O      0.31154  0.52336  0.69502     O
H       0.3134   0.4368   0.4254     H
C      0.31606  0.66325  0.06652     C
H       0.3167   0.5477   0.2012     H
C      0.31909  0.46907  0.54614     C
C      0.31936  0.46269  0.50838     C
O      0.32208  0.60524    0.768     O
C      0.32251  0.19549  0.68708     C
H       0.3232   0.4931   0.6276     H
H       0.3238   0.7359      0.8     H
H        0.326   0.2547   0.7392     H
C      0.32808  0.56267  0.12826     C
C      0.32825   0.7389  0.13088     C
N       0.3312  0.86668  0.24256     N
O      0.33268   0.6361  0.05008     O
Cu     0.33372  0.53518  0.79206    Cu
H       0.3365   0.8684   0.8198     H
C      0.33675  0.24954  0.93348     C
N      0.33806  0.80938  0.19812     N
C      0.33986  0.55682  0.16646     C
C       0.3422  0.50857  0.71198     C
O       0.3437  0.22488  0.94928     O
C      0.34513  0.70942  0.10976     C
C       0.3458  0.79648   0.8166     C
H       0.3465   0.6833   0.7988     H
C      0.34816   0.7601  0.81632     C
H       0.3484   0.5641     0.12     H
C      0.34933  0.48685  0.64286     C
O       0.3543  0.50723  0.74884     O
C      0.35591  0.77907  0.17334     C
N      0.35671  0.85199  0.22768     N
N      0.35704  0.45668  0.51596     N
N      0.35716  0.46869  0.57638     N
C       0.3595  0.61539  0.80522     C
O       0.3639   0.2826  0.94992     O
C      0.36457  0.49159  0.68708     C
C      0.36978  0.20341  0.71198     C
O      0.37223  0.59158   0.8217     O
C      0.37229   0.4731  0.62142     C
H       0.3725   0.2802   0.2762     H
N      0.37569  0.35671  0.22768     N
N      0.37588   0.3312  0.24256     N
C      0.37602  0.69059  0.82406     C
N      0.38055  0.45852  0.55704     N
O      0.38348  0.17166  0.69502     O
H       0.3846   0.2975   0.1164     H
C      0.38461  0.55428  0.19478     C
N      0.38677  0.81885  0.84014     N
N      0.38734  0.76288  0.84068     N
N      0.38874  0.33806  0.19812     N
C      0.38968  0.71974  0.13004     C
C       0.3899   0.2638   0.2672     C
C      0.39036  0.66014  0.83354     C
C      0.39198  0.32825  0.13088     C
C       0.3921  0.29967   0.2262     C
C      0.39427  0.35591  0.17334     C
O      0.39442   0.2756  0.05072     O
O      0.39454  0.24161  0.74884     O
O      0.39476  0.55408    0.232     O
C      0.39728  0.30185  0.19574     C
H       0.3997   0.2407    0.307     H
C      0.40002  0.26719  0.23904     C
C      0.40034  0.34513  0.10976     C
Cu     0.40057  0.22961     -0.0    Cu
C      0.40082  0.79028  0.19456     C
H       0.4011   0.6989   0.1148     H
C      0.40298  0.48191  0.70932     C
C      0.40327  0.31606  0.06652     C
C       0.4039    0.238    0.283     C
C      0.40428  0.40082  0.19456     C
C      0.40457  0.73201  0.85142     C
H       0.4055   0.2816   0.1754     H
H       0.4055   0.4194   0.2238     H
O      0.40842  0.55053   0.1783     O
C       0.4103  0.38968  0.13004     C
C      0.41073  0.46308  0.64244     C
N      0.41178  0.79806  0.85396     N
C       0.4123  0.41822   0.1733     C
O       0.4129  0.19495  0.95054     O
H       0.4132   0.4845   0.7392     H
O      0.41398  0.33268  0.05008     O
C      0.41453  0.23686  0.22066     C
H       0.4159   0.4011   0.1148     H
C      0.41822    0.761   0.1733     C
H       0.4194   0.8183   0.2238     H
H       0.4212   0.2363    0.199     H
C      0.42153  0.20353  0.23026     C
C      0.42365  0.20777   0.2677     C
H       0.4246   0.1779    0.209     H
C      0.42478  0.21333  0.93456     C
Cu     0.42499  0.29762      0.0    Cu
C      0.42592  0.46858  0.68764     C
H        0.426    0.453    0.627     H
C      0.42722  0.46649  0.19786     C
O      0.43054  0.49019  0.23824     O
O      0.43129  0.25287  0.94944     O
C      0.43371  0.18475  0.89692     C
C      0.43441  0.67192  0.87174     C
O      0.43546  0.48068  0.17708     O
H       0.4357   0.0984    0.356     H
H       0.4359   0.2284     0.88     H
H       0.4362   0.2093    0.343     H
C      0.43657  0.17731  0.28114     C
H       0.4368    0.112   0.4254     H
C      0.43733  0.19982  0.87174     C
H        0.438   0.1355    0.907     H
C      0.43924  0.14541  0.88846     C
C       0.4393  0.18316   0.3222     C
H       0.4399   0.1348    0.225     H
N      0.44218   0.0559  0.85396     N
C       0.4427  0.12741    0.382     C
C      0.44318   0.1734  0.83354     C
H       0.4441   0.6516     0.88     H
C      0.44508  0.13547  0.42396     C
Cu     0.44557  0.17582  0.72378    Cu
C       0.4457  0.14221   0.2556     C
C      0.44572  0.18983  0.80522     C
O      0.44592  0.16276    0.768     O
C      0.44615  0.15286   0.3329     C
C      0.44685  0.11941  0.85142     C
C      0.44804  0.13347  0.82406     C
O      0.44822  0.20192  0.69078     O
C      0.44922  0.74305  0.88846     C
O      0.44947  0.23012   0.8217     O
C      0.45101  0.16309  0.37962     C
Cu     0.45204  0.55443  0.27622    Cu
H       0.4523   0.1155   0.7988     H
H        0.453    0.201    0.627     H
N      0.45334   0.0778  0.84068     N
N      0.45337  0.02129  0.84014     N
N      0.45668  0.15892  0.51596     N
Cu     0.45834  0.25688  0.79206    Cu
N      0.45852  0.17649  0.55704     N
H       0.4599   0.0371   0.2594     H
C      0.46029  0.24242  0.71206     C
C      0.46073  0.18053  0.46466     C
C      0.46174  0.20449  0.41688     C
O      0.46236  0.24441  0.04946     O
C      0.46269  0.18902  0.50838     C
C      0.46308  0.23171  0.64244     C
C      0.46309  0.21211  0.45738     C
C      0.46321  0.71217  0.89692     C
C      0.46367   0.1164  0.27314     C
C      0.46424  0.12081  0.31108     C
Cu     0.46482  0.54166  0.20794    Cu
H       0.4658   0.2407   0.4806     H
O      0.46612   0.2718  0.75256     O
C      0.46649  0.77064  0.19786     C
C      0.46816  0.05622  0.81632     C
H       0.4684   0.2285   0.4154     H
C      0.46858  0.26172  0.68764     C
N      0.46869  0.21922  0.57638     N
H        0.469   0.7715    0.907     H
C      0.46907  0.22705  0.54614     C
C      0.46964  0.46029  0.71206     C
C       0.4708  0.02012   0.8166     C
C       0.4731  0.24913  0.62142     C
H       0.4731   0.2547   0.5504     H
C      0.47388  0.04172  0.24576     C
H       0.4762   0.0641      0.8     H
H       0.4762   0.1034   0.3232     H
O      0.47664  0.61652  0.30498     O
C      0.47927  0.08077  0.24794     C
O      0.48068  0.74162  0.17708     O
O      0.48076  0.46612  0.75256     O
O      0.48185  0.30343  0.05056     O
C      0.48191  0.30634  0.70932     C
H       0.4833   0.9514   0.8198     H
H       0.4845    0.326   0.7392     H
C      0.48685  0.29353  0.64286     C
H       0.4871   0.9841   0.2228     H
O      0.48886  0.44822  0.69078     O
C      0.48945  0.00985   0.2229     C
O      0.49019   0.8077  0.23824     O
C      0.49022  0.27877  0.06544     C
C      0.49143  0.63022  0.28802     C
C      0.49159  0.32251  0.68708     C
C      0.49242  0.98643  0.79904     C
O      0.49277  0.60546  0.25116     O
C       0.4929  0.95307   0.8012     C
H       0.4931   0.3044   0.6276     H
C       0.4937  0.08077   0.2214     C
H       0.4946   0.1046    0.218     H
H       0.5054   0.8954    0.782     H
C       0.5063  0.91923   0.7786     C
H       0.5069   0.6956   0.3724     H
C       0.5071  0.04693   0.1988     C
O      0.50723  0.39454  0.74884     O
C      0.50758  0.01357  0.20096     C
C      0.50841  0.67749  0.31292     C
C      0.50857  0.36978  0.71198     C
C      0.50978  0.72123  0.93456     C
O      0.50981   0.1923  0.76176     O
C      0.51055  0.99015   0.7771     C
O      0.51114  0.55178  0.30922     O
H       0.5129   0.0159   0.7772     H
C      0.51315  0.70647  0.35714     C
H       0.5155    0.674   0.2608     H
H       0.5167   0.0486   0.1802     H
C      0.51809  0.69366  0.29068     C
O      0.51815  0.69657  0.94944     O
O      0.51924  0.53388  0.24744     O
O      0.51932  0.25838  0.82292     O
C      0.52073  0.91923  0.75206     C
O      0.52336  0.38348  0.69502     O
H       0.5238   0.8966   0.6768     H
H       0.5238   0.9359      0.2     H
C      0.52612  0.95828  0.75424     C
H       0.5269   0.7453   0.4496     H
C       0.5269  0.75087  0.37858     C
C       0.5292  0.97988   0.1834     C
C      0.53036  0.53971  0.28794     C
C      0.53093  0.77295  0.45386     C
H        0.531   0.2285    0.093     H
N      0.53131  0.78078  0.42362     N
C      0.53142  0.73828  0.31236     C
H       0.5316   0.7715   0.5846     H
C      0.53184  0.94378  0.18368     C
C      0.53351  0.22936  0.80214     C
O      0.53388   0.7282  0.24744     O
H       0.5342   0.7593   0.5194     H
Cu     0.53518  0.45834  0.79206    Cu
C      0.53576  0.87919  0.68892     C
C      0.53633   0.8836  0.72686     C
C      0.53679  0.28783  0.10308     C
C      0.53691  0.78789  0.54262     C
C      0.53692  0.76829  0.35756     C
C      0.53731  0.81098  0.49162     C
O      0.53764  0.75559  0.95054     O
C      0.53826  0.79551  0.58312     C
C      0.53927  0.81947  0.53534     C
C      0.53971  0.75758  0.28794     C
H       0.5401   0.9629   0.7406     H
N      0.54148  0.82351  0.44296     N
Cu     0.54166  0.74312  0.20794    Cu
N      0.54332  0.84108  0.48404     N
N      0.54663  0.97871  0.15986     N
N      0.54666   0.9222  0.15932     N
H        0.547    0.799    0.373     H
H       0.5477   0.8845   0.2012     H
Cu     0.54796  0.44557  0.72378    Cu
C      0.54899  0.83691  0.62038     C
O      0.55053  0.76988   0.1783     O
C      0.55078  0.25695  0.11154     C
O      0.55178  0.79808  0.30922     O
C      0.55196  0.86653  0.17594     C
C      0.55315  0.88059  0.14858     C
C      0.55385  0.84714   0.6671     C
O      0.55408  0.83724    0.232     O
C      0.55428  0.81017  0.19478     C
C       0.5543  0.85779   0.7444     C
Cu     0.55443  0.82418  0.27622    Cu
C      0.55492  0.86453  0.57604     C
H       0.5559   0.3484     0.12     H
C      0.55682   0.8266  0.16646     C
C       0.5573  0.87259    0.618     C
N      0.55782   0.9441  0.14604     N
H       0.5601   0.8652    0.775     H
C       0.5607  0.81684   0.6778     C
C      0.56076  0.85459  0.11154     C
H        0.562   0.8645    0.093     H
C      0.56267  0.80018  0.12826     C
H       0.5632    0.888   0.5746     H
C      0.56343  0.82269  0.71886     C
H       0.5638   0.7907    0.657     H
H       0.5641   0.7716     0.12     H
H       0.5643   0.9016    0.644     H
O      0.56454  0.51932  0.82292     O
C      0.56559  0.32808  0.12826     C
C      0.56629  0.81525  0.10308     C
O      0.56871  0.74713  0.05056     O
O      0.56946  0.50981  0.76176     O
C      0.57278  0.53351  0.80214     C
H        0.574    0.547    0.373     H
C      0.57408  0.53142  0.31236     C
Cu     0.57501  0.70238     -0.0    Cu
C      0.57522  0.78667  0.06544     C
H       0.5754   0.8221    0.791     H
C      0.57635  0.79223   0.7323     C
C      0.57847  0.79647  0.76974     C
H       0.5788   0.7637    0.801     H
H       0.5806   0.1817   0.7762     H
C      0.58178    0.239   0.8267     C
H       0.5841   0.5989   0.8852     H
C      0.58547  0.76314  0.77934     C
O      0.58602  0.66732  0.94992     O
H       0.5868   0.5155   0.2608     H
O       0.5871  0.80505  0.04946     O
C       0.5877  0.58178   0.8267     C
N      0.58822  0.20194  0.14604     N
C      0.58927  0.53692  0.35756     C
C       0.5897  0.61032  0.86996     C
O      0.59158  0.44947   0.8217     O
H       0.5945   0.5806   0.7762     H
H       0.5945   0.7184   0.8246     H
C      0.59543  0.26799  0.14858     C
C      0.59572  0.59918  0.80544     C
C       0.5961    0.762    0.717     C
C      0.59673  0.68394  0.93348     C
C      0.59702  0.51809  0.29068     C
H       0.5989   0.3011   0.8852     H
C      0.59918  0.20972  0.80544     C
Cu     0.59943  0.77039     -0.0    Cu
C      0.59966  0.65487  0.89024     C
C      0.59998  0.73281  0.76096     C
H       0.6003   0.7593    0.693     H
C      0.60272  0.69815  0.80426     C
O      0.60524  0.44592    0.768     O
O      0.60546  0.75839  0.25116     O
O      0.60558   0.7244  0.94928     O
C      0.60573  0.64409  0.82666     C
C       0.6079  0.70033   0.7738     C
C      0.60802  0.67175  0.86912     C
C      0.60964  0.33986  0.16646     C
C       0.6101   0.7362   0.7328     C
C      0.61032  0.28026  0.86996     C
N      0.61126  0.66194  0.80188     N
N      0.61266  0.23712  0.15932     N
N      0.61323  0.18115  0.15986     N
C      0.61539  0.44572  0.80522     C
H       0.6154   0.7025   0.8836     H
O      0.61652  0.82834  0.30498     O
N      0.61945  0.54148  0.44296     N
C      0.62398  0.30941  0.17594     C
N      0.62412   0.6688  0.75744     N
N      0.62431  0.64329  0.77232     N
H       0.6275   0.7198   0.7238     H
C      0.62771   0.5269  0.37858     C
O      0.62777  0.40842   0.1783     O
C      0.63022  0.79659  0.28802     C
C      0.63543  0.50841  0.31292     C
O       0.6361   0.7174  0.05008     O
C       0.6405  0.38461  0.19478     C
N      0.64284  0.53131  0.42362     N
N      0.64296  0.54332  0.48404     N
N      0.64329  0.14801  0.77232     N
C      0.64409  0.22093  0.82666     C
O       0.6457  0.49277  0.25116     O
C      0.65067  0.51315  0.35714     C
H       0.6516   0.4359     0.88     H
C      0.65184   0.2399  0.18368     C
H       0.6535   0.3167   0.2012     H
C       0.6542  0.20352   0.1834     C
C      0.65487  0.29058  0.89024     C
O       0.6563  0.77512  0.05072     O
C       0.6578  0.49143  0.28802     C
C      0.66014  0.44318  0.83354     C
N      0.66194  0.19062  0.80188     N
C      0.66325  0.75046  0.06652     C
H       0.6635   0.1316   0.1802     H
Cu     0.66628  0.46482  0.20794    Cu
O      0.66732   0.3639  0.94992     O
N       0.6688  0.13332  0.75744     N
C      0.67175   0.2611  0.86912     C
C      0.67192  0.43733  0.87174     C
H        0.674   0.7453   0.2608     H
H       0.6762   0.2641      0.2     H
H       0.6768   0.5069   0.3724     H
C      0.67749  0.80451  0.31292     C
O      0.67792  0.39476    0.232     O
C      0.68064  0.53731  0.49162     C
C      0.68091  0.53093  0.45386     C
H       0.6833   0.4523   0.7988     H
C      0.68394  0.33675  0.93348     C
H       0.6866   0.5632   0.5746     H
O      0.68846  0.47664  0.30498     O
C      0.69059  0.44804  0.82406     C
C       0.6917  0.15187   0.1988     C
C      0.69338  0.18739  0.20096     C
C      0.69366  0.77259  0.29068     C
H       0.6956   0.8655   0.3724     H
O       0.6964  0.43546  0.17708     O
O      0.69657  0.43129  0.94944     O
C      0.69815  0.20154  0.80426     C
H       0.6989   0.7137   0.1148     H
C      0.70033   0.1659   0.7738     C
Cu     0.70238  0.42499     -0.0    Cu
H       0.7025   0.2682   0.8836     H
H       0.7043   0.5269   0.4496     H
C      0.70647  0.84399  0.35714     C
C      0.70942  0.76463  0.10976     C
C      0.71151  0.55492  0.57604     C
C      0.71217  0.43371  0.89692     C
O      0.71356  0.51924  0.24744     O
H       0.7137   0.4159   0.1148     H
C      0.71587  0.53927  0.53534     C
O       0.7174  0.41398  0.05008     O
H       0.7184   0.2301   0.8246     H
C      0.71974  0.74036  0.13004     C
H       0.7198   0.0963   0.7238     H
C      0.72123  0.42478  0.93456     C
Cu     0.72179  0.45204  0.27622    Cu
H       0.7234   0.1134    0.218     H
O       0.7244   0.3437  0.94928     O
C       0.7277  0.14063   0.2214     C
O       0.7282  0.71356  0.24744     O
C      0.73137  0.42722  0.19786     C
H       0.7318   0.8189   0.1164     H
C      0.73201  0.44685  0.85142     C
C      0.73281  0.16098  0.76096     C
C      0.73345  0.21305   0.2229     C
H       0.7357   0.2387   0.2228     H
H       0.7359   0.4762      0.8     H
C       0.7362   0.1227   0.7328     C
C      0.73828  0.78094  0.31236     C
C       0.7389  0.80263  0.13088     C
C      0.74036   0.4103  0.13004     C
O      0.74162   0.6964  0.17708     O
H       0.7424   0.5643    0.644     H
C      0.74305  0.43924  0.88846     C
Cu     0.74312  0.66628  0.20794    Cu
H       0.7453   0.5868   0.2608     H
H       0.7453   0.9227   0.4496     H
C      0.74541   0.5573    0.618     C
O      0.74713  0.48185  0.05056     O
O      0.74805  0.43054  0.23824     O
C      0.74823  0.53036  0.28794     C
C      0.75046  0.40327  0.06652     C
C      0.75087  0.85168  0.37858     C
C      0.75473  0.53691  0.54262     C
C      0.75508   0.4123   0.1733     C
O      0.75559   0.4129  0.95054     O
O      0.75744  0.51114  0.30922     O
C      0.75758  0.74823  0.28794     C
O      0.75839   0.6457  0.25116     O
H       0.7593   0.0927    0.693     H
H       0.7593   0.9852   0.5194     H
C       0.7601  0.46816  0.81632     C
H       0.7601   0.5342   0.5194     H
C        0.761  0.75508   0.1733     C
H       0.7613   0.5129   0.7772     H
C        0.762   0.1209    0.717     C
N      0.76288  0.45334  0.84068     N
C      0.76314  0.19387  0.77934     C
H       0.7637   0.2222    0.801     H
C      0.76463  0.40034  0.10976     C
C      0.76829  0.82064  0.35756     C
C      0.76867  0.16717  0.24794     C
O      0.76988  0.62777   0.1783     O
H       0.7699   0.8938   0.1754     H
Cu     0.77039  0.40057     -0.0    Cu
C      0.77064  0.73137  0.19786     C
H       0.7715    0.053   0.5846     H
H       0.7715    0.438    0.907     H
H       0.7716   0.5559     0.12     H
C      0.77188  0.20404  0.24576     C
C      0.77259  0.59702  0.29068     C
C      0.77295  0.92293  0.45386     C
O      0.77512  0.39442  0.05072     O
H       0.7777   0.5401   0.7406     H
H       0.7778   0.9627    0.199     H
C      0.77907  0.81743  0.17334     C
H       0.7802   0.5238   0.6768     H
N      0.78078  0.89231  0.42362     N
C      0.78094  0.57408  0.31236     C
C      0.78347  0.54899  0.62038     C
H       0.7844   0.0311    0.209     H
H       0.7851   0.0902    0.225     H
C      0.78667  0.49022  0.06544     C
C      0.78695  0.51055   0.7771     C
C      0.78761  0.53826  0.58312     C
C      0.78789  0.00571  0.54262     C
C      0.79028  0.79374  0.19456     C
H       0.7907   0.0932    0.657     H
C      0.79223  0.15595   0.7323     C
C      0.79374  0.40428  0.19456     C
C      0.79551  0.04486  0.58312     C
C      0.79596  0.52612  0.75424     C
C      0.79647  0.19127  0.76974     C
C      0.79648   0.4708   0.8166     C
C      0.79659   0.6578  0.28802     C
N      0.79806  0.44218  0.85396     N
O      0.79808  0.75744  0.30922     O
C      0.79846  0.89389  0.19574     C
H        0.799    0.826    0.373     H
H       0.7995   0.2223   0.2594     H
C      0.80018  0.56559  0.12826     C
C      0.80263  0.39198  0.13088     C
H       0.8044   0.4055   0.2238     H
C      0.80451  0.63543  0.31292     C
O      0.80505  0.46236  0.04946     O
C      0.80613   0.9838  0.22066     C
O       0.8077  0.74805  0.23824     O
C      0.80873  0.02673  0.23026     C
N      0.80938  0.86006  0.19812     N
C      0.80947  0.15674  0.27314     C
C      0.80973  0.53576  0.68892     C
C       0.8099  0.11339   0.2556     C
C      0.81017   0.6405  0.19478     C
C      0.81098  0.95431  0.49162     C
C      0.81261  0.49242  0.79904     C
H       0.8131   0.5316   0.5846     H
C      0.81525  0.53679  0.10308     C
C      0.81684   0.1171   0.6778     C
C      0.81743  0.39427  0.17334     C
H       0.8183   0.8044   0.2238     H
N      0.81885  0.45337  0.84014     N
H       0.8189   0.3846   0.1164     H
C      0.81947  0.99607  0.53534     C
C      0.81996  0.55385   0.6671     C
C      0.82064  0.58927  0.35756     C
H       0.8221   0.2156    0.791     H
C      0.82269  0.15543  0.71886     C
N      0.82351  0.90148  0.44296     N
Cu     0.82418  0.72179  0.27622    Cu
H        0.826    0.574    0.373     H
C       0.8266  0.60964  0.16646     C
O      0.82834  0.68846  0.30498     O
C      0.83283  0.52073  0.75206     C
C       0.8341  0.92653   0.2262     C
C      0.83691  0.07139  0.62038     C
O      0.83724  0.67792    0.232     O
C      0.83902  0.97185  0.23904     C
N      0.84108  0.94072  0.48404     N
C      0.84326  0.53633  0.72686     C
C      0.84399  0.65067  0.35714     C
C      0.84405  0.05993   0.2677     C
C      0.84457  0.10383  0.28114     C
C      0.84684  0.19027  0.31108     C
H        0.847   0.2198   0.3232     H
C      0.84714  0.11325   0.6671     C
C      0.84813   0.4929   0.8012     C
C      0.85168  0.62771  0.37858     C
N      0.85199  0.87097  0.22768     N
C      0.85459  0.55078  0.11154     C
C      0.85779   0.1901   0.7444     C
C      0.85937   0.5063   0.7786     C
N      0.86006  0.38874  0.19812     N
C      0.86096   0.5607   0.6778     C
H       0.8645    0.531    0.093     H
C      0.86453  0.02112  0.57604     C
H       0.8652   0.2149    0.775     H
H       0.8655   0.6768   0.3724     H
H       0.8663   0.5638    0.657     H
C      0.86653  0.62398  0.17594     C
N      0.86668  0.91136  0.24256     N
H       0.8684   0.4833   0.8198     H
N      0.87097  0.37569  0.22768     N
C      0.87259   0.0607    0.618     C
C       0.8773   0.0034   0.2672     C
C       0.8791    0.045    0.283     C
C      0.87919  0.15316  0.68892     C
C      0.88059  0.59543  0.14858     C
C       0.8829  0.13904   0.3222     C
C       0.8836  0.19053  0.72686     C
H       0.8845   0.6535   0.2012     H
H       0.8866   0.5054    0.782     H
C      0.88661   0.5543   0.7444     C
C      0.88675  0.18004   0.3329     C
H        0.888   0.0114   0.5746     H
N      0.89231  0.64284  0.42362     N
H       0.8938   0.4055   0.1754     H
C      0.89389  0.39728  0.19574     C
H       0.8954   0.2766    0.782     H
C      0.89617  0.56343  0.71886     C
H       0.8966    0.153   0.6768     H
N      0.90148  0.61945  0.44296     N
H       0.9016   0.0797    0.644     H
H       0.9037    0.996   0.2762     H
H       0.9068   0.1337    0.343     H
H       0.9073   0.0663    0.307     H
H       0.9098   0.5601    0.775     H
N      0.91136  0.37588  0.24256     N
C      0.91923  0.23133  0.75206     C
C      0.91923   0.2723   0.7786     C
H       0.9203   0.2576    0.356     H
N       0.9222  0.61266  0.15932     N
H       0.9227   0.7043   0.4496     H
C      0.92293  0.68091  0.45386     C
C      0.92653   0.3921   0.2262     C
C      0.92861  0.21653  0.37962     C
H       0.9337   0.6003    0.693     H
H       0.9359   0.6762      0.2     H
C       0.9393  0.25459    0.382     C
C      0.94007  0.57635   0.7323     C
N      0.94072  0.64296  0.48404     N
C      0.94378  0.65184  0.18368     C
N       0.9441  0.58822  0.14604     N
H        0.947   0.1869   0.4154     H
H       0.9514   0.3365   0.8198     H
C      0.95307   0.3083   0.8012     C
C      0.95431  0.68064  0.49162     C
C        0.955   0.5961    0.717     C
C      0.95514  0.21239  0.41688     C
C      0.95828  0.22812  0.75424     C
H       0.9627   0.4212    0.199     H
H       0.9629   0.2005   0.7406     H
H       0.9689   0.5754    0.791     H
C      0.97185  0.40002  0.23904     C
C      0.97327  0.57847  0.76974     C
N      0.97871  0.61323  0.15986     N
C      0.97888  0.28849  0.42396     C
C      0.97988   0.6542   0.1834     C
C       0.9838  0.41453  0.22066     C
H       0.9841   0.7357   0.2228     H
H       0.9852   0.7601   0.5194     H
C      0.98643  0.30662  0.79904     C
H       0.9886   0.3134   0.4254     H
C      0.99015  0.26655   0.7771     C
C      0.99429  0.24527  0.45738     C
H        0.996   0.3725   0.2762     H
C      0.99607  0.71587  0.53534     C
C       0.9966   0.6101   0.7328     C
