data_I
_chemical_name_common  '/home/zhangsd/repos/MofS-CGCNN/ML/data/TSD/clean_cifs/POHMAC_clean'
_cell_length_a  8.78300
_cell_length_b  9.28500
_cell_length_c 18.95200
_cell_angle_alpha 90.00000
_cell_angle_beta  90.00000
_cell_angle_gamma 109.39800
_space_group_name_H-M_alt      'P 1'


loop_
_space_group_symop_operation_xyz
  'x, y, z' 

loop_
_atom_site_label
_atom_site_fract_x
_atom_site_fract_y
_atom_site_fract_z
_atom_site_type_symbol
O       0.0052   0.1216   0.9646     O
O       0.0052   0.6216   0.5354     O
C       0.0178   0.4006   0.6782     C
C       0.0178   0.9006   0.8218     C
C       0.0342   0.0978   0.3085     C
C       0.0342   0.5978   0.1915     C
O       0.0369   0.1551   0.1182     O
O       0.0369   0.6551   0.3818     O
C       0.0561    0.387   0.9741     C
C       0.0561    0.887   0.5259     C
H       0.0615   0.4837   0.8129     H
H       0.0615   0.9837   0.6871     H
C       0.0673   0.0785   0.4374     C
C       0.0673   0.5785   0.0626     C
C       0.0827   0.1614   0.2424     C
C       0.0827   0.6614   0.2576     C
C       0.1037   0.2551   0.9514     C
C       0.1037   0.7551   0.5486     C
C       0.1203   0.4653   0.0354     C
C       0.1203   0.9653   0.4646     C
C       0.1278   0.1551   0.3684     C
C       0.1278   0.6551   0.1316     C
O       0.1518   0.0027   0.8174     O
O       0.1518   0.5027   0.6826     O
H       0.2014   0.4409   0.0589     H
H       0.2014   0.9409   0.4411     H
Gd     0.21026  0.48489  0.55312    Gd
Gd     0.21026  0.98489  0.94688    Gd
C       0.2235   0.2859   0.2357     C
C       0.2235   0.7859   0.2643     C
O       0.2391   0.2712    0.925     O
O       0.2391   0.7712    0.575     O
H       0.2549    0.331   0.1918     H
H       0.2549    0.831   0.3082     H
C       0.2722   0.2752    0.361     C
C       0.2722   0.7752    0.139     C
C       0.3165   0.3421   0.2949     C
C       0.3165   0.8421   0.2051     C
O       0.3255     0.34   0.4833     O
O       0.3255     0.84   0.0167     O
C       0.3836     0.34   0.4226     C
C       0.3836     0.84   0.0774     C
H       0.4103   0.4259   0.2905     H
H       0.4103   0.9259   0.2095     H
O        0.468   0.1117    0.908     O
O        0.468   0.6117    0.592     O
O        0.532   0.3883    0.408     O
O        0.532   0.8883    0.092     O
H       0.5897   0.0741   0.7905     H
H       0.5897   0.5741   0.7095     H
C       0.6164     0.16   0.9226     C
C       0.6164     0.66   0.5774     C
O       0.6745     0.16   0.9833     O
O       0.6745     0.66   0.5167     O
C       0.6835   0.1579   0.7949     C
C       0.6835   0.6579   0.7051     C
C       0.7278   0.2248    0.861     C
C       0.7278   0.7248    0.639     C
H       0.7451    0.169   0.6918     H
H       0.7451    0.669   0.8082     H
O       0.7609   0.2288    0.425     O
O       0.7609   0.7288    0.075     O
C       0.7765   0.2141   0.7357     C
C       0.7765   0.7141   0.7643     C
Gd     0.78974  0.01511  0.05312    Gd
Gd     0.78974  0.51511  0.44688    Gd
H       0.7986   0.0591   0.5589     H
H       0.7986   0.5591   0.9411     H
O       0.8482   0.4973   0.3174     O
O       0.8482   0.9973   0.1826     O
C       0.8722   0.3449   0.8684     C
C       0.8722   0.8449   0.6316     C
C       0.8797   0.0347   0.5354     C
C       0.8797   0.5347   0.9646     C
C       0.8963   0.2449   0.4514     C
C       0.8963   0.7449   0.0486     C
C       0.9173   0.3386   0.7424     C
C       0.9173   0.8386   0.7576     C
C       0.9327   0.4215   0.9374     C
C       0.9327   0.9215   0.5626     C
H       0.9385   0.0163   0.3129     H
H       0.9385   0.5163   0.1871     H
C       0.9439    0.113   0.4741     C
C       0.9439    0.613   0.0259     C
O       0.9631   0.3449   0.6182     O
O       0.9631   0.8449   0.8818     O
C       0.9658   0.4022   0.8085     C
C       0.9658   0.9022   0.6915     C
C       0.9822   0.0994   0.1782     C
C       0.9822   0.5994   0.3218     C
O       0.9948   0.3784   0.4646     O
O       0.9948   0.8784   0.0354     O
