data_I
_chemical_name_common  '/home/zhangsd/repos/MofS-CGCNN/ML/data/TSD/clean_cifs/POSGEL_clean'
_cell_length_a 13.20200
_cell_length_b 27.47500
_cell_length_c  7.64100
_cell_angle_alpha 90.00000
_cell_angle_beta  123.25400
_cell_angle_gamma 90.00000
_space_group_name_H-M_alt      'P 1'


loop_
_space_group_symop_operation_xyz
  'x, y, z' 

loop_
_atom_site_label
_atom_site_fract_x
_atom_site_fract_y
_atom_site_fract_z
_atom_site_type_symbol
O       0.0109   0.4763     0.35     O
O       0.0109   0.5237     0.85     O
C       0.0445   0.3257   0.0491     C
C       0.0445   0.6743   0.5491     C
C       0.0458   0.3962   0.9523     C
C       0.0458   0.6038   0.4523     C
H       0.0516   0.0874   0.6402     H
H       0.0516   0.9126   0.1402     H
H        0.054   0.2999   0.1357     H
H        0.054   0.7001   0.6357     H
H       0.0558   0.4297   0.9507     H
H       0.0558   0.5703   0.4507     H
C       0.0743   0.0126   0.6487     C
C       0.0743   0.9874   0.1487     C
N       0.0746   0.3727   0.1141     N
N       0.0746   0.6273   0.6141     N
C       0.1087   0.0631   0.6752     C
C       0.1087   0.9369   0.1752     C
H       0.1372   0.0526   0.1338     H
H       0.1372   0.9474   0.6338     H
Cd     0.15111  0.40207  0.43916    Cd
Cd     0.15111  0.59793  0.93916    Cd
C       0.1613   0.0205   0.1748     C
C       0.1613   0.9795   0.6748     C
H       0.1776   0.4805   0.8666     H
H       0.1776   0.5195   0.3666     H
C       0.2285    0.075   0.7538     C
C       0.2285    0.925   0.2538     C
O        0.232   0.3278   0.5676     O
O        0.232   0.6722   0.0676     O
H        0.253   0.1073    0.784     H
H        0.253   0.8927    0.284     H
C       0.2549   0.4937   0.9298     C
C       0.2549   0.5063   0.4298     C
O       0.2736   0.3781   0.8085     O
O       0.2736   0.6219   0.3085     O
C       0.2788   0.3395   0.7652     C
C       0.2788   0.6605   0.2652     C
C       0.2789   0.0091   0.2563     C
C       0.2789   0.9909   0.7563     C
N       0.2834   0.4584   0.4824     N
N       0.2834   0.5416   0.9824     N
C       0.3154   0.0381   0.7893     C
C       0.3154   0.9619   0.2893     C
H       0.3351   0.0337   0.2899     H
H       0.3351   0.9663   0.7899     H
C       0.3433   0.2974   0.9132     C
C       0.3433   0.7026   0.4132     C
H       0.3483   0.2494   0.7177     H
H       0.3483   0.7506   0.2177     H
H         0.35   0.3312   0.1539     H
H         0.35   0.6688   0.6539     H
N       0.3556   0.4686   0.9836     N
N       0.3556   0.5314   0.4836     N
H       0.3601   0.4377   0.9713     H
H       0.3601   0.5623   0.4713     H
C        0.369   0.2536   0.8543     C
C        0.369   0.7464   0.3543     C
C         0.37   0.3025   0.1151     C
C         0.37   0.6975   0.6151     C
C       0.4037   0.4534   0.5667     C
C       0.4037   0.5466   0.0667     C
C        0.425   0.2164   0.9974     C
C        0.425   0.7836   0.4974     C
C       0.4273   0.2645   0.2613     C
C       0.4273   0.7355   0.7613     C
C       0.4449   0.0523   0.8611     C
C       0.4449   0.9477   0.3611     C
H       0.4471   0.1879   0.9609     H
H       0.4471   0.8121   0.4609     H
H       0.4476   0.4246   0.6187     H
H       0.4476   0.5754   0.1187     H
C       0.4482    0.222   0.1981     C
C       0.4482    0.778   0.6981     C
H       0.4503   0.2687   0.3992     H
H       0.4503   0.7313   0.8992     H
C       0.4512   0.4986   0.5626     C
C       0.4512   0.5014   0.0626     C
O       0.4733   0.0962   0.9221     O
O       0.4733   0.9038   0.4221     O
H       0.4744   0.1222    0.159     H
H       0.4744   0.8778    0.659     H
C       0.4995   0.1785   0.3453     C
C       0.4995   0.8215   0.8453     C
N       0.4996   0.1317   0.2838     N
N       0.4996   0.8683   0.7838     N
O       0.5109   0.0237     0.85     O
O       0.5109   0.9763     0.35     O
C       0.5445   0.1743   0.5491     C
C       0.5445   0.8257   0.0491     C
C       0.5458   0.1038   0.4523     C
C       0.5458   0.8962   0.9523     C
H       0.5516   0.4126   0.1402     H
H       0.5516   0.5874   0.6402     H
H        0.554   0.2001   0.6357     H
H        0.554   0.7999   0.1357     H
H       0.5558   0.0703   0.4507     H
H       0.5558   0.9297   0.9507     H
C       0.5743   0.4874   0.1487     C
C       0.5743   0.5126   0.6487     C
N       0.5746   0.1273   0.6141     N
N       0.5746   0.8727   0.1141     N
C       0.6087   0.4369   0.1752     C
C       0.6087   0.5631   0.6752     C
H       0.6372   0.4474   0.6338     H
H       0.6372   0.5526   0.1338     H
Cd     0.65111  0.09793  0.93916    Cd
Cd     0.65111  0.90207  0.43916    Cd
C       0.6613   0.4795   0.6748     C
C       0.6613   0.5205   0.1748     C
H       0.6776   0.0195   0.3666     H
H       0.6776   0.9805   0.8666     H
C       0.7285    0.425   0.2538     C
C       0.7285    0.575   0.7538     C
O        0.732   0.1722   0.0676     O
O        0.732   0.8278   0.5676     O
H        0.753   0.3927    0.284     H
H        0.753   0.6073    0.784     H
C       0.7549   0.0063   0.4298     C
C       0.7549   0.9937   0.9298     C
O       0.7736   0.1219   0.3085     O
O       0.7736   0.8781   0.8085     O
C       0.7788   0.1605   0.2652     C
C       0.7788   0.8395   0.7652     C
C       0.7789   0.4909   0.7563     C
C       0.7789   0.5091   0.2563     C
N       0.7834   0.0416   0.9824     N
N       0.7834   0.9584   0.4824     N
C       0.8154   0.4619   0.2893     C
C       0.8154   0.5381   0.7893     C
H       0.8351   0.4663   0.7899     H
H       0.8351   0.5337   0.2899     H
C       0.8433   0.2026   0.4132     C
C       0.8433   0.7974   0.9132     C
H       0.8483   0.2506   0.2177     H
H       0.8483   0.7494   0.7177     H
H         0.85   0.1688   0.6539     H
H         0.85   0.8312   0.1539     H
N       0.8556   0.0314   0.4836     N
N       0.8556   0.9686   0.9836     N
H       0.8601   0.0623   0.4713     H
H       0.8601   0.9377   0.9713     H
C        0.869   0.2464   0.3543     C
C        0.869   0.7536   0.8543     C
C         0.87   0.1975   0.6151     C
C         0.87   0.8025   0.1151     C
C       0.9037   0.0466   0.0667     C
C       0.9037   0.9534   0.5667     C
C        0.925   0.2836   0.4974     C
C        0.925   0.7164   0.9974     C
C       0.9273   0.2355   0.7613     C
C       0.9273   0.7645   0.2613     C
C       0.9449   0.4477   0.3611     C
C       0.9449   0.5523   0.8611     C
H       0.9471   0.3121   0.4609     H
H       0.9471   0.6879   0.9609     H
H       0.9476   0.0754   0.1187     H
H       0.9476   0.9246   0.6187     H
C       0.9482    0.278   0.6981     C
C       0.9482    0.722   0.1981     C
H       0.9503   0.2313   0.8992     H
H       0.9503   0.7687   0.3992     H
C       0.9512   0.0014   0.0626     C
C       0.9512   0.9986   0.5626     C
O       0.9733   0.4038   0.4221     O
O       0.9733   0.5962   0.9221     O
H       0.9744   0.3778    0.659     H
H       0.9744   0.6222    0.159     H
C       0.9995   0.3215   0.8453     C
C       0.9995   0.6785   0.3453     C
N       0.9996   0.3683   0.7838     N
N       0.9996   0.6317   0.2838     N
