data_I
_chemical_name_common  '/home/zhangsd/repos/MofS-CGCNN/ML/data/TSD/clean_cifs/POWBEK_clean'
_cell_length_a 11.33500
_cell_length_b 12.15200
_cell_length_c 23.31900
_cell_angle_alpha 83.54300
_cell_angle_beta  81.74100
_cell_angle_gamma 71.11200
_space_group_name_H-M_alt      'P 1'


loop_
_space_group_symop_operation_xyz
  'x, y, z' 

loop_
_atom_site_label
_atom_site_fract_x
_atom_site_fract_y
_atom_site_fract_z
_atom_site_type_symbol
C       0.0014   0.2276   0.6262     C
C       0.0017   0.2446   0.9107     C
C        0.002   0.7524   0.1474     C
C       0.0081   0.2087     0.57     C
W      0.01313  0.84271  0.63109     W
O       0.0154   0.3453   0.7322     O
O       0.0162   0.0432   0.3126     O
W      0.01992  0.48542  0.74531     W
O       0.0227   0.6525   0.7791     O
O       0.0318   0.5206   0.1705     O
W      0.03263  0.87048  0.88874     W
O       0.0507   0.2411   0.1155     O
H        0.061   0.3707   0.9865     H
O       0.0621   0.0583   0.7627     O
W      0.06895  0.38338  0.13301     W
H       0.0703   0.2455   0.8277     H
H       0.0728    0.231   0.6401     H
H       0.0836   0.8309   0.4922     H
O       0.0846   0.8412   0.7883     O
W      0.08615  0.01098  0.23558     W
O       0.0894   0.0125   0.1516     O
C        0.091    0.808   0.4548     C
H       0.0948   0.3001   0.4629     H
O       0.1012   0.2178   0.3311     O
H       0.1015   0.7528   0.0103     H
C       0.1028   0.7517   0.0501     C
N       0.1039   0.7583   0.3371     N
O       0.1058   0.5262   0.6753     O
O       0.1065   0.7022   0.5949     O
Cu      0.1078    0.744  0.25484    Cu
N       0.1081   0.7466   0.1705     N
O       0.1092   0.5554   0.8889     O
N       0.1146   0.2429   0.9323     N
C       0.1274   0.3123   0.9691     C
Si      0.1312   0.7132   0.7623    Si
N       0.1323   0.1755   0.5338     N
O       0.1337   0.4256   0.2688     O
O       0.1374    0.431   0.0657     O
O       0.1478   0.9572    0.862     O
C        0.152    0.239   0.4819     C
O       0.1639   0.7319   0.6921     O
O       0.1774    0.887   0.6087     O
O        0.178   0.7345   0.9012     O
O       0.1832   0.0996   0.2315     O
O       0.1939   0.8692   0.2426     O
O       0.1963   0.4225   0.7703     O
C        0.203   0.7653   0.3599     C
C       0.2038    0.786   0.4164     C
O       0.2061   0.3146    0.166     O
C       0.2114   0.7417   0.1344     C
C       0.2117   0.7463   0.0745     C
W      0.21391  0.96717  0.78082     W
C        0.232   0.1643   0.9146     C
C        0.237    0.114   0.5461     C
W      0.23761  0.57932  0.63028     W
N       0.2433   0.2895    0.978     N
H       0.2479   0.0729    0.582     H
H         0.25   0.1052   0.8896     H
H       0.2532   0.9035   0.9823     H
H        0.254   0.9604   0.4623     H
Y       0.2555  0.23653   0.2589     Y
O       0.2555   0.6337   0.7912     O
O       0.2571   0.9288    0.702     O
W      0.26091  0.57572   0.8917     W
H       0.2774   0.7553   0.3353     H
C        0.281   0.1854   0.4655     C
H       0.2852    0.735   0.1495     H
Cu      0.3075   0.3702  0.02826    Cu
N       0.3118   0.8001   0.4343     N
C        0.315    0.193   0.9423     C
C        0.318    0.837   0.9922     C
N       0.3183    0.752   0.0358     N
W      0.31903  0.81555   0.6444     W
C        0.322    0.893   0.4555     C
H       0.3247   0.2016   0.4304     H
N       0.3311     0.11    0.507     N
O       0.3395   0.4965   0.6885     O
O       0.3444   0.4366   0.8499     O
O       0.3467   0.6704   0.6083     O
O       0.3468   0.8202   0.7996     O
W      0.35379  0.43281  0.76845     W
H        0.402   0.1584    0.939     H
H       0.4079   0.2692   0.5475     H
O       0.4082   0.3241   0.2197     O
O       0.4116   0.6218   0.8632     O
O       0.4181   0.7145   0.7034     O
C        0.431    0.721   0.4283     C
N       0.4377   0.8817   0.4659     N
C       0.4397   0.6762   0.0386     C
W      0.44127  0.66857  0.78203     W
C        0.443   0.7976   0.9663     C
H       0.4541   0.6491   0.4127     H
H       0.4624   0.6144   0.0664     H
H       0.4722   0.8321   0.9319     H
N       0.4813   0.2964   0.0038     N
O       0.4834    0.509   0.7645     O
C        0.493    0.232   0.5507     C
Cu         0.5      0.0      0.5    Cu
C        0.507    0.768   0.4493     C
O       0.5166    0.491   0.2355     O
N       0.5187   0.7036   0.9962     N
H       0.5278   0.1679   0.0681     H
H       0.5376   0.3856   0.9336     H
H       0.5459   0.3509   0.5873     H
C        0.557   0.2024   0.0337     C
W      0.55873  0.33143  0.21797     W
C       0.5603   0.3238   0.9614     C
N       0.5623   0.1183   0.5341     N
C        0.569    0.279   0.5717     C
O       0.5819   0.2855   0.2966     O
O       0.5884   0.3782   0.1368     O
O       0.5918   0.6759   0.7803     O
H       0.5921   0.7308   0.4525     H
H        0.598   0.8416    0.061     H
W      0.64621  0.56719  0.23155     W
O       0.6532   0.1798   0.2004     O
O       0.6533   0.3296   0.3917     O
O       0.6556   0.5634   0.1501     O
O       0.6605   0.5035   0.3115     O
N       0.6689     0.89    0.493     N
H       0.6753   0.7984   0.5696     H
C        0.678    0.107   0.5445     C
W      0.68097  0.18445   0.3556     W
N       0.6817    0.248   0.9642     N
C        0.682    0.163   0.0078     C
C        0.685    0.807   0.0577     C
N       0.6882   0.1999   0.5657     N
Cu      0.6925   0.6298  0.97174    Cu
H       0.7148    0.265   0.8505     H
C        0.719   0.8146   0.5345     C
H       0.7226   0.2447   0.6647     H
W      0.73909  0.42428   0.1083     W
O       0.7429   0.0712    0.298     O
O       0.7445   0.3663   0.2088     O
Y       0.7445  0.76347   0.7411     Y
H        0.746   0.0396   0.5377     H
H       0.7468   0.0965   0.0177     H
H         0.75   0.8948   0.1104     H
H       0.7521   0.9271    0.418     H
N       0.7567   0.7105    0.022     N
W      0.76239  0.42068  0.36972     W
C        0.763    0.886   0.4539     C
C        0.768   0.8357   0.0854     C
W      0.78609  0.03283  0.21918     W
C       0.7883   0.2537   0.9255     C
C       0.7886   0.2583   0.8656     C
O       0.7939   0.6854    0.834     O
C       0.7962    0.214   0.5836     C
C        0.797   0.2347   0.6401     C
O       0.8037   0.5775   0.2297     O
O       0.8061   0.1308   0.7574     O
O       0.8168   0.9004   0.7685     O
O        0.822   0.2655   0.0988     O
O       0.8226    0.113   0.3913     O
O       0.8361   0.2681   0.3079     O
C        0.848    0.761   0.5181     C
O       0.8522   0.0428    0.138     O
O       0.8626    0.569   0.9343     O
O       0.8663   0.5744   0.7312     O
N       0.8677   0.8245   0.4662     N
Si      0.8688   0.2868   0.2377    Si
C       0.8726   0.6877   0.0309     C
N       0.8854   0.7571   0.0677     N
O       0.8908   0.4446   0.1111     O
N       0.8919   0.2534   0.8295     N
Cu      0.8922    0.256  0.74516    Cu
O       0.8935   0.2978   0.4051     O
O       0.8942   0.4738   0.3247     O
N       0.8961   0.2417   0.6629     N
C       0.8972   0.2483   0.9499     C
H       0.8985   0.2472   0.9897     H
O       0.8988   0.7822   0.6689     O
H       0.9052   0.6999   0.5371     H
C        0.909    0.192   0.5452     C
O       0.9106   0.9875   0.8484     O
W      0.91385  0.98902  0.76442     W
O       0.9154   0.1588   0.2117     O
H       0.9164   0.1691   0.5078     H
H       0.9272    0.769   0.3599     H
H       0.9297   0.7545   0.1723     H
W      0.93105  0.61662  0.86699     W
O       0.9379   0.9417   0.2373     O
H        0.939   0.6293   0.0135     H
O       0.9493   0.7589   0.8845     O
W      0.96737  0.12952  0.11126     W
O       0.9682   0.4794   0.8295     O
O       0.9773   0.3475   0.2209     O
W      0.98008  0.51458  0.25469     W
O       0.9838   0.9568   0.6874     O
O       0.9846   0.6547   0.2678     O
W      0.98687  0.15729  0.36891     W
C       0.9919   0.7913     0.43     C
C        0.998   0.2476   0.8526     C
C       0.9983   0.7554   0.0893     C
C       0.9986   0.7724   0.3738     C
