data_I
_chemical_name_common  '/home/zhangsd/repos/MofS-CGCNN/ML/data/TSD/clean_cifs/PUFXUL_clean'
_cell_length_a  8.05420
_cell_length_b 18.78000
_cell_length_c 19.28900
_cell_angle_alpha 90.00000
_cell_angle_beta  95.64100
_cell_angle_gamma 90.00000
_space_group_name_H-M_alt      'P 1'


loop_
_space_group_symop_operation_xyz
  'x, y, z' 

loop_
_atom_site_label
_atom_site_fract_x
_atom_site_fract_y
_atom_site_fract_z
_atom_site_type_symbol
C       0.0004   0.8541   0.3625     C
H       0.0166   0.3353   0.5936     H
C       0.0212   0.1087   0.5544     C
H       0.0234    0.722   0.9946     H
H       0.0245   0.9256   0.0241     H
C       0.0317   0.8259   0.8634     C
C        0.033    0.063   0.9515     C
H       0.0386   0.3019   0.8645     H
H       0.0453   0.0665   0.5796     H
C       0.0477   0.9077   0.2336     C
C       0.0498    0.676   0.0112     C
C        0.051   0.7306   0.5179     C
C       0.0538   0.2947   0.2757     C
H       0.0567   0.8947    0.614     H
H       0.0602   0.8365   0.9107     H
H       0.0638   0.9259   0.1894     H
C       0.0762   0.1304   0.9777     C
H       0.0763   0.7729   0.5426     H
H       0.0828   0.2838   0.3229     H
H       0.0897   0.4584   0.5164     H
C       0.1073   0.3834   0.7522     C
C       0.1106   0.8061   0.7492     C
C       0.1125   0.2156   0.5056     C
C       0.1295   0.5421     0.06     C
C       0.1328   0.3565   0.6893     C
C       0.1329   0.3147   0.1606     C
C       0.1388   0.6234   0.4695     C
C       0.1436   0.9303   0.0366     C
C       0.1459    0.153   0.5427     C
H       0.1477   0.0885   0.8192     H
C       0.1522   0.2906   0.8825     C
C       0.1532    0.822   0.8195     C
C       0.1544   0.8781   0.3509     C
H       0.1564   0.4962   0.0771     H
H       0.1579   0.2844   0.9326     H
H       0.1594   0.9391   0.6735     H
H       0.1633    0.963   0.0755     H
H       0.1649   0.5166   0.5701     H
N       0.1673   0.0154   0.9372     N
C       0.1675   0.9097   0.6327     C
C       0.1766   0.2996   0.2294     C
C       0.1777   0.9048   0.2851     C
C       0.1786   0.6841   0.5057     C
H       0.1868   0.2469   0.8612     H
H       0.1884   0.1439   0.9874     H
H       0.1906   0.8841   0.0497     H
C       0.1919   0.4787   0.5389     C
O       0.2122   0.3244   0.4628     O
C       0.2151   0.6566   0.0238     C
H       0.2189   0.9367   0.5977     H
O       0.2216   0.3366   0.0485     O
C       0.2247   0.9587   0.9755     C
H       0.2387   0.3397   0.6806     H
N       0.2413   0.8006   0.7029     N
N       0.2457   0.3878   0.8066     N
C       0.2495   0.2645   0.4912     C
C       0.2538   0.5888   0.0465     C
H       0.2551    0.442   0.5653     H
O       0.2554   0.8646   0.4678     O
H       0.2561   0.1417   0.5598     H
C       0.2639   0.3492    0.866     C
C       0.2641   0.0826   0.8366     C
H       0.2652   0.8298   0.8363     H
C       0.2659   0.3208   0.1108     C
C       0.2691    0.847    0.652     C
N       0.2708   0.5737   0.4559     N
C       0.2802   0.0237   0.8888     C
H       0.2838    0.921    0.276     H
H       0.2869   0.6556   0.7411     H
H       0.2893   0.2925   0.2455     H
H       0.2898   0.6943    0.522     H
C       0.2927   0.5079   0.4854     C
C        0.293   0.8773   0.4075     C
H       0.2995   0.6571   0.3439     H
H          0.3   0.5134   0.7429     H
O       0.3006   0.7725   0.9998     O
H       0.3056   0.1265   0.8584     H
H       0.3285   0.0711   0.7981     H
C       0.3508   0.7097   0.0104     C
N       0.3575   0.9336   0.9511     N
C       0.3615   0.7499   0.7044     C
H       0.3659   0.5743   0.0528     H
H       0.3661    0.707   0.8006     H
C       0.3755   0.6896   0.7538     C
C       0.3777   0.4332   0.8104     C
C       0.3906   0.5807   0.4096     C
N       0.3926   0.9746   0.8956     N
O       0.3958   0.2474   0.5083     O
N       0.3969    0.371   0.9039     N
C       0.4012   0.4857   0.7529     C
N       0.4018   0.8246   0.6236     N
C       0.4075   0.6443   0.3673     C
N       0.4158   0.4769   0.4585     N
O       0.4164   0.3115   0.1315     O
H       0.4252   0.4601   0.7114     H
O       0.4392   0.8903   0.3954     O
H       0.4498   0.6832    0.397     H
N       0.4607   0.7632   0.6565     N
N       0.4692    0.425   0.8674     N
N       0.4784   0.5229   0.4105     N
H       0.4828   0.6664   0.7521     H
Cd     0.48326  0.33853  0.01528    Cd
H       0.4847   0.6347   0.3328     H
Cd     0.49037  0.36127  0.47449    Cd
H       0.4933   0.5173   0.7675     H
O       0.4984   0.6915   0.0123     O
O       0.5016   0.1915   0.9877     O
H       0.5067   0.0173   0.2325     H
Cd     0.50963  0.86127  0.52551    Cd
H       0.5153   0.1347   0.6672     H
Cd     0.51674  0.83853  0.98472    Cd
H       0.5172   0.1664   0.2479     H
N       0.5216   0.0229   0.5895     N
N       0.5308    0.925   0.1326     N
N       0.5393   0.2632   0.3435     N
H       0.5502   0.1832    0.603     H
O       0.5608   0.3903   0.6046     O
H       0.5748   0.9601   0.2886     H
O       0.5836   0.8115   0.8685     O
N       0.5842   0.9769   0.5415     N
C       0.5925   0.1443   0.6327     C
N       0.5982   0.3246   0.3764     N
C       0.5988   0.9857   0.2471     C
N       0.6031    0.871   0.0961     N
O       0.6042   0.7474   0.4917     O
N       0.6074   0.4746   0.1044     N
C       0.6094   0.0807   0.5904     C
C       0.6223   0.9332   0.1896     C
C       0.6245   0.1896   0.2462     C
H       0.6339    0.207   0.1994     H
H       0.6341   0.0743   0.9472     H
C       0.6385   0.2499   0.2956     C
N       0.6425   0.4336   0.0489     N
C       0.6492   0.2097   0.9896     C
H       0.6715   0.5711   0.2019     H
H       0.6944   0.6265   0.1416     H
O       0.6994   0.2725   0.0002     O
H          0.7   0.0134   0.2571     H
H       0.7005   0.1571   0.6561     H
C        0.707   0.3773   0.5925     C
C       0.7073   0.0079   0.5146     C
H       0.7102   0.1943    0.478     H
H       0.7107   0.7925   0.7545     H
H       0.7131   0.1556   0.2589     H
H       0.7162    0.421    0.724     H
C       0.7198   0.5237   0.1112     C
N       0.7292   0.0737   0.5441     N
C       0.7309    0.347    0.348     C
C       0.7341   0.8208   0.8892     C
H       0.7348   0.3298   0.1637     H
C       0.7359   0.5826   0.1634     C
C       0.7361   0.8492    0.134     C
H       0.7439   0.6417   0.4402     H
O       0.7446   0.3646   0.5322     O
H       0.7449    0.942   0.4347     H
C       0.7462   0.0888   0.9535     C
C       0.7505   0.7645   0.5088     C
N       0.7543   0.8878   0.1934     N
N       0.7587   0.3006   0.2971     N
H       0.7613   0.8397   0.3194     H
C       0.7753   0.4587   0.0245     C
O       0.7784   0.8366   0.9515     O
H       0.7811   0.4367   0.4023     H
C       0.7849   0.1566   0.9762     C
O       0.7878   0.8244   0.5372     O
C       0.8081   0.9787   0.4611     C
H       0.8094   0.3841   0.9503     H
H       0.8116   0.6439   0.0126     H
H       0.8132   0.7469   0.1388     H
C       0.8214   0.1841   0.4943     C
C       0.8223   0.4048   0.7149     C
C       0.8234   0.7996   0.7706     C
C       0.8325   0.4097   0.3673     C
N       0.8327   0.5154   0.0628     N
H       0.8351   0.0166   0.4299     H
H       0.8367    0.463   0.9245     H
H       0.8406   0.4391   0.3265     H
H       0.8421   0.7844   0.0674     H
H       0.8436   0.9962   0.9229     H
C       0.8456   0.3781   0.6491     C
C       0.8468    0.322   0.1805     C
C       0.8478   0.7906   0.1175     C
H       0.8523   0.5885   0.1808     H
C       0.8541    0.653   0.4573     C
C       0.8564   0.4303   0.9634     C
C       0.8612   0.1234   0.5305     C
C       0.8671   0.8147   0.8394     C
C       0.8672   0.8565   0.3107     C
C       0.8705   0.0421     0.94     C
C       0.8875   0.7156   0.4944     C
C       0.8894   0.3061   0.2508     C
C       0.8927   0.8834   0.2478     C
H       0.9103   0.9584   0.4836     H
H       0.9172   0.7838   0.6771     H
H       0.9237   0.2729   0.4574     H
C       0.9238   0.6304   0.0223     C
H       0.9362   0.4259   0.8106     H
H       0.9398   0.3365   0.0893     H
H       0.9433   0.3947    0.386     H
C       0.9462   0.7947   0.7243     C
C        0.949   0.2306   0.4821     C
C       0.9502    0.176   0.9888     C
C       0.9523   0.4077   0.7664     C
H       0.9547   0.5665   0.4204     H
H       0.9614   0.8019   0.1355     H
C        0.967    0.563   0.0485     C
C       0.9683   0.3259   0.1366     C
H       0.9755   0.4256   0.9759     H
H       0.9766    0.222   0.0054     H
C       0.9788   0.6087   0.4456     C
H       0.9834   0.8353   0.4064     H
C       0.9996   0.3541   0.6375     C
