data_I
_chemical_name_common  '/home/zhangsd/repos/MofS-CGCNN/ML/data/TSD/clean_cifs/PUGFOO_clean'
_cell_length_a 16.70940
_cell_length_b 20.28570
_cell_length_c 17.19360
_cell_angle_alpha 90.00000
_cell_angle_beta  99.17800
_cell_angle_gamma 90.00000
_space_group_name_H-M_alt      'P 1'


loop_
_space_group_symop_operation_xyz
  'x, y, z' 

loop_
_atom_site_label
_atom_site_fract_x
_atom_site_fract_y
_atom_site_fract_z
_atom_site_type_symbol
O       0.0002   0.2578   0.1681     O
C       0.0013   0.1906   0.5264     C
C       0.0018   0.4698   0.7444     C
H       0.0072   0.4954   0.2228     H
C       0.0074    0.521   0.3345     C
H        0.009   0.4345   0.5651     H
C       0.0095   0.7997   0.5526     C
C       0.0106   0.4273   0.6188     C
O       0.0118   0.3943    0.029     O
C       0.0118   0.8757   0.8017     C
C       0.0122   0.9437     0.79     C
H       0.0123   0.0381   0.2575     H
H       0.0135   0.1515   0.2384     H
H       0.0185   0.7487   0.1007     H
O       0.0193   0.9138   0.2241     O
O       0.0196   0.2631   0.3424     O
H       0.0229   0.8725   0.3895     H
C       0.0247   0.4082   0.7766     C
C       0.0253   0.2599   0.4146     C
H       0.0294   0.2215   0.5603     H
C       0.0296   0.8658   0.4436     C
C        0.031   0.3655    0.649     C
H       0.0318   0.4021   0.8308     H
Mn       0.037  0.33233  0.25421    Mn
C        0.037    0.356   0.7277     C
H       0.0405    0.331    0.616     H
C       0.0442   0.4597   0.3721     C
C       0.0445   0.7745   0.8819     C
C       0.0452   0.7477   0.2187     C
C       0.0482   0.8483    0.872     C
S      0.04878  0.07074  0.83489     S
C       0.0495   0.9836   0.8497     C
O       0.0501   0.3965   0.1559     O
C       0.0515   0.8466   0.6027     C
S      0.05233  0.27533  0.76609     S
O       0.0573   0.0002    0.385     O
O       0.0577   0.1019   0.9095     O
O       0.0577   0.4556   0.4447     O
H        0.059   0.8396   0.6568     H
C       0.0595   0.7555   0.1434     C
O       0.0605   0.3014   0.4629     O
C       0.0635   0.4051   0.0891     C
O       0.0699   0.4155   0.3307     O
C       0.0705   0.9122   0.4946     C
O       0.0738  0.23362   0.7065     O
C       0.0818   0.9028   0.5739     C
Co     0.08645  0.64837   0.9414    Co
O       0.0872   0.7488   0.9409     O
O       0.0874   0.6377   0.7514     O
C       0.0887   0.8893   0.9295     C
C       0.0891   0.9569    0.919     C
H       0.0908   0.0579   0.6865     H
H       0.0951   0.7521   0.3325     H
O       0.1041   0.2794   0.8399     O
S      0.10562  0.98589  0.45883     S
C        0.106   0.7571   0.2815     C
H       0.1096   0.9338   0.6079     H
H       0.1116   0.4612   0.9684     H
O       0.1134  0.03446   0.5191     O
H       0.1159   0.9841   0.9583     H
H       0.1161   0.8712   0.9759     H
C       0.1355   0.7735   0.1321     C
C       0.1371   0.0733   0.7184     C
C       0.1372    0.085   0.7963     C
Mn     0.14409  0.37452  0.44629    Mn
C       0.1448    0.428   0.0777     C
H       0.1457   0.7799    0.081     H
C       0.1483   0.6193    0.796     C
O       0.1539   0.6113   0.8687     O
C       0.1557   0.4556   0.0084     C
O       0.1636  0.30623   0.2622     O
H       0.1687   0.9323   0.3338     H
H        0.178   0.6332   0.6544     H
C       0.1828   0.7738   0.2699     C
C       0.1977   0.7826   0.1942     C
H       0.2027   0.4017   0.1852     H
C       0.2041   0.9656   0.4436     C
H       0.2044    0.117   0.8968     H
C       0.2057   0.0846   0.6884     C
C       0.2057   0.1082   0.8439     C
H        0.206   0.0781   0.6349     H
C       0.2106   0.4199   0.1373     C
C        0.213   0.9383   0.3734     C
O       0.2145   0.3151   0.3887     O
C       0.2201   0.3028   0.3199     C
C       0.2241   0.6059   0.7639     C
H       0.2242   0.7791   0.3126     H
C       0.2246   0.6182   0.6865     C
C       0.2317   0.4754    0.997     C
H       0.2395    0.495   0.9499     H
H       0.2605    0.995   0.5501     H
C       0.2683   0.9754    0.503     C
C       0.2754   0.1182   0.8135     C
H       0.2758   0.2791   0.1874     H
C       0.2759   0.1059   0.7361     C
C       0.2799   0.8028   0.1801     C
O       0.2855   0.8151   0.1113     O
C        0.287   0.4383   0.1266     C
C       0.2894   0.9199   0.3627     C
H        0.294   0.5781   0.8651     H
C       0.2943   0.5846   0.8116     C
C       0.2943   0.6082   0.6561     C
H       0.2956    0.617   0.6032     H
C       0.2959   0.4656   0.0564     C
H       0.2973   0.9017   0.3148     H
C       0.3023   0.2826   0.3058     C
C       0.3172   0.2738   0.2301     C
H        0.322   0.1332   0.8456     H
H       0.3313   0.4323   0.1662     H
O       0.3364  0.80623   0.2378     O
C       0.3443   0.9556   0.4916     C
O       0.3461   0.1113   0.6313     O
C       0.3517   0.1193    0.704     C
H       0.3543   0.2799    0.419     H
C       0.3552    0.928   0.4223     C
Mn     0.35591  0.87452  0.05371    Mn
C       0.3628    0.585   0.7037     C
C       0.3629   0.5733   0.7816     C
C       0.3645   0.2735   0.3679     C
H       0.3839   0.3712   0.5241     H
H       0.3841   0.4841   0.5417     H
O       0.3866  0.53446   0.9809     O
H       0.3884   0.9612   0.5316     H
H       0.3904   0.4338   0.8921     H
C        0.394   0.2571   0.2185     C
S      0.39438  0.48589  0.04117     S
O       0.3959   0.7794   0.6601     O
H       0.4049   0.2521   0.1675     H
H       0.4092   0.5579   0.8135     H
C       0.4109   0.4569    0.581     C
C       0.4113   0.3893   0.5705     C
O       0.4126   0.1377   0.7486     O
O       0.4128   0.2488   0.5591     O
Co     0.41355  0.14837   0.5586    Co
C       0.4182   0.4028   0.9261     C
O       0.4262  0.73362   0.7935     O
C       0.4295   0.4122   0.0054     C
O       0.4301   0.9155   0.1693     O
C       0.4365   0.9051   0.4109     C
O       0.4395   0.8014   0.0371     O
C       0.4405   0.2555   0.3566     C
H        0.441   0.3396   0.8432     H
O       0.4423   0.6019   0.5905     O
O       0.4423   0.9556   0.0553     O
O       0.4427   0.5002    0.115     O
S      0.44767  0.77533  0.73391     S
C       0.4485   0.3466   0.8973     C
O       0.4499   0.8965   0.3441     O
C       0.4505   0.4836   0.6503     C
S      0.45122  0.57074  0.66511     S
C       0.4518   0.3483    0.628     C
C       0.4548   0.2477   0.2813     C
C       0.4555   0.2745   0.6181     C
C       0.4558   0.9597   0.1279     C
H       0.4595    0.831    0.884     H
Mn       0.463  0.83233  0.24579    Mn
C        0.463    0.856   0.7723     C
H       0.4682   0.9021   0.6692     H
C        0.469   0.8655    0.851     C
C       0.4704   0.3658   0.0564     C
H       0.4706   0.7215   0.9397     H
C       0.4747   0.7599   0.0854     C
C       0.4753   0.9082   0.7234     C
H       0.4771   0.3725   0.1105     H
O       0.4804   0.7631   0.1576     O
O       0.4807   0.4138   0.2759     O
H       0.4815   0.2487   0.3993     H
H       0.4865   0.6515   0.2616     H
H       0.4877   0.5381   0.2425     H
C       0.4878   0.4437     0.71     C
C       0.4882   0.3757   0.6983     C
O       0.4882   0.8943    0.471     O
C       0.4894   0.9273   0.8812     C
C       0.4905   0.2997   0.9474     C
H        0.491   0.9345   0.9349     H
C       0.4926    0.021   0.1655     C
H       0.4928   0.9954   0.2772     H
C       0.4982   0.9698   0.7556     C
C       0.4987   0.6906   0.9736     C
O       0.4998   0.7578   0.3319     O
O       0.5002   0.2422   0.6681     O
C       0.5013   0.3094   0.0264     C
C       0.5018   0.0302   0.2444     C
H       0.5072   0.0046   0.7228     H
C       0.5074    0.979   0.8345     C
H        0.509   0.0655   0.0651     H
C       0.5095   0.7003   0.0526     C
C       0.5106   0.0727   0.1188     C
O       0.5118   0.1057    0.529     O
C       0.5118   0.6243   0.3017     C
C       0.5122   0.5563     0.29     C
H       0.5123   0.4619   0.7575     H
H       0.5135   0.3485   0.7384     H
H       0.5185   0.7513   0.6007     H
O       0.5193   0.5862   0.7241     O
O       0.5196   0.2369   0.8424     O
H       0.5229   0.6275   0.8895     H
C       0.5247   0.0918   0.2766     C
C       0.5253   0.2401   0.9146     C
H       0.5294   0.2785   0.0603     H
C       0.5296   0.6342   0.9436     C
C        0.531   0.1345    0.149     C
H       0.5318   0.0979   0.3308     H
C        0.537    0.144   0.2277     C
Mn       0.537  0.16767  0.75421    Mn
H       0.5405    0.169    0.116     H
C       0.5442   0.0403   0.8721     C
C       0.5445   0.7255   0.3819     C
C       0.5452   0.7523   0.7187     C
C       0.5482   0.6517    0.372     C
S      0.54878  0.42926  0.33489     S
C       0.5495   0.5164   0.3497     C
O       0.5501   0.1035   0.6559     O
C       0.5515   0.6534   0.1027     C
S      0.55233  0.22467  0.26609     S
O       0.5573   0.4998    0.885     O
O       0.5577   0.0444   0.9447     O
O       0.5577   0.3981   0.4095     O
H        0.559   0.6604   0.1568     H
C       0.5595   0.7445   0.6434     C
O       0.5605   0.1986   0.9629     O
C       0.5635   0.0949   0.5891     C
O       0.5699   0.0845   0.8307     O
C       0.5705   0.5878   0.9946     C
O       0.5738  0.26638   0.2065     O
C       0.5818   0.5972   0.0739     C
Co     0.58645  0.85163   0.4414    Co
O       0.5872   0.7512   0.4409     O
O       0.5874   0.8623   0.2514     O
C       0.5887   0.6107   0.4295     C
C       0.5891   0.5431    0.419     C
H       0.5908   0.4421   0.1865     H
H       0.5951   0.7479   0.8325     H
O       0.6041   0.2206   0.3399     O
S      0.60562  0.51411  0.95883     S
C        0.606   0.7429   0.7815     C
H       0.6096   0.5662   0.1079     H
H       0.6116   0.0388   0.4684     H
O       0.6134  0.46554   0.0191     O
H       0.6159   0.5159   0.4583     H
H       0.6161   0.6288   0.4759     H
C       0.6355   0.7265   0.6321     C
C       0.6371   0.4267   0.2184     C
C       0.6372    0.415   0.2963     C
Mn     0.64409  0.12548  0.94629    Mn
C       0.6448    0.072   0.5777     C
H       0.6457   0.7201    0.581     H
C       0.6483   0.8807    0.296     C
O       0.6539   0.8887   0.3687     O
C       0.6557   0.0444   0.5084     C
O       0.6636  0.19377   0.7622     O
H       0.6687   0.5677   0.8338     H
H        0.678   0.8668   0.1544     H
C       0.6828   0.7262   0.7699     C
C       0.6977   0.7174   0.6942     C
H       0.7027   0.0983   0.6852     H
C       0.7041   0.5344   0.9436     C
H       0.7044    0.383   0.3968     H
C       0.7057   0.3918   0.3439     C
C       0.7057   0.4154   0.1884     C
H        0.706   0.4219   0.1349     H
C       0.7106   0.0801   0.6373     C
C        0.713   0.5617   0.8734     C
O       0.7145   0.1849   0.8887     O
C       0.7201   0.1972   0.8199     C
C       0.7241   0.8941   0.2639     C
H       0.7242   0.7209   0.8126     H
C       0.7246   0.8818   0.1865     C
C       0.7317   0.0246    0.497     C
H       0.7395    0.005   0.4499     H
H       0.7605    0.505   0.0501     H
C       0.7683   0.5246    0.003     C
C       0.7754   0.3818   0.3135     C
H       0.7758   0.2209   0.6874     H
C       0.7759   0.3941   0.2361     C
C       0.7799   0.6972   0.6801     C
O       0.7855   0.6849   0.6113     O
C        0.787   0.0617   0.6266     C
C       0.7894   0.5801   0.8627     C
H        0.794   0.9219   0.3651     H
C       0.7943   0.8918   0.1561     C
C       0.7943   0.9154   0.3116     C
H       0.7956    0.883   0.1032     H
C       0.7959   0.0344   0.5564     C
H       0.7973   0.5983   0.8148     H
C       0.8023   0.2174   0.8058     C
C       0.8172   0.2262   0.7301     C
H        0.822   0.3668   0.3456     H
H       0.8313   0.0677   0.6662     H
O       0.8364  0.69377   0.7378     O
C       0.8443   0.5444   0.9916     C
O       0.8461   0.3887   0.1313     O
C       0.8517   0.3807    0.204     C
H       0.8543   0.2201    0.919     H
C       0.8552    0.572   0.9223     C
Mn     0.85591  0.62548  0.55371    Mn
C       0.8628    0.915   0.2037     C
C       0.8629   0.9267   0.2816     C
C       0.8645   0.2265   0.8679     C
H       0.8839   0.1288   0.0241     H
H       0.8841   0.0159   0.0417     H
O       0.8866  0.96554   0.4809     O
H       0.8884   0.5388   0.0316     H
H       0.8904   0.0662   0.3921     H
C        0.894   0.2429   0.7185     C
S      0.89438  0.01411  0.54117     S
O       0.8959   0.7206   0.1601     O
H       0.9049   0.2479   0.6675     H
H       0.9092   0.9421   0.3135     H
C       0.9109   0.0431    0.081     C
C       0.9113   0.1107   0.0705     C
O       0.9126   0.3623   0.2486     O
O       0.9128   0.2512   0.0591     O
Co     0.91355  0.35163   0.0586    Co
C       0.9182   0.0972   0.4261     C
O       0.9262  0.76638   0.2935     O
C       0.9295   0.0878   0.5054     C
O       0.9301   0.5845   0.6693     O
C       0.9365   0.5949   0.9109     C
O       0.9395   0.6986   0.5371     O
C       0.9405   0.2445   0.8566     C
H        0.941   0.1604   0.3432     H
O       0.9423   0.5444   0.5553     O
O       0.9423   0.8981   0.0905     O
O       0.9427   0.9998    0.615     O
S      0.94767  0.72467  0.23391     S
C       0.9485   0.1534   0.3973     C
O       0.9499   0.6035   0.8441     O
C       0.9505   0.0164   0.1503     C
S      0.95122  0.92926  0.16511     S
C       0.9518   0.1517    0.128     C
C       0.9548   0.2523   0.7813     C
C       0.9555   0.2255   0.1181     C
C       0.9558   0.5403   0.6279     C
H       0.9595    0.669    0.384     H
C        0.963    0.644   0.2723     C
Mn       0.963  0.66767  0.74579    Mn
H       0.9682   0.5979   0.1692     H
C        0.969   0.6345    0.351     C
C       0.9704   0.1342   0.5564     C
H       0.9706   0.7785   0.4397     H
C       0.9747   0.7401   0.5854     C
C       0.9753   0.5918   0.2234     C
H       0.9771   0.1275   0.6105     H
O       0.9804   0.7369   0.6576     O
O       0.9807   0.0862   0.7759     O
H       0.9815   0.2513   0.8993     H
H       0.9865   0.8485   0.7616     H
H       0.9877   0.9619   0.7425     H
C       0.9878   0.0563     0.21     C
C       0.9882   0.1243   0.1983     C
O       0.9882   0.6057    0.971     O
C       0.9894   0.5727   0.3812     C
C       0.9905   0.2003   0.4474     C
H        0.991   0.5655   0.4349     H
C       0.9926    0.479   0.6655     C
H       0.9928   0.5046   0.7772     H
C       0.9982   0.5302   0.2556     C
C       0.9987   0.8094   0.4736     C
O       0.9998   0.7422   0.8319     O
