data_I
_chemical_name_common  '/home/zhangsd/repos/MofS-CGCNN/ML/data/TSD/clean_cifs/PUGHIK_clean'
_cell_length_a 16.70940
_cell_length_b 20.28570
_cell_length_c 17.19360
_cell_angle_alpha 90.00000
_cell_angle_beta  99.17800
_cell_angle_gamma 90.00000
_space_group_name_H-M_alt      'P 1'


loop_
_space_group_symop_operation_xyz
  'x, y, z' 

loop_
_atom_site_label
_atom_site_fract_x
_atom_site_fract_y
_atom_site_fract_z
_atom_site_type_symbol
C       0.0009   0.1916   0.0297     C
C        0.002    0.467    0.251     C
O       0.0025  0.74325   0.3282     O
H       0.0054   0.0382   0.7594     H
C       0.0056   0.5227   0.8286     C
H       0.0081   0.4986   0.7161     H
H       0.0095   0.1509   0.7403     H
C         0.01   0.7963   0.0505     C
O       0.0109   0.3981   0.5165     O
C       0.0132   0.8763   0.3009     C
H       0.0141   0.4347   0.0709     H
C       0.0146    0.427   0.1243     C
C       0.0148   0.9438   0.2896     C
O        0.019  0.26777   0.8452     O
O        0.019  0.91315   0.7251     O
H        0.021   0.7515   0.5975     H
H       0.0214   0.8727   0.8875     H
C       0.0246    0.406   0.2826     C
C       0.0251    0.264   0.9177     C
H       0.0285   0.2221   0.0644     H
C       0.0288   0.8649   0.9415     C
H       0.0305   0.3993   0.3367     H
C       0.0355   0.3653   0.1548     C
Mn     0.03684  0.33389  0.75269    Mn
C       0.0385   0.3549   0.2334     C
C        0.042   0.7751   0.3816     C
C       0.0433   0.4615   0.8662     C
O       0.0442  0.39233   0.6443     O
C       0.0447   0.7494   0.7157     C
C       0.0447   0.8491   0.3724     C
C       0.0463   0.9838   0.3505     C
H       0.0473   0.3313   0.1221     H
S      0.04774   0.0706  0.33559     S
C       0.0523   0.8421    0.101     C
S      0.05321  0.27386  0.27103     S
O       0.0542  0.45736   0.9395     O
O       0.0558  0.10183   0.4106     O
O       0.0584  0.99903   0.8844     O
O       0.0599  0.30482   0.9665     O
C       0.0607   0.4048   0.5781     C
H       0.0609   0.8341    0.155     H
C       0.0613   0.7578   0.6409     C
C       0.0699   0.9103   0.9937     C
O       0.0714  0.41849   0.8251     O
O       0.0764  0.23294   0.2106     O
C       0.0789   0.8897   0.4325     C
O       0.0793  0.74962   0.4429     O
C       0.0795   0.9577   0.4219     C
C       0.0815   0.8986   0.0732     C
Mn     0.08457  0.64787  0.44379    Mn
O       0.0863   0.6334   0.2498     O
H       0.0899   0.0609   0.1864     H
H       0.0918   0.7538   0.8303     H
H       0.1017   0.8716   0.4807     H
H       0.1023   0.9852   0.4628     H
O       0.1033  0.27665   0.3459     O
C        0.104   0.7586   0.7797     C
S      0.10476  0.98467  0.95924     S
H       0.1091   0.9291   0.1079     H
O       0.1096  0.03232   0.0207     O
H       0.1141   0.4644   0.4622     H
C       0.1369   0.0742    0.219     C
C       0.1375   0.0834   0.2975     C
C       0.1382   0.7756   0.6308     C
Mn     0.14339   0.3785  0.94673    Mn
C       0.1435   0.4285   0.5717     C
C       0.1475    0.617   0.2955     C
H       0.1497   0.7819   0.5801     H
O       0.1533  0.61116  0.36824     O
C       0.1572   0.4574   0.5028     C
O      0.16339  0.30696  0.75982     O
H       0.1731   0.9315    0.835     H
H       0.1775   0.6264   0.1512     H
C       0.1811    0.775   0.7694     C
H       0.1975   0.4024   0.6805     H
C       0.1988   0.7841   0.6946     C
C       0.2038   0.9659   0.9457     C
H       0.2045   0.1106   0.3994     H
C       0.2056   0.1035   0.3461     C
C       0.2066    0.085    0.189     C
H       0.2068   0.0795   0.1353     H
C       0.2072   0.4202   0.6331     C
O       0.2115   0.3168  0.88749     O
C       0.2162    0.938   0.8756     C
C       0.2184   0.3041   0.8184     C
H       0.2215   0.7799   0.8129     H
C       0.2232   0.6038   0.2627     C
C       0.2245   0.6133   0.1841     C
C       0.2339   0.4762   0.4936     C
H       0.2434   0.4955   0.4468     H
H       0.2566   0.9955   0.0532     H
C       0.2661   0.9762   0.0064     C
C       0.2755   0.1133   0.3159     C
C       0.2768   0.1038   0.2373     C
H       0.2785   0.2799   0.6871     H
C       0.2816   0.8041   0.6816     C
C       0.2838    0.438   0.6244     C
O       0.2885   0.8168  0.61251     O
C       0.2928   0.9202   0.8669     C
H       0.2932   0.5795   0.3647     H
C       0.2934    0.585    0.311     C
C       0.2944   0.6035   0.1539     C
H       0.2955   0.6106   0.1006     H
C       0.2962   0.4659   0.5543     C
C       0.3012   0.2841   0.8054     C
H       0.3025   0.9024   0.8195     H
C       0.3189    0.275   0.7306     C
H       0.3225   0.1264   0.3488     H
H       0.3269   0.4315    0.665     H
O      0.33661  0.80696  0.74018     O
C       0.3428   0.9574   0.9972     C
O       0.3467  0.11116  0.13176     O
H       0.3503   0.2819   0.9199     H
C       0.3525    0.117   0.2045     C
C       0.3565   0.9285   0.9283     C
Mn     0.35661   0.8785  0.55327    Mn
C       0.3618   0.2756   0.8692     C
C       0.3625   0.5834   0.2025     C
C       0.3631   0.5742    0.281     C
H       0.3859   0.9644   0.0378     H
O       0.3904  0.53232   0.4793     O
H       0.3909   0.4291   0.3921     H
S      0.39524  0.48467  0.54076     S
C        0.396   0.2586   0.7203     C
O       0.3967  0.77665   0.1541     O
H       0.3977   0.4852   0.0372     H
H       0.3983   0.3716   0.0193     H
H       0.4082   0.2538   0.6697     H
H       0.4101   0.5609   0.3136     H
O       0.4137   0.1334   0.2502     O
Mn     0.41543  0.14787  0.05621    Mn
C       0.4185   0.3986   0.4268     C
C       0.4205   0.4577   0.0781     C
O       0.4207  0.24962   0.0571     O
C       0.4211   0.3897   0.0675     C
O       0.4236  0.73294   0.2894     O
O       0.4286  0.91849   0.6749     O
C       0.4301   0.4103   0.5063     C
C       0.4387   0.2578   0.8591     C
H       0.4391   0.3341    0.345     H
C       0.4393   0.9048   0.9219     C
O       0.4401  0.80482   0.5335     O
O       0.4416  0.49903   0.6156     O
O       0.4442  0.60183   0.0894     O
O       0.4458  0.95736   0.5605     O
S      0.44679  0.77386  0.22897     S
C       0.4477   0.3421    0.399     C
S      0.45226   0.5706  0.16441     S
H       0.4527   0.8313   0.3779     H
C       0.4537   0.4838   0.1495     C
C       0.4553   0.2494   0.7843     C
C       0.4553   0.3491   0.1276     C
O       0.4558  0.89233   0.8557     O
C       0.4567   0.9615   0.6338     C
C        0.458   0.2751   0.1184     C
C       0.4615   0.8549   0.2666     C
Mn     0.46316  0.83389  0.74731    Mn
C       0.4645   0.8653   0.3452     C
H       0.4695   0.8993   0.1633     H
C       0.4712   0.3649   0.5585     C
H       0.4715   0.7221   0.4356     H
C       0.4749    0.764   0.5823     C
C       0.4754    0.906   0.2174     C
H       0.4786   0.3727   0.6125     H
H        0.479   0.2515   0.9025     H
O        0.481  0.41315   0.7749     O
O        0.481  0.76777   0.6548     O
C       0.4852   0.4438   0.2104     C
C       0.4854    0.927   0.3757     C
H       0.4859   0.9347   0.4291     H
C       0.4868   0.3763   0.1991     C
O       0.4891   0.8981   0.9835     O
C         0.49   0.2963   0.4495     C
H       0.4905   0.6509   0.7597     H
H       0.4919   0.9986   0.7839     H
C       0.4944   0.0227   0.6714     C
H       0.4946   0.5382   0.7406     H
O       0.4975  0.24325   0.1718     O
C        0.498    0.967    0.249     C
C       0.4991   0.6916   0.4703     C
C       0.5009   0.3084   0.5297     C
C        0.502    0.033    0.751     C
O       0.5025  0.75675   0.8282     O
H       0.5054   0.4618   0.2594     H
C       0.5056   0.9773   0.3286     C
H       0.5081   0.0014   0.2161     H
H       0.5095   0.3491   0.2403     H
C         0.51   0.7037   0.5505     C
O       0.5109   0.1019   0.0165     O
C       0.5132   0.6237   0.8009     C
H       0.5141   0.0653   0.5709     H
C       0.5146    0.073   0.6243     C
C       0.5148   0.5562   0.7896     C
O        0.519  0.23223   0.3452     O
O        0.519  0.58685   0.2251     O
H        0.521   0.7485   0.0975     H
H       0.5214   0.6273   0.3875     H
C       0.5246    0.094   0.7826     C
C       0.5251    0.236   0.4177     C
H       0.5285   0.2779   0.5644     H
C       0.5288   0.6351   0.4415     C
H       0.5305   0.1007   0.8367     H
C       0.5355   0.1347   0.6548     C
Mn     0.53684  0.16611  0.25269    Mn
C       0.5385   0.1451   0.7334     C
C        0.542   0.7249   0.8816     C
C       0.5433   0.0385   0.3662     C
O       0.5442  0.10767   0.1443     O
C       0.5447   0.6509   0.8724     C
C       0.5447   0.7506   0.2157     C
C       0.5463   0.5162   0.8505     C
H       0.5473   0.1687   0.6221     H
S      0.54774   0.4294  0.83559     S
C       0.5523   0.6579    0.601     C
S      0.55321  0.22614  0.77103     S
O       0.5542  0.04264   0.4395     O
O       0.5558  0.39817   0.9106     O
O       0.5584  0.50097   0.3844     O
O       0.5599  0.19518   0.4665     O
C       0.5607   0.0952   0.0781     C
H       0.5609   0.6659    0.655     H
C       0.5613   0.7422   0.1409     C
C       0.5699   0.5897   0.4937     C
O       0.5714  0.08151   0.3251     O
O       0.5764  0.26706   0.7106     O
C       0.5789   0.6103   0.9325     C
O       0.5793  0.75038   0.9429     O
C       0.5795   0.5423   0.9219     C
C       0.5815   0.6014   0.5732     C
Mn     0.58457  0.85213  0.94379    Mn
O       0.5863   0.8666   0.7498     O
H       0.5899   0.4391   0.6864     H
H       0.5918   0.7462   0.3303     H
H       0.6017   0.6284   0.9807     H
H       0.6023   0.5148   0.9628     H
O       0.6033  0.22335   0.8459     O
C        0.604   0.7414   0.2797     C
S      0.60476  0.51533  0.45924     S
H       0.6091   0.5709   0.6079     H
O       0.6096  0.46768   0.5207     O
H       0.6141   0.0356   0.9622     H
C       0.6369   0.4258    0.719     C
C       0.6375   0.4166   0.7975     C
C       0.6382   0.7244   0.1308     C
Mn     0.64339   0.1215  0.44673    Mn
C       0.6435   0.0715   0.0717     C
C       0.6475    0.883   0.7955     C
H       0.6497   0.7181   0.0801     H
O       0.6533  0.88884  0.86824     O
C       0.6572   0.0426   0.0028     C
O      0.66339  0.19304  0.25982     O
H       0.6731   0.5685    0.335     H
H       0.6775   0.8736   0.6512     H
C       0.6811    0.725   0.2694     C
H       0.6975   0.0976   0.1805     H
C       0.6988   0.7159   0.1946     C
C       0.7038   0.5341   0.4457     C
H       0.7045   0.3894   0.8994     H
C       0.7056   0.3965   0.8461     C
C       0.7066    0.415    0.689     C
H       0.7068   0.4205   0.6353     H
C       0.7072   0.0798   0.1331     C
O       0.7115   0.1832  0.38749     O
C       0.7162    0.562   0.3756     C
C       0.7184   0.1959   0.3184     C
H       0.7215   0.7201   0.3129     H
C       0.7232   0.8962   0.7627     C
C       0.7245   0.8867   0.6841     C
C       0.7339   0.0238   0.9936     C
H       0.7434   0.0045   0.9468     H
H       0.7566   0.5045   0.5532     H
C       0.7661   0.5238   0.5064     C
C       0.7755   0.3867   0.8159     C
C       0.7768   0.3962   0.7373     C
H       0.7785   0.2201   0.1871     H
C       0.7816   0.6959   0.1816     C
C       0.7838    0.062   0.1244     C
O       0.7885   0.6832  0.11251     O
C       0.7928   0.5798   0.3669     C
H       0.7932   0.9205   0.8647     H
C       0.7934    0.915    0.811     C
C       0.7944   0.8965   0.6539     C
H       0.7955   0.8894   0.6006     H
C       0.7962   0.0341   0.0543     C
C       0.8012   0.2159   0.3054     C
H       0.8025   0.5976   0.3195     H
C       0.8189    0.225   0.2306     C
H       0.8225   0.3736   0.8488     H
H       0.8269   0.0685    0.165     H
O      0.83661  0.69304  0.24018     O
C       0.8428   0.5426   0.4972     C
O       0.8467  0.38884  0.63176     O
H       0.8503   0.2181   0.4199     H
C       0.8525    0.383   0.7045     C
C       0.8565   0.5715   0.4283     C
Mn     0.85661   0.6215  0.05327    Mn
C       0.8618   0.2244   0.3692     C
C       0.8625   0.9166   0.7025     C
C       0.8631   0.9258    0.781     C
H       0.8859   0.5356   0.5378     H
O       0.8904  0.96768   0.9793     O
H       0.8909   0.0709   0.8921     H
S      0.89524  0.01533  0.04076     S
C        0.896   0.2414   0.2203     C
O       0.8967  0.72335   0.6541     O
H       0.8977   0.0148   0.5372     H
H       0.8983   0.1284   0.5193     H
H       0.9082   0.2462   0.1697     H
H       0.9101   0.9391   0.8136     H
O       0.9137   0.3666   0.7502     O
Mn     0.91543  0.35213  0.55621    Mn
C       0.9185   0.1014   0.9268     C
C       0.9205   0.0423   0.5781     C
O       0.9207  0.25038   0.5571     O
C       0.9211   0.1103   0.5675     C
O       0.9236  0.76706   0.7894     O
O       0.9286  0.58151   0.1749     O
C       0.9301   0.0897   0.0063     C
C       0.9387   0.2422   0.3591     C
H       0.9391   0.1659    0.845     H
C       0.9393   0.5952   0.4219     C
O       0.9401  0.69518   0.0335     O
O       0.9416  0.00097   0.1156     O
O       0.9442  0.89817   0.5894     O
O       0.9458  0.54264   0.0605     O
S      0.94679  0.72614  0.72897     S
C       0.9477   0.1579    0.899     C
S      0.95226   0.9294  0.66441     S
H       0.9527   0.6687   0.8779     H
C       0.9537   0.0162   0.6495     C
C       0.9553   0.1509   0.6276     C
C       0.9553   0.2506   0.2843     C
O       0.9558  0.60767   0.3557     O
C       0.9567   0.5385   0.1338     C
C        0.958   0.2249   0.6184     C
C       0.9615   0.6451   0.7666     C
Mn     0.96316  0.66611  0.24731    Mn
C       0.9645   0.6347   0.8452     C
H       0.9695   0.6007   0.6633     H
C       0.9712   0.1351   0.0585     C
H       0.9715   0.7779   0.9356     H
C       0.9749    0.736   0.0823     C
C       0.9754    0.594   0.7174     C
H       0.9786   0.1273   0.1125     H
H        0.979   0.2485   0.4025     H
O        0.981  0.08685   0.2749     O
O        0.981  0.73223   0.1548     O
C       0.9852   0.0562   0.7104     C
C       0.9854    0.573   0.8757     C
H       0.9859   0.5653   0.9291     H
C       0.9868   0.1237   0.6991     C
O       0.9891   0.6019   0.4835     O
C         0.99   0.2037   0.9495     C
H       0.9905   0.8491   0.2597     H
H       0.9919   0.5014   0.2839     H
C       0.9944   0.4773   0.1714     C
H       0.9946   0.9618   0.2406     H
O       0.9975  0.25675   0.6718     O
C        0.998    0.533    0.749     C
C       0.9991   0.8084   0.9703     C
