data_I
_chemical_name_common  '/home/zhangsd/repos/MofS-CGCNN/ML/data/TSD/clean_cifs/PUGHAC_clean'
_cell_length_a 16.70940
_cell_length_b 20.28570
_cell_length_c 17.19360
_cell_angle_alpha 90.00000
_cell_angle_beta  99.17800
_cell_angle_gamma 90.00000
_space_group_name_H-M_alt      'P 1'


loop_
_space_group_symop_operation_xyz
  'x, y, z' 

loop_
_atom_site_label
_atom_site_fract_x
_atom_site_fract_y
_atom_site_fract_z
_atom_site_type_symbol
C       0.0019  0.02417  0.32498     C
C       0.0028  0.69758  0.53246     C
H       0.0054   0.9998   0.2112     H
O       0.0059  0.24136  0.82683     O
C        0.006  0.96599   0.7563     C
C      0.00764  0.29004   0.5484     C
H       0.0079   0.5391   0.2522     H
O      0.00828  0.90282  0.00767     O
H       0.0083    0.652   0.2364     H
C       0.0126  0.44208   0.7962     C
C       0.0128  0.37474  0.80589     C
H       0.0195   0.3678    0.385     H
O      0.01953  0.77519  0.34582     O
H       0.0211   0.2467   0.0944     H
C       0.0225    0.927   0.6268     C
H       0.0225   0.9354   0.5736     H
O      0.02477  0.41509  0.21197     O
C       0.0264  0.35974   0.4389     C
C       0.0272  0.77126   0.4192     C
H       0.0298   0.7282   0.5674     H
C       0.0309  0.90549   0.7884     C
H       0.0362   0.8985   0.8424     H
Mn     0.03628  0.83793  0.24945    Mn
O       0.0377  0.89355  0.13659     O
C      0.03951   0.2489  0.21412     C
C       0.0422  0.27198  0.88425     C
C       0.0438  0.48169   0.8604     C
C      0.04398   0.3458   0.8781     C
S       0.0443  0.56833  0.84658     S
C       0.0469  0.86598   0.6582     C
C       0.0471   0.9656   0.3632     C
C      0.04792  0.85503  0.73835     C
C       0.0491  0.33567      0.6     C
O      0.05441  0.49494   0.3809     O
O        0.055  0.59935  0.92262     O
H       0.0577    0.327   0.6538     H
C       0.0577  0.90756   0.0712     C
C       0.0597  0.25449   0.1387     C
S      0.06093  0.77349  0.77533     S
H       0.0623   0.8328   0.6263     H
O      0.06261  0.81211  0.46854     O
O      0.06384  0.96447  0.43741     O
C      0.06622  0.40519  0.49184     C
O      0.07467  0.92244  0.32103     O
C       0.0752  0.38605   0.9411     C
C       0.0752  0.45402   0.9324     C
O      0.07719    0.245   0.9468     O
C       0.0779  0.39389  0.57255     C
H       0.0823   0.5614   0.6921     H
H       0.0834   0.2561   0.3308     H
O      0.08594  0.73296  0.71455     O
O      0.08843  0.12787  0.75176     O
Mn      0.0887  0.14299  0.94876    Mn
H       0.0961   0.4808   0.9746     H
H       0.0962   0.3673   0.9894     H
C       0.0975  0.25976  0.28078     C
S      0.09969  0.48114  0.45776     S
O      0.10162  0.52869  0.52021     O
H       0.1046   0.4248   0.6074     H
O      0.10942  0.77526  0.85235     O
H       0.1179   0.9637   0.9544     H
C       0.1304  0.57354   0.7238     C
C       0.1332  0.58118   0.8044     C
C      0.13801  0.27183  0.13092     C
C       0.1423  0.93007  0.06688     C
Mn     0.15001  0.88419  0.44488    Mn
H       0.1518   0.2763   0.0809     H
C        0.152  0.11381    0.797     C
C       0.1595  0.95713   0.9965     C
O      0.16015  0.10984   0.8713     O
O      0.16433  0.80811  0.25509     O
H       0.1755   0.4341   0.3327     H
C       0.1757  0.27599  0.27226     C
H       0.1775   0.1185   0.6485     H
H       0.1914   0.9069   0.1789     H
C      0.19705  0.28287  0.19728     C
H        0.198     0.58   0.6368     H
C          0.2  0.58416  0.69095     C
C      0.20097  0.46436  0.44631     C
C       0.2036  0.92287   0.1314     C
C       0.2049   0.5982   0.8524     C
H       0.2063   0.6033   0.9064     H
O      0.21094  0.81666  0.38489     O
H       0.2146   0.2824   0.3167     H
C        0.217  0.43948  0.37513     C
C        0.219  0.80415  0.31427     C
C       0.2259   0.1076   0.6806     C
C       0.2277  0.10088  0.76186     C
C        0.238  0.97416  0.98961     C
H       0.2499   0.9919   0.9429     H
H       0.2501   0.4919   0.5571     H
C        0.262  0.47416  0.51039     C
C       0.2723  0.60088  0.73814     C
C       0.2741   0.6076   0.8194     C
C        0.281  0.30415  0.18573     C
C        0.283  0.93948  0.12487     C
H       0.2854   0.7824   0.1833     H
O      0.28906  0.31666  0.11511     O
H       0.2937   0.1033   0.5936     H
C       0.2951   0.0982   0.6476     C
C       0.2964  0.42287   0.3686     C
C      0.29903  0.96436  0.05369     C
C          0.3  0.08416  0.80905     C
H        0.302     0.08   0.8632     H
C      0.30295  0.78287  0.30272     C
H       0.3086   0.4069   0.3211     H
H       0.3225   0.6185   0.8515     H
C       0.3243  0.77599  0.22774     C
H       0.3245   0.9341   0.1673     H
O      0.33567  0.30811  0.24491     O
O      0.33985  0.60984   0.6287     O
C       0.3405  0.45713   0.5035     C
C        0.348  0.61381    0.703     C
H       0.3482   0.7763   0.4191     H
Mn     0.34999  0.38419  0.05512    Mn
C       0.3577  0.43007  0.43312     C
C      0.36199  0.77183  0.36908     C
C       0.3668  0.08118   0.6956     C
C       0.3696  0.07354   0.7762     C
H       0.3821   0.4637   0.5456     H
O      0.39058  0.27526  0.64765     O
H       0.3954   0.9248   0.8926     H
O      0.39838  0.02869  0.97979     O
S      0.40031  0.98114  0.04224     S
C       0.4025  0.75976  0.21922     C
H       0.4038   0.8673   0.5106     H
H       0.4039   0.9808   0.5254     H
Mn      0.4113  0.64299  0.55124    Mn
O      0.41157  0.62787  0.74824     O
O      0.41406  0.23296  0.78545     O
H       0.4166   0.7561   0.1692     H
H       0.4177   0.0614   0.8079     H
C       0.4221  0.89389  0.92745     C
O      0.42281    0.745   0.5532     O
C       0.4248  0.88605   0.5589     C
C       0.4248  0.95402   0.5676     C
O      0.42533  0.42244  0.17897     O
C      0.43378  0.90519  0.00816     C
O      0.43616  0.46447  0.06259     O
O      0.43739  0.31211  0.03146     O
H       0.4377   0.3328   0.8737     H
S      0.43907  0.27349  0.72467     S
C       0.4403  0.75449   0.3613     C
C       0.4423  0.40756   0.4288     C
H       0.4423    0.827   0.8462     H
O        0.445  0.09935  0.57738     O
O      0.44559  0.99494   0.1191     O
C       0.4509  0.83567      0.9     C
C      0.45208  0.35503  0.76165     C
C       0.4529   0.4656   0.1368     C
C       0.4531  0.36598   0.8418     C
S       0.4557  0.06833  0.65342     S
C      0.45602   0.8458   0.6219     C
C       0.4562  0.98169   0.6396     C
C       0.4578  0.77198  0.61575     C
C      0.46049   0.7489  0.28588     C
O       0.4623  0.39355  0.36341     O
Mn     0.46372  0.33793  0.25055    Mn
H       0.4638   0.3985   0.6576     H
C       0.4691  0.40549   0.7116     C
H       0.4702   0.2282   0.9326     H
C       0.4728  0.27126   0.0808     C
C       0.4736  0.85974   0.0611     C
O      0.47523  0.91509  0.28803     O
C       0.4775    0.427   0.8732     C
H       0.4775   0.4354   0.9264     H
H       0.4789   0.7467   0.4056     H
O      0.48047  0.27519  0.15418     O
H       0.4805   0.8678    0.115     H
C       0.4872  0.87474  0.69411     C
C       0.4874  0.94208   0.7038     C
H       0.4917    0.152   0.2636     H
O      0.49172  0.40282  0.49233     O
H       0.4921   0.0391   0.2478     H
C      0.49236  0.79004   0.9516     C
C        0.494  0.46599   0.7437     C
O       0.4941  0.74136  0.67317     O
H       0.4946   0.4998   0.2888     H
C       0.4972  0.19758  0.96754     C
C       0.4981  0.52417  0.17502     C
C       0.5019  0.47583  0.82498     C
C       0.5028  0.80242  0.03246     C
H       0.5054   0.5002   0.7112     H
O       0.5059  0.25864  0.32683     O
C        0.506  0.53401   0.2563     C
C      0.50764  0.20996   0.0484     C
H       0.5079   0.9609   0.7522     H
O      0.50828  0.59718  0.50767     O
H       0.5083    0.848   0.7364     H
C       0.5126  0.05792   0.2962     C
C       0.5128  0.12526  0.30589     C
H       0.5195   0.1322    0.885     H
O      0.51953  0.72481  0.84582     O
H       0.5211   0.2533   0.5944     H
H       0.5225   0.5646   0.0736     H
C       0.5225    0.573   0.1268     C
O      0.52477  0.08491  0.71197     O
C       0.5264  0.14026   0.9389     C
C       0.5272  0.72874   0.9192     C
H       0.5298   0.7718   0.0674     H
C       0.5309  0.59451   0.2884     C
H       0.5362   0.6015   0.3424     H
Mn     0.53628  0.66207  0.74945    Mn
O       0.5377  0.60645  0.63659     O
C      0.53951   0.2511  0.71412     C
C       0.5422  0.22802  0.38425     C
C       0.5438  0.01831   0.3604     C
C      0.54398   0.1542   0.3781     C
S       0.5443  0.93167  0.34658     S
C       0.5469  0.63402   0.1582     C
C       0.5471   0.5344   0.8632     C
C      0.54792  0.64497  0.23835     C
C       0.5491  0.16433      0.1     C
O      0.55441  0.00506   0.8809     O
O        0.555  0.90065  0.42262     O
H       0.5577    0.173   0.1538     H
C       0.5577  0.59244   0.5712     C
C       0.5597  0.24551   0.6387     C
S      0.56093  0.72651  0.27533     S
H       0.5623   0.6672   0.1263     H
O      0.56261  0.68789  0.96854     O
O      0.56384  0.53553  0.93741     O
C      0.56622  0.09481  0.99184     C
O      0.57467  0.57756  0.82103     O
C       0.5752  0.04598   0.4324     C
C       0.5752  0.11395   0.4411     C
O      0.57719    0.255   0.4468     O
C       0.5779  0.10611  0.07255     C
H       0.5823   0.9386   0.1921     H
H       0.5834   0.2439   0.8308     H
O      0.58594  0.76704  0.21455     O
O      0.58843  0.37213  0.25176     O
Mn      0.5887  0.35701  0.44876    Mn
H       0.5961   0.0192   0.4746     H
H       0.5962   0.1327   0.4894     H
C       0.5975  0.24024  0.78078     C
S      0.59969  0.01886  0.95776     S
O      0.60162  0.97131  0.02021     O
H       0.6046   0.0752   0.1074     H
O      0.60942  0.72474  0.35235     O
H       0.6179   0.5363   0.4544     H
C       0.6304  0.92646   0.2238     C
C       0.6332  0.91882   0.3044     C
C      0.63801  0.22817  0.63092     C
C       0.6423  0.56993  0.56688     C
Mn     0.65001  0.61581  0.94488    Mn
H       0.6518   0.2237   0.5809     H
C        0.652  0.38619    0.297     C
C       0.6595  0.54287   0.4965     C
O      0.66015  0.39016   0.3713     O
O      0.66433  0.69189  0.75509     O
H       0.6755   0.0659   0.8327     H
C       0.6757  0.22401  0.77226     C
H       0.6775   0.3815   0.1485     H
H       0.6914   0.5931   0.6789     H
C      0.69705  0.21713  0.69728     C
H        0.698     0.92   0.1368     H
C          0.7  0.91584  0.19095     C
C      0.70097  0.03564  0.94631     C
C       0.7036  0.57713   0.6314     C
C       0.7049   0.9018   0.3524     C
H       0.7063   0.8967   0.4064     H
O      0.71094  0.68334  0.88489     O
H       0.7146   0.2176   0.8167     H
C        0.717  0.06052  0.87513     C
C        0.719  0.69585  0.81427     C
C       0.7259   0.3924   0.1806     C
C       0.7277  0.39912  0.26186     C
C        0.738  0.52584  0.48961     C
H       0.7499   0.5081   0.4429     H
H       0.7501   0.0081   0.0571     H
C        0.762  0.02584  0.01039     C
C       0.7723  0.89912  0.23814     C
C       0.7741   0.8924   0.3194     C
C        0.781  0.19585  0.68573     C
C        0.783  0.56052  0.62487     C
H       0.7854   0.7176   0.6833     H
O      0.78906  0.18334  0.61511     O
H       0.7937   0.3967   0.0936     H
C       0.7951   0.4018   0.1476     C
C       0.7964  0.07713   0.8686     C
C      0.79903  0.53564  0.55369     C
C          0.8  0.41584  0.30905     C
H        0.802     0.42   0.3632     H
C      0.80295  0.71713  0.80272     C
H       0.8086   0.0931   0.8211     H
H       0.8225   0.8815   0.3515     H
C       0.8243  0.72401  0.72774     C
H       0.8245   0.5659   0.6673     H
O      0.83567  0.19189  0.74491     O
O      0.83985  0.89016   0.1287     O
C       0.8405  0.04287   0.0035     C
C        0.848  0.88619    0.203     C
H       0.8482   0.7237   0.9191     H
Mn     0.84999  0.11581  0.55512    Mn
C       0.8577  0.06993  0.93312     C
C      0.86199  0.72817  0.86908     C
C       0.8668  0.41882   0.1956     C
C       0.8696  0.42646   0.2762     C
H       0.8821   0.0363   0.0456     H
O      0.89058  0.22474  0.14765     O
H       0.8954   0.5752   0.3926     H
O      0.89838  0.47131  0.47979     O
S      0.90031  0.51886  0.54224     S
C       0.9025  0.74024  0.71922     C
H       0.9038   0.6327   0.0106     H
H       0.9039   0.5192   0.0254     H
Mn      0.9113  0.85701  0.05124    Mn
O      0.91157  0.87213  0.24824     O
O      0.91406  0.26704  0.28545     O
H       0.9166   0.7439   0.6692     H
H       0.9177   0.4386   0.3079     H
C       0.9221  0.60611  0.42745     C
O      0.92281    0.755   0.0532     O
C       0.9248  0.54598   0.0676     C
C       0.9248  0.61395   0.0589     C
O      0.92533  0.07756  0.67897     O
C      0.93378  0.59481  0.50816     C
O      0.93616  0.03553  0.56259     O
O      0.93739  0.18789  0.53146     O
H       0.9377   0.1672   0.3737     H
S      0.93907  0.22651  0.22467     S
C       0.9403  0.74551   0.8613     C
C       0.9423  0.09244   0.9288     C
H       0.9423    0.673   0.3462     H
O        0.945  0.40065  0.07738     O
O      0.94559  0.50506   0.6191     O
C       0.9509  0.66433      0.4     C
C      0.95208  0.14497  0.26165     C
C       0.9529   0.0344   0.6368     C
C       0.9531  0.13402   0.3418     C
S       0.9557  0.43167  0.15342     S
C      0.95602   0.6542   0.1219     C
C       0.9562  0.51831   0.1396     C
C       0.9578  0.72802  0.11575     C
C      0.96049   0.7511  0.78588     C
O       0.9623  0.10645  0.86341     O
Mn     0.96372  0.16207  0.75055    Mn
H       0.9638   0.1015   0.1576     H
C       0.9691  0.09451   0.2116     C
H       0.9702   0.2718   0.4326     H
C       0.9728  0.22874   0.5808     C
C       0.9736  0.64026   0.5611     C
O      0.97523  0.58491  0.78803     O
H       0.9775   0.0646   0.4264     H
C       0.9775    0.073   0.3732     C
H       0.9789   0.7533   0.9056     H
O      0.98047  0.22481  0.65418     O
H       0.9805   0.6322    0.615     H
C       0.9872  0.62526  0.19411     C
C       0.9874  0.55792   0.2038     C
H       0.9917    0.348   0.7636     H
O      0.99172  0.09718  0.99233     O
H       0.9921   0.4609   0.7478     H
C      0.99236  0.70996   0.4516     C
C        0.994  0.03401   0.2437     C
O       0.9941  0.75864  0.17317     O
H       0.9946   0.0002   0.7888     H
C       0.9972  0.30242  0.46754     C
C       0.9981  0.97583  0.67502     C
