data_I
_chemical_name_common  '/home/zhangsd/repos/MofS-CGCNN/ML/data/TSD/clean_cifs/PUMNOB_clean'
_cell_length_a  9.24580
_cell_length_b 14.11100
_cell_length_c 16.49370
_cell_angle_alpha 90.00000
_cell_angle_beta  92.91200
_cell_angle_gamma 90.00000
_space_group_name_H-M_alt      'P 1'


loop_
_space_group_symop_operation_xyz
  'x, y, z' 

loop_
_atom_site_label
_atom_site_fract_x
_atom_site_fract_y
_atom_site_fract_z
_atom_site_type_symbol
Hg     0.01622  0.70461  0.58131    Hg
Mn     0.02063  0.65175  0.25395    Mn
S      0.02427  0.72678  0.73227     S
N       0.0468   0.2501   0.6484     N
C       0.0535   0.2091    0.589     C
S      0.06166  0.14894  0.50341     S
N        0.077   0.2549    0.841     N
N       0.1008   0.5541   0.3511     N
C       0.1322   0.4956   0.3955     C
C       0.1437   0.2141   0.8899     C
C       0.1476   0.2428     0.26     C
S      0.18161  0.41171   0.4609     S
N       0.2362   0.7202   0.2478     N
S      0.23643  0.15527  0.96158     S
S      0.26357  0.65527  0.53842     S
N       0.2638   0.2202   0.2522     N
S      0.31839  0.91171   0.0391     S
C       0.3524   0.7428     0.24     C
C       0.3563   0.7141   0.6101     C
C       0.3678   0.9956   0.1045     C
N       0.3992   0.0541   0.1489     N
N        0.423   0.7549    0.659     N
S      0.43834  0.64894  0.99659     S
C       0.4465   0.7091    0.911     C
N       0.4532   0.7501   0.8516     N
S      0.47573  0.22678  0.76773     S
Mn     0.47937  0.15175  0.24605    Mn
Hg     0.48378  0.20461  0.91869    Hg
Hg     0.51622  0.79539  0.08131    Hg
Mn     0.52063  0.84825  0.75395    Mn
S      0.52427  0.77322  0.23227     S
N       0.5468   0.2499   0.1484     N
C       0.5535   0.2909    0.089     C
S      0.56166  0.35106  0.00341     S
N        0.577   0.2451    0.341     N
N       0.6008   0.9459   0.8511     N
C       0.6322   0.0044   0.8955     C
C       0.6437   0.2859   0.3899     C
C       0.6476   0.2572     0.76     C
S      0.68161  0.08829   0.9609     S
N       0.7362   0.7798   0.7478     N
S      0.73643  0.34473  0.46158     S
S      0.76357  0.84473  0.03842     S
N       0.7638   0.2798   0.7522     N
S      0.81839  0.58829   0.5391     S
C       0.8524   0.7572     0.74     C
C       0.8563   0.7859   0.1101     C
C       0.8678   0.5044   0.6045     C
N       0.8992   0.4459   0.6489     N
N        0.923   0.7451    0.159     N
S      0.93834  0.85106  0.49659     S
C       0.9465   0.7909    0.411     C
N       0.9532   0.7499   0.3516     N
S      0.97573  0.27322  0.26773     S
Mn     0.97937  0.34825  0.74605    Mn
Hg     0.98378  0.29539  0.41869    Hg
