data_I
_chemical_name_common  '/home/zhangsd/repos/MofS-CGCNN/ML/data/TSD/clean_cifs/PUQHEP_clean'
_cell_length_a  9.83850
_cell_length_b 11.06290
_cell_length_c 13.53980
_cell_angle_alpha 66.61000
_cell_angle_beta  85.89800
_cell_angle_gamma 69.71700
_space_group_name_H-M_alt      'P 1'


loop_
_space_group_symop_operation_xyz
  'x, y, z' 

loop_
_atom_site_label
_atom_site_fract_x
_atom_site_fract_y
_atom_site_fract_z
_atom_site_type_symbol
C       0.0024   0.8576   0.4171     C
N       0.0134   0.0244   0.6694     N
O       0.0225   0.9206   0.1096     O
H       0.0421    0.828   0.1293     H
H       0.0652   0.2446    0.441     H
H       0.0809   0.7759   0.4206     H
C       0.0837   0.1561   0.4997     C
Co     0.10743  0.97677  0.20252    Co
O       0.1097   0.6453   0.1182     O
H       0.1215   0.4087   0.1046     H
C       0.1222   0.9079   0.6743     C
O       0.1358   0.1596   0.1467     O
H       0.1359   0.8216   0.7345     H
C       0.1546   0.6643   0.0262     C
O        0.159   0.7797   0.9571     O
Co     0.17053  0.94482  0.98566    Co
C       0.1783   0.4192    0.044     C
C       0.1887   0.1847   0.0558     C
C       0.1942   0.0447   0.5007     C
H       0.2077   0.1707   0.7688     H
O       0.2099   0.1086   0.0035     O
C       0.2125   0.5422   0.9923     C
C       0.2176   0.9133   0.5892     C
C       0.2285   0.3133   0.0054     C
H       0.2492   0.1579   0.3444     H
C       0.2848   0.0707   0.4047     C
C       0.2895   0.0913   0.7725     C
H       0.2947   0.8312   0.5917     H
O        0.295     0.82   0.2593     O
C       0.3038   0.5517   0.9083     C
N       0.3113   0.9704   0.8585     N
C       0.3181   0.3236    0.921     C
H       0.3299   0.6331   0.8747     H
O       0.3453   0.7943   0.1023     O
H       0.3526   0.2501    0.896     H
C       0.3571   0.4426   0.8731     C
H       0.3581   0.1949   0.6305     H
C       0.3692    0.761   0.1998     C
C        0.379   0.1064   0.6896     C
H       0.3956   0.2118    0.216     H
C       0.4086     0.98   0.4004     C
H       0.4182   0.3329   0.7343     H
C        0.428   0.8603   0.8607     C
H       0.4419   0.8916   0.4599     H
O       0.4459   0.4656   0.7888     O
H       0.4463    0.773   0.9206     H
C       0.4769   0.1314   0.2208     C
H       0.4784   0.5854   0.3345     H
C       0.4976   0.3662   0.7397     C
C       0.4989   0.9947    0.691     C
C       0.5011   0.0053    0.309     C
C       0.5024   0.6338   0.2603     C
H       0.5216   0.4146   0.6655     H
C       0.5231   0.8686   0.7792     C
H       0.5537    0.227   0.0794     H
O       0.5541   0.5344   0.2112     O
H       0.5581   0.1084   0.5401     H
C        0.572   0.1397   0.1393     C
H       0.5818   0.6671   0.2657     H
C       0.5914     0.02   0.5996     C
H       0.6044   0.7882    0.784     H
C        0.621   0.8936   0.3104     C
C       0.6308    0.239   0.8002     C
H       0.6419   0.8051   0.3695     H
C       0.6429   0.5574   0.1269     C
H       0.6474   0.7499    0.104     H
O       0.6547   0.2057   0.8977     O
H       0.6701   0.3669   0.1253     H
C       0.6819   0.6764    0.079     C
N       0.6887   0.0296   0.1415     N
C       0.6962   0.4483   0.0917     C
O        0.705     0.18   0.7407     O
H       0.7053   0.1688   0.4083     H
C       0.7105   0.9087   0.2275     C
C       0.7152   0.9293   0.5953     C
H       0.7508   0.8421   0.6556     H
C       0.7715   0.6867   0.9946     C
C       0.7824   0.0867   0.4108     C
C       0.7875   0.4578   0.0077     C
O       0.7901   0.8914   0.9965     O
H       0.7923   0.8293   0.2312     H
C       0.8058   0.9553   0.4993     C
C       0.8113   0.8153   0.9442     C
C       0.8217   0.5808    0.956     C
Co     0.82947  0.05518  0.01434    Co
O        0.841   0.2203   0.0429     O
C       0.8454   0.3357   0.9738     C
H       0.8641   0.1784   0.2655     H
O       0.8642   0.8404   0.8533     O
C       0.8778   0.0921   0.3257     C
H       0.8785   0.5913   0.8954     H
O       0.8903   0.3547   0.8818     O
Co     0.89257  0.02323  0.79748    Co
C       0.9163   0.8439   0.5003     C
H       0.9191   0.2241   0.5794     H
H       0.9348   0.7554    0.559     H
H       0.9579    0.172   0.8707     H
O       0.9775   0.0794   0.8904     O
N       0.9866   0.9756   0.3306     N
C       0.9976   0.1424   0.5829     C
