data_I
_chemical_name_common  '/home/zhangsd/repos/MofS-CGCNN/ML/data/TSD/clean_cifs/PUQYAC_clean'
_cell_length_a  7.73000
_cell_length_b 21.26000
_cell_length_c 21.26000
_cell_angle_alpha 120.00000
_cell_angle_beta  90.00000
_cell_angle_gamma 90.00000
_space_group_name_H-M_alt      'P 1'


loop_
_space_group_symop_operation_xyz
  'x, y, z' 

loop_
_atom_site_label
_atom_site_fract_x
_atom_site_fract_y
_atom_site_fract_z
_atom_site_type_symbol
C          0.0   0.2765   0.2765     C
Zn         0.0  0.29909  0.70092    Zn
Zn         0.0  0.70091  0.29908    Zn
C          0.0   0.7235   0.7235     C
C       0.0002   0.1358   0.4088     C
C       0.0002   0.8642   0.5912     C
C       0.0038   0.2189   0.5413     C
C       0.0038   0.7811   0.4587     C
C      0.00973   0.4115   0.3252     C
C      0.00973   0.5885   0.6748     C
H       0.0108   0.3015   0.0648     H
H       0.0108   0.6985   0.9352     H
H      0.02583   0.4807   0.6378     H
H      0.02583   0.5193   0.3622     H
F      0.04137   0.1558   0.2534     F
F      0.04137   0.8442   0.7466     F
C       0.0719   0.3449   0.0831     C
C       0.0719   0.6551   0.9169     C
O       0.0742   0.3994    0.761     O
O       0.0742   0.6006    0.239     O
F      0.08237   0.2305   0.9287     F
F      0.08237   0.7695   0.0713     F
C       0.0826   0.4743   0.1635     C
C       0.0826   0.5257   0.8365     C
C      0.08543   0.4757    0.337     C
C      0.08543   0.5243    0.663     C
C      0.09253   0.3456   0.2887     C
C      0.09253   0.6544   0.7113     C
H      0.10137   0.3427   0.4132     H
H      0.10137   0.6573   0.5868     H
H       0.1096   0.1534   0.4076     H
H       0.1096   0.8466   0.5924     H
C      0.12577   0.2126    0.255     C
C      0.12577   0.7874    0.745     C
F      0.13577   0.1864   0.9964     F
F      0.13577   0.8136   0.0036     F
O       0.1462   0.2421   0.5356     O
O       0.1462   0.7579   0.4644     O
O      0.18713   0.2421   0.7065     O
O      0.18713   0.7579   0.2935     O
F      0.19757   0.1864     0.19     F
F      0.19757   0.8136     0.81     F
C      0.20757   0.2126   0.9576     C
C      0.20757   0.7874   0.0424     C
H      0.22373   0.1534   0.7458     H
H      0.22373   0.8466   0.2542     H
H      0.23197   0.3427   0.9295     H
H      0.23197   0.6573   0.0705     H
C       0.2408   0.3456   0.0569     C
C       0.2408   0.6544   0.9431     C
C       0.2479   0.4757   0.1387     C
C       0.2479   0.5243   0.8613     C
C      0.25073   0.4743   0.3108     C
C      0.25073   0.5257   0.6892     C
F      0.25097   0.2305   0.3018     F
F      0.25097   0.7695   0.6982     F
O      0.25913   0.3994   0.6384     O
O      0.25913   0.6006   0.3616     O
C      0.26143   0.3449   0.2618     C
C      0.26143   0.6551   0.7382     C
F      0.29197   0.1558   0.9024     F
F      0.29197   0.8442   0.0976     F
H       0.3075   0.4807   0.8429     H
H       0.3075   0.5193   0.1571     H
H      0.32253   0.3015   0.2367     H
H      0.32253   0.6985   0.7633     H
C       0.3236   0.4115   0.0863     C
C       0.3236   0.5885   0.9137     C
C      0.32953   0.2189   0.6776     C
C      0.32953   0.7811   0.3224     C
C      0.33313   0.1358    0.727     C
C      0.33313   0.8642    0.273     C
C      0.33333   0.2765      0.0     C
Zn     0.33333  0.29909  0.59818    Zn
Zn     0.33333  0.70092  0.40183    Zn
C      0.33333   0.7235     -0.0     C
C      0.33353   0.4088    0.273     C
C      0.33353   0.5912    0.727     C
C      0.33713   0.4587   0.6776     C
C      0.33713   0.5413   0.3224     C
C      0.34307   0.3252   0.9137     C
C      0.34307   0.6748   0.0863     C
H      0.34413   0.0648   0.7633     H
H      0.34413   0.9352   0.2367     H
H      0.35917   0.3622   0.8429     H
H      0.35917   0.6378   0.1571     H
F       0.3747   0.2534   0.0976     F
F       0.3747   0.7466   0.9024     F
C      0.40523   0.0831   0.7382     C
C      0.40523   0.9169   0.2618     C
O      0.40753    0.239   0.6384     O
O      0.40753    0.761   0.3616     O
F       0.4157   0.0713   0.3018     F
F       0.4157   0.9287   0.6982     F
C      0.41593   0.1635   0.6892     C
C      0.41593   0.8365   0.3108     C
C      0.41877    0.337   0.8613     C
C      0.41877    0.663   0.1387     C
C      0.42587   0.2887   0.9431     C
C      0.42587   0.7113   0.0569     C
H       0.4347   0.4132   0.0705     H
H       0.4347   0.5868   0.9295     H
H      0.44293   0.4076   0.2542     H
H      0.44293   0.5924   0.7458     H
C       0.4591    0.255   0.0424     C
C       0.4591    0.745   0.9576     C
F       0.4691   0.0036     0.19     F
F       0.4691   0.9964     0.81     F
O      0.47953   0.4644   0.7065     O
O      0.47953   0.5356   0.2935     O
O      0.52047   0.2935   0.5356     O
O      0.52047   0.7065   0.4644     O
F       0.5309     0.19   0.0036     F
F       0.5309     0.81   0.9964     F
C       0.5409   0.0424    0.255     C
C       0.5409   0.9576    0.745     C
H      0.55707   0.2542   0.4076     H
H      0.55707   0.7458   0.5924     H
H       0.5653   0.0705   0.4132     H
H       0.5653   0.9295   0.5868     H
C      0.57413   0.0569   0.7113     C
C      0.57413   0.9431   0.2887     C
C      0.58123   0.1387    0.663     C
C      0.58123   0.8613    0.337     C
C      0.58407   0.3108   0.8365     C
C      0.58407   0.6892   0.1635     C
F       0.5843   0.3018   0.0713     F
F       0.5843   0.6982   0.9287     F
O      0.59247   0.3616    0.761     O
O      0.59247   0.6384    0.239     O
C      0.59477   0.2618   0.9169     C
C      0.59477   0.7382   0.0831     C
F       0.6253   0.0976   0.2534     F
F       0.6253   0.9024   0.7466     F
H      0.64083   0.1571   0.6378     H
H      0.64083   0.8429   0.3622     H
H      0.65587   0.2367   0.9352     H
H      0.65587   0.7633   0.0648     H
C      0.65693   0.0863   0.6748     C
C      0.65693   0.9137   0.3252     C
C      0.66287   0.3224   0.5413     C
C      0.66287   0.6776   0.4587     C
C      0.66647    0.273   0.4088     C
C      0.66647    0.727   0.5912     C
C      0.66667      0.0   0.2765     C
C      0.66667      0.0   0.7235     C
Zn     0.66667  0.40183  0.70091    Zn
Zn     0.66667  0.59817  0.29908    Zn
C      0.66687    0.273   0.8642     C
C      0.66687    0.727   0.1358     C
C      0.67047   0.3224   0.7811     C
C      0.67047   0.6776   0.2189     C
C       0.6764   0.0863   0.4115     C
C       0.6764   0.9137   0.5885     C
H      0.67747   0.2367   0.3015     H
H      0.67747   0.7633   0.6985     H
H       0.6925   0.1571   0.5193     H
H       0.6925   0.8429   0.4807     H
F      0.70803   0.0976   0.8442     F
F      0.70803   0.9024   0.1558     F
C      0.73857   0.2618   0.3449     C
C      0.73857   0.7382   0.6551     C
O      0.74087   0.3616   0.6006     O
O      0.74087   0.6384   0.3994     O
F      0.74903   0.3018   0.2305     F
F      0.74903   0.6982   0.7695     F
C      0.74927   0.3108   0.4743     C
C      0.74927   0.6892   0.5257     C
C       0.7521   0.1387   0.4757     C
C       0.7521   0.8613   0.5243     C
C       0.7592   0.0569   0.3456     C
C       0.7592   0.9431   0.6544     C
H      0.76803   0.0705   0.6573     H
H      0.76803   0.9295   0.3427     H
H      0.77627   0.2542   0.8466     H
H      0.77627   0.7458   0.1534     H
C      0.79243   0.0424   0.7874     C
C      0.79243   0.9576   0.2126     C
F      0.80243     0.19   0.1864     F
F      0.80243     0.81   0.8136     F
O      0.81287   0.2935   0.7579     O
O      0.81287   0.7065   0.2421     O
O       0.8538   0.4644   0.7579     O
O       0.8538   0.5356   0.2421     O
F      0.86423   0.0036   0.8136     F
F      0.86423   0.9964   0.1864     F
C      0.87423    0.255   0.2126     C
C      0.87423    0.745   0.7874     C
H       0.8904   0.4076   0.1534     H
H       0.8904   0.5924   0.8466     H
H      0.89863   0.4132   0.3427     H
H      0.89863   0.5868   0.6573     H
C      0.90747   0.2887   0.3456     C
C      0.90747   0.7113   0.6544     C
C      0.91457    0.337   0.4757     C
C      0.91457    0.663   0.5243     C
C       0.9174   0.1635   0.4743     C
C       0.9174   0.8365   0.5257     C
F      0.91763   0.0713   0.7695     F
F      0.91763   0.9287   0.2305     F
O       0.9258    0.239   0.6006     O
O       0.9258    0.761   0.3994     O
C       0.9281   0.0831   0.3449     C
C       0.9281   0.9169   0.6551     C
F      0.95863   0.2534   0.1558     F
F      0.95863   0.7466   0.8442     F
H      0.97417   0.3622   0.5193     H
H      0.97417   0.6378   0.4807     H
H       0.9892   0.0648   0.3015     H
H       0.9892   0.9352   0.6985     H
C      0.99027   0.3252   0.4115     C
C      0.99027   0.6748   0.5885     C
C       0.9962   0.4587   0.7811     C
C       0.9962   0.5413   0.2189     C
C       0.9998   0.4088   0.1358     C
C       0.9998   0.5912   0.8642     C
