data_I
_chemical_name_common  '/home/zhangsd/repos/MofS-CGCNN/ML/data/TSD/clean_cifs/PUYHOI_clean'
_cell_length_a 14.38130
_cell_length_b 14.38130
_cell_length_c 15.76990
_cell_angle_alpha 90.00000
_cell_angle_beta  90.00000
_cell_angle_gamma 120.00000
_space_group_name_H-M_alt      'P 1'


loop_
_space_group_symop_operation_xyz
  'x, y, z' 

loop_
_atom_site_label
_atom_site_fract_x
_atom_site_fract_y
_atom_site_fract_z
_atom_site_type_symbol
Ni         0.0      0.5      0.0    Ni
Ni         0.0      0.5      0.5    Ni
O       0.0542   0.4365   0.4111     O
O       0.0542   0.4365   0.5889     O
O       0.0542   0.6177   0.0889     O
O       0.0542   0.6177   0.9111     O
H       0.0845   0.3578   0.2771     H
H       0.0845   0.3578   0.7229     H
H       0.0845   0.7267   0.2229     H
H       0.0845   0.7267   0.7771     H
C       0.1315   0.4802    0.362     C
C       0.1315   0.4802    0.638     C
C       0.1315   0.6513    0.138     C
C       0.1315   0.6513    0.862     C
C        0.151   0.4074   0.3082     C
C        0.151   0.4074   0.6918     C
C        0.151   0.7436   0.1918     C
C        0.151   0.7436   0.8082     C
H       0.1713    0.364   0.3442     H
H       0.1713    0.364   0.6558     H
H       0.1713   0.8073   0.1558     H
H       0.1713   0.8073   0.8442     H
H       0.1927    0.364   0.1558     H
H       0.1927    0.364   0.8442     H
H       0.1927   0.8287   0.3442     H
H       0.1927   0.8287   0.6558     H
O       0.1946   0.5804   0.3541     O
O       0.1946   0.5804   0.6459     O
O       0.1946   0.6142   0.1459     O
O       0.1946   0.6142   0.8541     O
O       0.2341   0.4682     0.25     O
O       0.2341   0.4682     0.75     O
O       0.2341   0.7659     0.25     O
O       0.2341   0.7659     0.75     O
C       0.2564   0.4074   0.1918     C
C       0.2564   0.4074   0.8082     C
C       0.2564    0.849   0.3082     C
C       0.2564    0.849   0.6918     C
H       0.2733   0.3578   0.2229     H
H       0.2733   0.3578   0.7771     H
H       0.2733   0.9155   0.2771     H
H       0.2733   0.9155   0.7229     H
Gd     0.33333  0.66667     0.25    Gd
Gd     0.33333  0.66667     0.75    Gd
C       0.3487   0.4802    0.138     C
C       0.3487   0.4802    0.862     C
C       0.3487   0.8685    0.362     C
C       0.3487   0.8685    0.638     C
H       0.3578   0.0845   0.2229     H
H       0.3578   0.0845   0.7771     H
H       0.3578   0.2733   0.2771     H
H       0.3578   0.2733   0.7229     H
H        0.364   0.1713   0.1558     H
H        0.364   0.1713   0.8442     H
H        0.364   0.1927   0.3442     H
H        0.364   0.1927   0.6558     H
O       0.3823   0.4365   0.0889     O
O       0.3823   0.4365   0.9111     O
O       0.3823   0.9458   0.4111     O
O       0.3823   0.9458   0.5889     O
O       0.3858   0.5804   0.1459     O
O       0.3858   0.5804   0.8541     O
O       0.3858   0.8054   0.3541     O
O       0.3858   0.8054   0.6459     O
C       0.4074    0.151   0.1918     C
C       0.4074    0.151   0.8082     C
C       0.4074   0.2564   0.3082     C
C       0.4074   0.2564   0.6918     C
O       0.4196   0.6142   0.3541     O
O       0.4196   0.6142   0.6459     O
O       0.4196   0.8054   0.1459     O
O       0.4196   0.8054   0.8541     O
O       0.4365   0.0542   0.0889     O
O       0.4365   0.0542   0.9111     O
O       0.4365   0.3823   0.4111     O
O       0.4365   0.3823   0.5889     O
O       0.4682   0.2341     0.25     O
O       0.4682   0.2341     0.75     O
C       0.4802   0.1315    0.138     C
C       0.4802   0.1315    0.862     C
C       0.4802   0.3487    0.362     C
C       0.4802   0.3487    0.638     C
Ni         0.5      0.0      0.0    Ni
Ni         0.5      0.0      0.5    Ni
Ni         0.5      0.5      0.0    Ni
Ni         0.5      0.5      0.5    Ni
C       0.5198   0.6513    0.362     C
C       0.5198   0.6513    0.638     C
C       0.5198   0.8685    0.138     C
C       0.5198   0.8685    0.862     C
O       0.5318   0.7659     0.25     O
O       0.5318   0.7659     0.75     O
O       0.5635   0.6177   0.4111     O
O       0.5635   0.6177   0.5889     O
O       0.5635   0.9458   0.0889     O
O       0.5635   0.9458   0.9111     O
O       0.5804   0.1946   0.1459     O
O       0.5804   0.1946   0.8541     O
O       0.5804   0.3858   0.3541     O
O       0.5804   0.3858   0.6459     O
C       0.5926   0.7436   0.3082     C
C       0.5926   0.7436   0.6918     C
C       0.5926    0.849   0.1918     C
C       0.5926    0.849   0.8082     C
O       0.6142   0.1946   0.3541     O
O       0.6142   0.1946   0.6459     O
O       0.6142   0.4196   0.1459     O
O       0.6142   0.4196   0.8541     O
O       0.6177   0.0542   0.4111     O
O       0.6177   0.0542   0.5889     O
O       0.6177   0.5635   0.0889     O
O       0.6177   0.5635   0.9111     O
H        0.636   0.8073   0.3442     H
H        0.636   0.8073   0.6558     H
H        0.636   0.8287   0.1558     H
H        0.636   0.8287   0.8442     H
H       0.6422   0.7267   0.2771     H
H       0.6422   0.7267   0.7229     H
H       0.6422   0.9155   0.2229     H
H       0.6422   0.9155   0.7771     H
C       0.6513   0.1315    0.362     C
C       0.6513   0.1315    0.638     C
C       0.6513   0.5198    0.138     C
C       0.6513   0.5198    0.862     C
Gd     0.66667  0.33333     0.25    Gd
Gd     0.66667  0.33333     0.75    Gd
H       0.7267   0.0845   0.2771     H
H       0.7267   0.0845   0.7229     H
H       0.7267   0.6422   0.2229     H
H       0.7267   0.6422   0.7771     H
C       0.7436    0.151   0.3082     C
C       0.7436    0.151   0.6918     C
C       0.7436   0.5926   0.1918     C
C       0.7436   0.5926   0.8082     C
O       0.7659   0.2341     0.25     O
O       0.7659   0.2341     0.75     O
O       0.7659   0.5318     0.25     O
O       0.7659   0.5318     0.75     O
O       0.8054   0.3858   0.1459     O
O       0.8054   0.3858   0.8541     O
O       0.8054   0.4196   0.3541     O
O       0.8054   0.4196   0.6459     O
H       0.8073   0.1713   0.3442     H
H       0.8073   0.1713   0.6558     H
H       0.8073    0.636   0.1558     H
H       0.8073    0.636   0.8442     H
H       0.8287   0.1927   0.1558     H
H       0.8287   0.1927   0.8442     H
H       0.8287    0.636   0.3442     H
H       0.8287    0.636   0.6558     H
C        0.849   0.2564   0.1918     C
C        0.849   0.2564   0.8082     C
C        0.849   0.5926   0.3082     C
C        0.849   0.5926   0.6918     C
C       0.8685   0.3487    0.138     C
C       0.8685   0.3487    0.862     C
C       0.8685   0.5198    0.362     C
C       0.8685   0.5198    0.638     C
H       0.9155   0.2733   0.2229     H
H       0.9155   0.2733   0.7771     H
H       0.9155   0.6422   0.2771     H
H       0.9155   0.6422   0.7229     H
O       0.9458   0.3823   0.0889     O
O       0.9458   0.3823   0.9111     O
O       0.9458   0.5635   0.4111     O
O       0.9458   0.5635   0.5889     O
