data_I
_chemical_name_common  '/home/zhangsd/repos/MofS-CGCNN/ML/data/TSD/clean_cifs/QADVUN_clean'
_cell_length_a  5.09860
_cell_length_b 10.49430
_cell_length_c 12.44570
_cell_angle_alpha 87.61400
_cell_angle_beta  87.25800
_cell_angle_gamma 89.99400
_space_group_name_H-M_alt      'P 1'


loop_
_space_group_symop_operation_xyz
  'x, y, z' 

loop_
_atom_site_label
_atom_site_fract_x
_atom_site_fract_y
_atom_site_fract_z
_atom_site_type_symbol
O       0.0495   0.8725   0.1264     O
O        0.146   0.6939   0.9456     O
O       0.1606    0.475   0.8775     O
O       0.1691   0.2016   0.5694     O
O       0.1709    0.364   0.4187     O
Zn     0.19479   0.6059  0.60766    Zn
Zn     0.21169  0.35799  0.99839    Zn
H       0.2351   0.1803   0.6262     H
P       0.2482  0.11324  0.86211     P
O       0.2493   0.6646   0.7502     O
O       0.2517   0.4247   0.6092     O
Zn     0.28029  0.85466  0.00245    Zn
P       0.2881  0.60662   0.8618     P
P       0.2978  0.32839  0.52299     P
O       0.3376   0.9769   0.8861     O
O       0.3536   0.1575   0.7526     O
O       0.3698   0.1969   0.9486     O
O       0.4107   0.6948   0.4973     O
O       0.4215   0.3996   0.1162     O
O       0.5785   0.6004   0.8838     O
O       0.5893   0.3052   0.5027     O
O       0.6302   0.8031   0.0514     O
O       0.6464   0.8425   0.2474     O
O       0.6624   0.0231   0.1139     O
P       0.7022  0.67161  0.47701     P
P       0.7119  0.39338   0.1382     P
Zn     0.71971  0.14534  0.99755    Zn
O       0.7483   0.5753   0.3908     O
O       0.7507   0.3354   0.2498     O
P       0.7518  0.88676  0.13789     P
H       0.7649   0.8197   0.3738     H
Zn     0.78831  0.64201  0.00161    Zn
Zn     0.80521   0.3941  0.39234    Zn
O       0.8291    0.636   0.5813     O
O       0.8309   0.7984   0.4306     O
O       0.8394    0.525   0.1225     O
O        0.854   0.3061   0.0544     O
O       0.9505   0.1275   0.8736     O
