data_I
_chemical_name_common  '/home/zhangsd/repos/MofS-CGCNN/ML/data/TSD/clean_cifs/QADXAX_clean'
_cell_length_a  9.72160
_cell_length_b 10.42730
_cell_length_c 16.40460
_cell_angle_alpha 90.00000
_cell_angle_beta  112.67800
_cell_angle_gamma 90.00000
_space_group_name_H-M_alt      'P 1'


loop_
_space_group_symop_operation_xyz
  'x, y, z' 

loop_
_atom_site_label
_atom_site_fract_x
_atom_site_fract_y
_atom_site_fract_z
_atom_site_type_symbol
O       0.0418   0.7462  0.79009     O
O       0.0418   0.7538  0.29009     O
H       0.0461   0.1609   0.8858     H
H       0.0461   0.3391   0.3858     H
O       0.0606   0.0497   0.2924     O
O       0.0606   0.4503   0.7924     O
O       0.0632   0.0846   0.5983     O
O       0.0632   0.4154   0.0983     O
C       0.0689    0.079   0.1305     C
C       0.0689    0.421   0.6305     C
C       0.0718    0.031    0.533     C
C       0.0718    0.469    0.033     C
P      0.07448  0.15183  0.23178     P
P      0.07448  0.34817  0.73178     P
C       0.0792    0.524    0.424     C
C       0.0792    0.976    0.924     C
H       0.0949    0.143    0.096     H
H       0.0949    0.357    0.596     H
C       0.1158   0.1042   0.9233     C
C       0.1158   0.3958   0.4233     C
H       0.1432   0.0115   0.1449     H
H       0.1432   0.4885   0.6449     H
O       0.1527   0.7275   0.4822     O
O       0.1527   0.7725   0.9822     O
Ho     0.17796   0.6036  0.89293    Ho
Ho     0.17796   0.8964  0.39293    Ho
N       0.1856   0.6044   0.4786     N
N       0.1856   0.8956   0.9786     N
O        0.186   0.0209   0.5158     O
O        0.186   0.4791   0.0158     O
O       0.2348   0.2138   0.2719     O
O       0.2348   0.2862   0.7719     O
C       0.2539   0.1483   0.9774     C
C       0.2539   0.3517   0.4774     C
H       0.2772   0.2346   0.9767     H
H       0.2772   0.2654   0.4767     H
H       0.2868   0.1737    0.316     H
H       0.2868   0.3263    0.816     H
C       0.3212   0.5615   0.5324     C
C       0.3212   0.9385   0.0324     C
C        0.357   0.0658   0.0321     C
C        0.357   0.4342   0.5321     C
O       0.3584   0.0668   0.4099     O
O       0.3584   0.4332   0.9099     O
H       0.3908   0.6184   0.5697     H
H       0.3908   0.8816   0.0697     H
O       0.4217   0.6489   0.0033     O
O       0.4217   0.8511   0.5033     O
H       0.4506   0.0955   0.0688     H
H       0.4506   0.4045   0.5688     H
C       0.4828   0.0625   0.4734     C
C       0.4828   0.4375   0.9734     C
C       0.5172   0.5625   0.0266     C
C       0.5172   0.9375   0.5266     C
H       0.5494   0.5955   0.4312     H
H       0.5494   0.9045   0.9312     H
O       0.5783   0.1489   0.4967     O
O       0.5783   0.3511   0.9967     O
H       0.6092   0.1184   0.9303     H
H       0.6092   0.3816   0.4303     H
O       0.6416   0.5668   0.0901     O
O       0.6416   0.9332   0.5901     O
C        0.643   0.5658   0.4679     C
C        0.643   0.9342   0.9679     C
C       0.6788   0.0615   0.9676     C
C       0.6788   0.4385   0.4676     C
H       0.7132   0.6737    0.184     H
H       0.7132   0.8263    0.684     H
H       0.7228   0.7346   0.5233     H
H       0.7228   0.7654   0.0233     H
C       0.7461   0.6483   0.5226     C
C       0.7461   0.8517   0.0226     C
O       0.7652   0.7138   0.2281     O
O       0.7652   0.7862   0.7281     O
O        0.814   0.5209   0.9842     O
O        0.814   0.9791   0.4842     O
N       0.8144   0.1044   0.0214     N
N       0.8144   0.3956   0.5214     N
Ho     0.82204   0.1036  0.60707    Ho
Ho     0.82204   0.3964  0.10707    Ho
O       0.8473   0.2275   0.0178     O
O       0.8473   0.2725   0.5178     O
H       0.8568   0.5115   0.3551     H
H       0.8568   0.9885   0.8551     H
C       0.8842   0.6042   0.5767     C
C       0.8842   0.8958   0.0767     C
H       0.9051    0.643    0.404     H
H       0.9051    0.857    0.904     H
C       0.9208    0.024    0.076     C
C       0.9208    0.476    0.576     C
P      0.92552  0.65183  0.26822     P
P      0.92552  0.84817  0.76822     P
C       0.9282    0.531    0.967     C
C       0.9282    0.969    0.467     C
C       0.9311    0.579   0.3695     C
C       0.9311    0.921   0.8695     C
O       0.9368   0.5846   0.9017     O
O       0.9368   0.9154   0.4017     O
O       0.9394   0.5497   0.2076     O
O       0.9394   0.9503   0.7076     O
H       0.9539   0.6609   0.6142     H
H       0.9539   0.8391   0.1142     H
O       0.9582   0.2462  0.70991     O
O       0.9582   0.2538  0.20991     O
