data_I
_chemical_name_common  '/home/zhangsd/repos/MofS-CGCNN/ML/data/TSD/clean_cifs/QAJMUM_clean'
_cell_length_a 10.92500
_cell_length_b 10.92500
_cell_length_c 20.46100
_cell_angle_alpha 90.00000
_cell_angle_beta  90.00000
_cell_angle_gamma 90.00000
_space_group_name_H-M_alt      'P 1'


loop_
_space_group_symop_operation_xyz
  'x, y, z' 

loop_
_atom_site_label
_atom_site_fract_x
_atom_site_fract_y
_atom_site_fract_z
_atom_site_type_symbol
Gd         0.0      0.0  0.34478    Gd
Gd         0.0      0.0  0.65522    Gd
C       0.0003    0.434  0.53696     C
C       0.0003    0.566  0.46304     C
O        0.002   0.3541  0.57759     O
O        0.002   0.6459  0.42241     O
O       0.0403   0.1803   0.2822     O
O       0.0403   0.8197   0.7178     O
O       0.0561   0.3912  0.80014     O
O       0.0561   0.6088  0.19986     O
C        0.066   0.4997  0.03696     C
C        0.066   0.5003  0.96304     C
Gd     0.08861  0.34643  0.68504    Gd
Gd     0.08861  0.65357  0.31496    Gd
O       0.0996    0.247   0.1146     O
O       0.0996    0.753   0.8854     O
O       0.1088   0.4439  0.30014     O
O       0.1088   0.5561  0.69986     O
H       0.1111   0.1111   0.0504     H
H       0.1111   0.8889   0.9496     H
O       0.1459    0.498  0.07759     O
O       0.1459    0.502  0.92241     O
C       0.1467   0.1467   0.0871     C
C       0.1467   0.8533   0.9129     C
Gd     0.15357  0.41139  0.18504    Gd
Gd     0.15357  0.58861  0.81496    Gd
O       0.1545   0.1545    0.635     O
O       0.1545   0.8455    0.365     O
C       0.1547   0.1547   0.2718     C
C       0.1547   0.8453   0.7282     C
O       0.1803   0.0403   0.2822     O
O       0.1803   0.9597   0.7178     O
O       0.2254   0.2254   0.2396     O
O       0.2254   0.7746   0.7604     O
O        0.247   0.0996   0.1146     O
O        0.247   0.9004   0.8854     O
O        0.253   0.4004   0.6146     O
O        0.253   0.5996   0.3854     O
O       0.2746   0.2746   0.7396     O
O       0.2746   0.7254   0.2604     O
O       0.3197   0.4597   0.7822     O
O       0.3197   0.5403   0.2178     O
C       0.3453   0.3453   0.7718     C
C       0.3453   0.6547   0.2282     C
O       0.3455   0.3455    0.135     O
O       0.3455   0.6545    0.865     O
Gd     0.34643  0.08861  0.68504    Gd
Gd     0.34643  0.91139  0.31496    Gd
C       0.3533   0.3533   0.5871     C
C       0.3533   0.6467   0.4129     C
O       0.3541    0.002  0.57759     O
O       0.3541    0.998  0.42241     O
H       0.3889   0.3889   0.5504     H
H       0.3889   0.6111   0.4496     H
O       0.3912   0.0561  0.80014     O
O       0.3912   0.9439  0.19986     O
O       0.4004    0.253   0.6146     O
O       0.4004    0.747   0.3854     O
Gd     0.41139  0.15357  0.18504    Gd
Gd     0.41139  0.84643  0.81496    Gd
C        0.434   0.0003  0.53696     C
C        0.434   0.9997  0.46304     C
O       0.4439   0.1088  0.30014     O
O       0.4439   0.8912  0.69986     O
O       0.4597   0.3197   0.7822     O
O       0.4597   0.6803   0.2178     O
O        0.498   0.1459  0.07759     O
O        0.498   0.8541  0.92241     O
C       0.4997    0.066  0.03696     C
C       0.4997    0.934  0.96304     C
Gd         0.5      0.5  0.15522    Gd
Gd         0.5      0.5  0.84478    Gd
C       0.5003    0.066  0.96304     C
C       0.5003    0.934  0.03696     C
O        0.502   0.1459  0.92241     O
O        0.502   0.8541  0.07759     O
O       0.5403   0.3197   0.2178     O
O       0.5403   0.6803   0.7822     O
O       0.5561   0.1088  0.69986     O
O       0.5561   0.8912  0.30014     O
C        0.566   0.0003  0.46304     C
C        0.566   0.9997  0.53696     C
Gd     0.58861  0.15357  0.81496    Gd
Gd     0.58861  0.84643  0.18504    Gd
O       0.5996    0.253   0.3854     O
O       0.5996    0.747   0.6146     O
O       0.6088   0.0561  0.19986     O
O       0.6088   0.9439  0.80014     O
H       0.6111   0.3889   0.4496     H
H       0.6111   0.6111   0.5504     H
O       0.6459    0.002  0.42241     O
O       0.6459    0.998  0.57759     O
C       0.6467   0.3533   0.4129     C
C       0.6467   0.6467   0.5871     C
Gd     0.65357  0.08861  0.31496    Gd
Gd     0.65357  0.91139  0.68504    Gd
O       0.6545   0.3455    0.865     O
O       0.6545   0.6545    0.135     O
C       0.6547   0.3453   0.2282     C
C       0.6547   0.6547   0.7718     C
O       0.6803   0.4597   0.2178     O
O       0.6803   0.5403   0.7822     O
O       0.7254   0.2746   0.2604     O
O       0.7254   0.7254   0.7396     O
O        0.747   0.4004   0.3854     O
O        0.747   0.5996   0.6146     O
O        0.753   0.0996   0.8854     O
O        0.753   0.9004   0.1146     O
O       0.7746   0.2254   0.7604     O
O       0.7746   0.7746   0.2396     O
O       0.8197   0.0403   0.7178     O
O       0.8197   0.9597   0.2822     O
C       0.8453   0.1547   0.7282     C
C       0.8453   0.8453   0.2718     C
O       0.8455   0.1545    0.365     O
O       0.8455   0.8455    0.635     O
Gd     0.84643  0.41139  0.81496    Gd
Gd     0.84643  0.58861  0.18504    Gd
C       0.8533   0.1467   0.9129     C
C       0.8533   0.8533   0.0871     C
O       0.8541    0.498  0.92241     O
O       0.8541    0.502  0.07759     O
H       0.8889   0.1111   0.9496     H
H       0.8889   0.8889   0.0504     H
O       0.8912   0.4439  0.69986     O
O       0.8912   0.5561  0.30014     O
O       0.9004    0.247   0.8854     O
O       0.9004    0.753   0.1146     O
Gd     0.91139  0.34643  0.31496    Gd
Gd     0.91139  0.65357  0.68504    Gd
C        0.934   0.4997  0.96304     C
C        0.934   0.5003  0.03696     C
O       0.9439   0.3912  0.19986     O
O       0.9439   0.6088  0.80014     O
O       0.9597   0.1803   0.7178     O
O       0.9597   0.8197   0.2822     O
O        0.998   0.3541  0.42241     O
O        0.998   0.6459  0.57759     O
C       0.9997    0.434  0.46304     C
C       0.9997    0.566  0.53696     C
