data_I
_chemical_name_common  '/home/zhangsd/repos/MofS-CGCNN/ML/data/TSD/clean_cifs/QALHIX_clean'
_cell_length_a 32.96760
_cell_length_b 32.96760
_cell_length_c 26.69560
_cell_angle_alpha 90.00000
_cell_angle_beta  90.00000
_cell_angle_gamma 90.00000
_space_group_name_H-M_alt      'P 1'


loop_
_space_group_symop_operation_xyz
  'x, y, z' 

loop_
_atom_site_label
_atom_site_fract_x
_atom_site_fract_y
_atom_site_fract_z
_atom_site_type_symbol
Cd         0.0      0.0  0.16127    Cd
Cd         0.0      0.0  0.83873    Cd
C       0.0011   0.8183   0.4791     C
H        0.004   0.8415   0.4984     H
C        0.005   0.6983   0.3542     C
N       0.0069   0.3733   0.2561     N
H       0.0096   0.6099   0.2423     H
C       0.0096   0.6519    0.293     C
C       0.0103   0.2503   0.4174     C
N      0.01452   0.3286    0.323     N
Cd     0.01994  0.65089  0.64687    Cd
N      0.02006   0.2812    0.385     N
O       0.0201   0.4039   0.6748     O
O      0.02584  0.04176  0.77291     O
O      0.02605  0.04291  0.09804     O
C      0.02629   0.7731   0.4172     C
C       0.0321   0.8063   0.4463     C
C        0.034   0.2046   0.4827     C
O      0.03781  0.06126  0.84995     O
O      0.03825  0.06093  0.17499     O
C       0.0399    0.237   0.4517     C
O      0.04176  0.97416  0.22709     O
C      0.04226  0.06567  0.80442     C
C      0.04239  0.06562  0.12919     C
O      0.04291  0.97395  0.90196     O
N      0.04412   0.7017   0.3586     N
H       0.0443   0.4337   0.2187     H
H       0.0452   0.2882   0.3842     H
C       0.0466   0.3746   0.2391     C
O       0.0472   0.3509   0.6616     O
H       0.0472   0.7652    0.396     H
C       0.0492   0.3849   0.6768     C
N       0.0504   0.6519   0.2938     N
H       0.0577    0.091   0.0361     H
C       0.0605   0.4105   0.2186     C
O      0.06093  0.96175  0.82501     O
O      0.06126  0.96219  0.15005     O
H       0.0613    0.086    0.711     H
H       0.0615   0.3168   0.2558     H
H       0.0645   0.2508   0.4533     H
C       0.0652   0.6777   0.3258     C
C      0.06562  0.95761  0.87081     C
C      0.06567  0.95774  0.19558     C
O       0.0662   0.6268   0.7042     O
H       0.0663   0.4557   0.7187     H
C      0.06674  0.10136  0.11146     C
C       0.0668   0.1931   0.5193     C
C      0.06717  0.09975   0.7841     C
O       0.0677   0.1556   0.5307     O
C      0.07036   0.8304   0.4441     C
C       0.0706  0.10828  0.05859     C
C       0.0706   0.3404   0.2404     C
O      0.07287  0.86371   0.4656     O
C      0.07352   0.1039  0.73326     C
O       0.0743   0.6902    0.679     O
H       0.0772   0.1308   0.9728     H
H       0.0818   0.1238   0.8523     H
H       0.0822   0.1224   0.1777     H
C      0.08529  0.12652  0.14345     C
C       0.0856   0.6606    0.705     C
H        0.086   0.9387    0.289     H
C       0.0862   0.1264    0.818     C
C       0.0887   0.3996   0.6972     C
C       0.0895   0.4395   0.7186     C
O       0.0904   0.2211   0.5358     O
H        0.091   0.9423   0.9639     H
O      0.09256   0.1119  0.63107     O
C       0.0934   0.1405  0.04109     C
N       0.0953   0.1441  0.98914     N
O       0.0961   0.4799   0.1748     O
C      0.09844  0.13509  0.71533     C
O      0.09939  0.81608  0.41827     O
C      0.09975  0.93283   0.2159     C
C       0.1004   0.4113   0.1972     C
C      0.10136  0.93326  0.88854     C
C       0.1039  0.92648  0.26674     C
N      0.10654   0.6843   0.3289     N
C      0.10712  0.13757  0.65959     C
C      0.10828   0.9294  0.94141     C
H       0.1085   0.6208   0.2673     H
C      0.10954  0.15933  0.12649     C
H       0.1099   0.5096   0.7423     H
C         0.11   0.3419   0.2178     C
C       0.1111  0.15614      0.8     C
O       0.1119  0.90744  0.36893     O
N       0.1124   0.1631  0.91032     N
C       0.1137   0.1662   0.0746     C
H       0.1142   0.7022   0.3503     H
C       0.1151   0.4508   0.1768     C
C      0.11686  0.16083   0.7489     C
C       0.1202    0.667   0.7443     C
H       0.1208   0.6085   0.7673     H
O      0.12085  0.27217   0.2374     O
H       0.1222    0.351   0.6823     H
C       0.1224   0.1663   0.9599     C
H       0.1224   0.9178   0.8223     H
C       0.1229   0.3766    0.697     C
C       0.1234   0.3771    0.197     C
H       0.1238   0.9182   0.1477     H
C       0.1254   0.4534   0.7391     C
H       0.1263   0.7264   0.7347     H
C       0.1264   0.9138    0.182     C
C      0.12652  0.91471  0.85655     C
N       0.1267   0.4931   0.7561     N
O       0.1268   0.5662   0.2042     O
O      0.12775  0.17965   0.2081     O
O      0.12873  0.16691  0.64498     O
Cd     0.12942  0.14186  0.56276    Cd
H       0.1308   0.9228   0.0272     H
C      0.13172  0.18501   0.1618     C
H       0.1334   0.1816   0.7372     H
C       0.1335   0.6337   0.2708     C
C       0.1337   0.6335   0.7708     C
N       0.1343  0.18333  0.83032     N
C       0.1346   0.3039    0.217     C
C      0.13509  0.90156  0.28467     C
O      0.13629  0.07287   0.5344     O
C        0.137   0.1856   0.8834     C
C       0.1375    0.704   0.7508     C
C      0.13757  0.89288  0.34041     C
C       0.1377   0.6653   0.3012     C
C       0.1405   0.9066  0.95891     C
Cd     0.14186  0.87058  0.43724    Cd
N       0.1441   0.9047  0.01086     N
N        0.147   0.1916  0.97998     N
H       0.1486   0.2008   0.8142     H
H        0.149   0.3778   0.1823     H
O       0.1491   0.4528   0.1616     O
Cd     0.15089  0.51994  0.14687    Cd
C       0.1519   0.5096    0.793     C
N       0.1519   0.5504   0.7938     N
O      0.15307  0.15884  0.48347     O
O       0.1556   0.9323   0.4693     O
C      0.15614   0.8889      0.2     C
O       0.1566  0.21154  0.14638     O
C       0.1581     0.39   0.7178     C
H       0.1585    0.004   0.5016     H
O      0.15884  0.84693  0.51653     O
C      0.15933  0.89046  0.87351     C
C       0.1596   0.4294   0.7404     C
C       0.1606   0.5856    0.205     C
C      0.16083  0.88314   0.2511     C
N       0.1631   0.8876  0.08968     N
C       0.1653   0.6377   0.8012     C
N       0.1657   0.2101   0.8967     N
C       0.1662   0.8863   0.9254     C
C       0.1663   0.8776   0.0401     C
O      0.16691  0.87127  0.35502     O
C        0.167   0.6202   0.2443     C
O      0.16701    0.211  0.31057     O
H       0.1673   0.1925   0.4026     H
O      0.16929  0.30232  0.19666     O
C       0.1696  0.07036   0.5559     C
C       0.1705   0.2116   0.9466     C
C       0.1705   0.7093     0.78     C
N       0.1714  0.48548    0.823     N
O      0.17357   0.7794    0.765     O
C      0.17476  0.18779   0.4994     C
C       0.1758   0.6842   0.3075     C
O      0.17762  0.19422  0.54541     O
C       0.1777   0.5652   0.8258     C
H       0.1786   0.7057   0.3297     H
Cd     0.17963  0.23286  0.22294    Cd
O      0.17965  0.87225   0.7919     O
H       0.1816   0.8666   0.2628     H
C       0.1817   0.0011   0.5209     C
H       0.1832   0.4385   0.7558     H
N      0.18333   0.8657  0.16968     N
O      0.18392  0.09939  0.58173     O
C       0.1842   0.6758   0.8075     C
N       0.1843  0.60654   0.8289     N
C      0.18501  0.86828   0.8382     C
C       0.1851  0.21249   0.4137     C
C       0.1856    0.863   0.1166     C
C      0.18779  0.82524   0.5006     C
O       0.1902   0.5743    0.179     O
N       0.1916    0.853  0.02002     N
C       0.1917  0.75005   0.7863     C
H       0.1925   0.8327   0.5974     H
C       0.1931   0.9332   0.4807     C
C       0.1937   0.0321   0.5537     C
C      0.19396    0.237   0.3244     C
O      0.19422  0.82238  0.45459     O
C       0.1945  0.21525   0.4633     C
C       0.1961   0.3654    0.717     C
O      0.19768  0.33071  0.69666     O
C       0.1983    0.505   0.8542     C
N       0.1989   0.2359  0.96785     N
H       0.1992   0.2355   0.0001     H
H       0.2008   0.8514   0.1858     H
N       0.2017  0.54412   0.8586     N
H       0.2022   0.6142   0.8503     H
C      0.20244  0.24006   0.3788     C
C        0.204   0.6375   0.2508     C
C       0.2046    0.966   0.5173     C
H       0.2057   0.6786   0.8297     H
C       0.2093   0.6705     0.28     C
N       0.2101   0.8343   0.1033     N
O      0.21012  0.26122  0.29409     O
O        0.211  0.83299  0.68943     O
O      0.21154   0.8434  0.85362     O
C       0.2116   0.8295   0.0534     C
H       0.2118   0.4548   0.8842     H
C      0.21249   0.8149   0.5863     C
H       0.2139    0.257   0.8728     H
C      0.21525   0.8055   0.5367     C
N       0.2188  0.47994    0.885     N
O       0.2206  0.17357    0.235     O
C       0.2208    0.245     0.48     C
O       0.2211   0.9096   0.4642     O
O      0.22485  0.75121   0.8059     O
H       0.2264   0.6263   0.2347     H
H       0.2266   0.2468    0.514     H
C       0.2269  0.02629   0.5828     C
C       0.2275   0.2612   0.9467     C
O      0.22783  0.37915   0.7374     O
C       0.2302    0.269  0.39564     C
C        0.231   0.2698  0.89564     C
Cd     0.23286  0.82037  0.77706    Cd
H       0.2348   0.0472    0.604     H
H       0.2355   0.8008   0.9999     H
N       0.2359   0.8011  0.03215     N
C        0.237  0.80604   0.6756     C
C        0.237   0.9601   0.5483     C
O      0.23878  0.28988  0.79409     O
C       0.2388   0.2725   0.4467     C
C      0.24006  0.79756   0.6212     C
H        0.243   0.2861   0.3728     H
C        0.245   0.7792     0.52     C
H       0.2468   0.7734    0.486     H
O      0.24879  0.22485   0.1941     O
H       0.2492   0.4355   0.9533     H
C       0.2497   0.4897   0.9174     C
C      0.24995   0.1917   0.2137     C
C      0.25005   0.6917   0.2863     C
C       0.2503   0.9897   0.5826     C
H       0.2508   0.9355   0.5467     H
O      0.25121  0.72485   0.3059     O
H       0.2532   0.2734    0.014     H
C        0.255   0.2792     0.98     C
H        0.257   0.7861   0.1272     H
C      0.25994  0.29756   0.8788     C
C       0.2612   0.7725   0.0533     C
O      0.26122  0.78988  0.70591     O
C        0.263  0.30604   0.8244     C
C        0.263   0.4601   0.9517     C
N       0.2641   0.3011  0.46785     N
H       0.2645   0.3008   0.5001     H
H       0.2652   0.5472    0.896     H
Cd     0.26714  0.32037  0.72294    Cd
C        0.269   0.7698  0.60436     C
C       0.2698    0.769  0.10436     C
O      0.27217  0.87915   0.7626     O
C       0.2725   0.7612   0.5533     C
C       0.2731  0.52629   0.9172     C
H       0.2734   0.7468    0.986     H
H       0.2736   0.1263   0.2653     H
O      0.27515  0.25121   0.6941     O
O       0.2789   0.4096   0.0358     O
C       0.2792    0.745     0.02     C
O       0.2794  0.67357    0.265     O
N       0.2812  0.97994    0.615     N
C      0.28475   0.3055   0.9633     C
H       0.2861    0.757   0.6272     H
C      0.28751   0.3149   0.9137     C
H       0.2882   0.9548   0.6158     H
C       0.2884   0.3295   0.4466     C
O      0.28846   0.3434  0.64638     O
O        0.289  0.33299  0.81057     O
O      0.28988  0.76122  0.20591     O
N       0.2899   0.3343   0.3967     N
C       0.2907   0.1705     0.22     C
H       0.2943   0.1786   0.6703     H
C       0.2954    0.466   0.9827     C
C        0.296   0.1375   0.2492     C
C      0.29756  0.74006   0.1212     C
H       0.2978   0.1142   0.6497     H
N       0.2983  0.04412   0.6414     N
H       0.2992   0.3514   0.3142     H
H       0.3008   0.7355   0.4999     H
N       0.3011   0.7359  0.53215     N
C       0.3017    0.005   0.6458     C
O      0.30232  0.83071  0.80334     O
C       0.3039   0.8654    0.783     C
C       0.3055  0.71525   0.0367     C
O      0.30578  0.32238  0.04541     O
C      0.30604    0.737   0.1756     C
C       0.3063   0.5321   0.9463     C
C       0.3069   0.4332   0.0193     C
H       0.3075   0.3327   0.9026     H
C       0.3083  0.25005   0.7137     C
N       0.3084    0.353  0.47998     N
O       0.3098   0.0743    0.321     O
C      0.31221  0.32524   0.9994     C
C       0.3144    0.363   0.3834     C
C       0.3149  0.71249   0.0863     C
C      0.31499  0.36828   0.6618     C
N       0.3157  0.10654   0.6711     N
C       0.3158   0.1758   0.6925     C
O      0.31608  0.59939  0.91827     O
N      0.31667   0.3657  0.33032     N
H       0.3168   0.9385   0.7442     H
C       0.3183   0.5011   0.9791     C
H       0.3184   0.3666   0.2372     H
O      0.32035  0.37225   0.7081     O
Cd     0.32037  0.73286  0.27706    Cd
H       0.3214   0.2057   0.1703     H
C       0.3223   0.0652   0.6742     C
O      0.32238  0.69422  0.95459     O
C       0.3242   0.1842   0.1925     C
C      0.32524  0.68779   0.0006     C
O      0.32643   0.2794    0.735     O
N       0.3286  0.98548    0.677     N
C       0.3295   0.2093     0.72     C
C       0.3295   0.7116   0.5534     C
C       0.3304  0.57036   0.9441     C
O      0.33071  0.80232  0.30334     O
H       0.3327   0.6925   0.0974     H
O      0.33299    0.711  0.18943     O
C        0.333   0.1202   0.2557     C
O      0.33309  0.37127  0.14498     O
C       0.3337   0.3776   0.4599     C
C       0.3338   0.3863   0.5746     C
N       0.3343   0.7101   0.6033     N
C       0.3347   0.1377   0.6988     C
N       0.3369   0.3876  0.41032     N
C      0.33917  0.38314   0.2489     C
C       0.3394   0.0856    0.295     C
C       0.3404   0.9294   0.7596     C
C      0.34067  0.39046  0.62649     C
O      0.34116  0.34693  0.98347     O
H       0.3415    0.504   0.9984     H
C       0.3419     0.89   0.7822     C
O       0.3434  0.71154  0.35362     O
C      0.34386   0.3889      0.3     C
O       0.3444   0.4323   0.0307     O
O      0.34693  0.65884  0.01653     O
C       0.3481   0.0096    0.707     C
N       0.3481   0.0504   0.7062     N
Cd     0.34911  0.01994  0.35313    Cd
O       0.3509   0.9528   0.3384     O
H        0.351   0.8778   0.3177     H
H       0.3514   0.7008   0.6858     H
N        0.353   0.6916  0.52002     N
N       0.3559   0.4047  0.48914     N
Cd     0.35814  0.37058  0.06276    Cd
C       0.3595   0.4066  0.54109     C
C       0.3623   0.1653   0.1988     C
C      0.36243  0.39288  0.15959     C
C       0.3625    0.204   0.7492     C
C        0.363   0.6856   0.6166     C
O      0.36371  0.57287   0.9656     O
C      0.36491  0.40156  0.21533     C
C       0.3654   0.8039    0.283     C
N       0.3657  0.68333  0.66968     N
C       0.3663   0.1335   0.7292     C
C       0.3665   0.1337   0.2292     C
H       0.3666   0.6816   0.7628     H
C      0.36828  0.68501   0.3382     C
H       0.3692   0.4228   0.4728     H
Cd     0.37058  0.64186  0.93724    Cd
O      0.37127  0.66691  0.85502     O
O      0.37225  0.67965   0.2919     O
O       0.3732   0.0662   0.2958     O
N       0.3733   0.9931   0.7439     N
C      0.37348  0.41471  0.64345     C
C       0.3736   0.4138    0.318     C
H       0.3737   0.2264   0.7653     H
C       0.3746   0.9534   0.7609     C
H       0.3762   0.4182   0.3523     H
C       0.3766   0.8771    0.303     C
C       0.3771   0.8766    0.803     C
H       0.3776   0.4178   0.6777     H
C       0.3776   0.6663   0.5401     C
H       0.3778    0.851   0.8177     H
O      0.37915  0.77217   0.2626     O
H       0.3792   0.1085   0.7327     H
C       0.3798    0.167   0.7557     C
C      0.38314  0.66083   0.7511     C
C       0.3849   0.9508   0.3232     C
H       0.3858   0.2022   0.1497     H
C       0.3863   0.6662   0.4254     C
N       0.3876   0.6631  0.58968     N
O       0.3881  0.40744  0.13107     O
C       0.3889  0.65614      0.7     C
C         0.39   0.8419   0.2822     C
H       0.3901   0.0096   0.7577     H
C      0.39046  0.65933  0.37351     C
H       0.3915   0.1208   0.2327     H
C      0.39172   0.4294  0.55859     C
C      0.39288  0.63757  0.84041     C
N      0.39346   0.1843   0.1711     N
C       0.3961  0.42648  0.23326     C
C      0.39864  0.43326  0.61146     C
C       0.3996   0.9113   0.3028     C
C      0.40025  0.43283   0.2841     C
O      0.40061  0.31608  0.08173     O
C      0.40156  0.63509  0.78467     C
O       0.4039   0.9799   0.3252     O
N       0.4047   0.6441  0.51086     N
C       0.4066   0.6405  0.45891     C
O      0.40744   0.6119  0.86893     O
H        0.409   0.4423   0.5361     H
O       0.4096   0.7211   0.9642     O
C       0.4105   0.9395   0.7814     C
C       0.4113   0.8996   0.8028     C
C       0.4138   0.6264    0.682     C
H        0.414   0.4387    0.211     H
C       0.4144   0.1606    0.795     C
C      0.41471  0.62652  0.35655     C
H       0.4178   0.6224   0.3223     H
H       0.4182   0.6238   0.6477     H
H       0.4228   0.6308   0.5272     H
O       0.4257   0.1902    0.821     O
C      0.42648   0.6039  0.76674     C
O      0.42713  0.36371   0.0344     O
C       0.4294  0.60828  0.44141     C
C       0.4294   0.8404   0.2596     C
C      0.42964   0.3304   0.0559     C
O       0.4323   0.6556   0.9693     O
C      0.43283  0.59975   0.7159     C
C       0.4332   0.6931   0.9807     C
C      0.43326  0.60136  0.38854     C
H       0.4337   0.9557   0.7813     H
O       0.4338   0.1268   0.7958     O
C      0.43433  0.45774  0.30442     C
C      0.43438  0.45761  0.62919     C
C       0.4348   0.1777   0.1742     C
H       0.4355   0.7508   0.0467     H
H       0.4385   0.8168   0.2442     H
H       0.4387    0.586    0.789     H
O      0.43874  0.46219  0.34995     O
O      0.43907  0.46175  0.67499     O
C       0.4395   0.9105   0.2814     C
H       0.4423    0.591   0.4639     H
N       0.4496   0.1519   0.2062     N
C       0.4508   0.8849   0.8232     C
H       0.4528   0.2652    0.104     H
O       0.4528   0.8509   0.8384     O
C       0.4534   0.8746   0.2609     C
H       0.4548   0.7882   0.1158     H
H       0.4557   0.9337   0.2813     H
N      0.45588   0.2017   0.1414     N
O      0.45709  0.47395  0.59804     O
C      0.45761  0.56562  0.37081     C
C      0.45774  0.56567  0.69558     C
O      0.45824  0.47416  0.27291     O
C       0.4601    0.737   0.0483     C
O      0.46175  0.56093  0.32501     O
O      0.46219  0.56126  0.65005     O
C        0.466   0.7046   0.0173     C
C       0.4679   0.3063   0.0537     C
C      0.47371   0.2731   0.0828     C
O      0.47395  0.54291  0.40196     O
O      0.47416  0.54176  0.72709     O
O       0.4799   0.9039   0.8252     O
N      0.47994   0.7812    0.115     N
Cd     0.48006  0.15089  0.85313    Cd
N      0.48548   0.8286    0.177     N
C       0.4897   0.7503   0.0826     C
H       0.4904   0.1099   0.2577     H
C       0.4904   0.1519    0.207     C
N       0.4931   0.8733   0.2439     N
C        0.495   0.1983   0.1458     C
H        0.496   0.3415   0.0016     H
C       0.4989   0.3183   0.0209     C
Cd         0.5      0.5  0.33873    Cd
Cd         0.5      0.5  0.66127    Cd
C       0.5011   0.6817   0.0209     C
H        0.504   0.6585   0.0016     H
C        0.505   0.8017   0.1458     C
N       0.5069   0.1267   0.2439     N
C       0.5096   0.8481    0.207     C
H       0.5096   0.8901   0.2577     H
C       0.5103   0.2497   0.0826     C
N      0.51452   0.1714    0.177     N
Cd     0.51994  0.84911  0.85313    Cd
N      0.52006   0.2188    0.115     N
O       0.5201   0.0961   0.8252     O
O      0.52584  0.45824  0.72709     O
O      0.52605  0.45709  0.40196     O
C      0.52629   0.7269   0.0828     C
C       0.5321   0.6937   0.0537     C
C        0.534   0.2954   0.0173     C
O      0.53781  0.43874  0.65005     O
O      0.53825  0.43907  0.32501     O
C       0.5399    0.263   0.0483     C
O      0.54176  0.52584  0.27291     O
C      0.54226  0.43433  0.69558     C
C      0.54239  0.43438  0.37081     C
O      0.54291  0.52605  0.59804     O
N      0.54412   0.7983   0.1414     N
H       0.5443   0.0663   0.2813     H
H       0.5452   0.2118   0.1158     H
C       0.5466   0.1254   0.2609     C
O       0.5472   0.1491   0.8384     O
H       0.5472   0.7348    0.104     H
C       0.5492   0.1151   0.8232     C
N       0.5504   0.8481   0.2062     N
H       0.5577    0.409   0.4639     H
C       0.5605   0.0895   0.2814     C
O      0.56093  0.53825  0.67499     O
O      0.56126  0.53781  0.34995     O
H       0.5613    0.414    0.789     H
H       0.5615   0.1832   0.2442     H
H       0.5645   0.2492   0.0467     H
C       0.5652   0.8223   0.1742     C
C      0.56562  0.54239  0.62919     C
C      0.56567  0.54226  0.30442     C
O       0.5662   0.8732   0.7958     O
H       0.5663   0.0443   0.7813     H
C      0.56674  0.39864  0.38854     C
C       0.5668   0.3069   0.9807     C
C      0.56717  0.40025   0.7159     C
O       0.5677   0.3444   0.9693     O
C      0.57036   0.6696   0.0559     C
C       0.5706   0.1596   0.2596     C
C       0.5706  0.39172  0.44141     C
O      0.57287  0.63629   0.0344     O
C      0.57352   0.3961  0.76674     C
O       0.5743   0.8098    0.821     O
H       0.5772   0.3692   0.5272     H
H       0.5818   0.3762   0.6477     H
H       0.5822   0.3776   0.3223     H
C      0.58529  0.37348  0.35655     C
C       0.5856   0.8394    0.795     C
H        0.586   0.5613    0.211     H
C       0.5862   0.3736    0.682     C
C       0.5887   0.1004   0.8028     C
C       0.5895   0.0605   0.7814     C
O       0.5904   0.2789   0.9642     O
H        0.591   0.5577   0.5361     H
O      0.59256   0.3881  0.86893     O
C       0.5934   0.3595  0.45891     C
N       0.5953   0.3559  0.51086     N
O       0.5961   0.0201   0.3252     O
C      0.59844  0.36491  0.78467     C
O      0.59939  0.68392  0.08173     O
C      0.59975  0.56717   0.2841     C
C       0.6004   0.0887   0.3028     C
C      0.60136  0.56674  0.61146     C
C       0.6039  0.57352  0.23326     C
N      0.60654   0.8157   0.1711     N
C      0.60712  0.36243  0.84041     C
C      0.60828   0.5706  0.55859     C
H       0.6085   0.8792   0.2327     H
C      0.60954  0.34067  0.37351     C
H       0.6099   0.9904   0.7577     H
C         0.61   0.1581   0.2822     C
C       0.6111  0.34386      0.7     C
O       0.6119  0.59256  0.13107     O
N       0.6124   0.3369  0.58968     N
C       0.6137   0.3338   0.4254     C
H       0.6142   0.7978   0.1497     H
C       0.6151   0.0492   0.3232     C
C      0.61686  0.33917   0.7511     C
C       0.6202    0.833   0.7557     C
H       0.6208   0.8915   0.7327     H
O      0.62085  0.22783   0.2626     O
H       0.6222    0.149   0.8177     H
C       0.6224   0.3337   0.5401     C
H       0.6224   0.5822   0.6777     H
C       0.6229   0.1234    0.803     C
C       0.6234   0.1229    0.303     C
H       0.6238   0.5818   0.3523     H
C       0.6254   0.0466   0.7609     C
H       0.6263   0.7736   0.7653     H
C       0.6264   0.5862    0.318     C
C      0.62652  0.58529  0.64345     C
N       0.6267   0.0069   0.7439     N
O       0.6268   0.9338   0.2958     O
O      0.62775  0.32035   0.2919     O
O      0.62873  0.33309  0.85502     O
Cd     0.62942  0.35814  0.93724    Cd
H       0.6308   0.5772   0.4728     H
C      0.63172  0.31499   0.3382     C
H       0.6334   0.3184   0.7628     H
C       0.6335   0.8663   0.2292     C
C       0.6337   0.8665   0.7292     C
N       0.6343  0.31667  0.66968     N
C       0.6346   0.1961    0.283     C
C      0.63509  0.59844  0.21533     C
O      0.63629  0.42713   0.9656     O
C        0.637   0.3144   0.6166     C
C       0.6375    0.796   0.7492     C
C      0.63757  0.60712  0.15959     C
C       0.6377   0.8347   0.1988     C
C       0.6405   0.5934  0.54109     C
Cd     0.64185  0.62942  0.06276    Cd
N       0.6441   0.5953  0.48914     N
N        0.647   0.3084  0.52002     N
H       0.6486   0.2992   0.6858     H
H        0.649   0.1222   0.3177     H
O       0.6491   0.0472   0.3384     O
Cd     0.65089  0.98006  0.35313    Cd
N       0.6519   0.9496   0.7062     N
C       0.6519   0.9904    0.707     C
O      0.65307  0.34116  0.01653     O
O       0.6556   0.5677   0.0307     O
C      0.65614   0.6111      0.3     C
O       0.6566  0.28846  0.35362     O
C       0.6581     0.11   0.7822     C
H       0.6585    0.496   0.9984     H
O      0.65884  0.65307  0.98347     O
C      0.65933  0.60954  0.62649     C
C       0.6596   0.0706   0.7596     C
C       0.6606   0.9144    0.295     C
C      0.66083  0.61686   0.2489     C
N       0.6631   0.6124  0.41032     N
C       0.6653   0.8623   0.6988     C
N       0.6657   0.2899   0.6033     N
C       0.6662   0.6137   0.5746     C
C       0.6663   0.6224   0.4599     C
O      0.66691  0.62873  0.14498     O
C        0.667   0.8798   0.2557     C
O      0.66701    0.289  0.18943     O
H       0.6673   0.3075   0.0974     H
O      0.66929  0.19768  0.30334     O
C       0.6696  0.42964   0.9441     C
C       0.6705   0.2884   0.5534     C
C       0.6705   0.7907     0.72     C
N       0.6714  0.01452    0.677     N
O      0.67357   0.7206    0.735     O
C      0.67476  0.31221   0.0006     C
C       0.6758   0.8158   0.1925     C
O      0.67762  0.30578  0.95459     O
C       0.6777   0.9348   0.6742     C
H       0.6786   0.7943   0.1703     H
Cd     0.67963  0.26714  0.27706    Cd
O      0.67965  0.62775   0.7081     O
H       0.6816   0.6334   0.2372     H
C       0.6817   0.4989   0.9791     C
H       0.6832   0.0615   0.7442     H
N      0.68333   0.6343  0.33032     N
O      0.68392  0.40061  0.91827     O
C       0.6842   0.8242   0.6925     C
N       0.6843  0.89346   0.6711     N
C      0.68501  0.63172   0.6618     C
C       0.6851  0.28751   0.0863     C
C       0.6856    0.637   0.3834     C
C      0.68779  0.67476   0.9994     C
O       0.6902   0.9257    0.321     O
N       0.6916    0.647  0.47998     N
C       0.6917  0.74995   0.7137     C
H       0.6925   0.6673   0.9026     H
C       0.6931   0.5668   0.0193     C
C       0.6937   0.4679   0.9463     C
C      0.69396    0.263   0.1756     C
O      0.69422  0.67762  0.04541     O
C       0.6945  0.28475   0.0367     C
C       0.6961   0.1346    0.783     C
O      0.69768  0.16929  0.80334     O
C       0.6983    0.995   0.6458     C
N       0.6989   0.2641  0.53215     N
H       0.6992   0.2645   0.4999     H
H       0.7008   0.6486   0.3142     H
N       0.7017  0.95588   0.6414     N
H       0.7022   0.8858   0.6497     H
C      0.70244  0.25994   0.1212     C
C        0.704   0.8625   0.2492     C
C       0.7046    0.534   0.9827     C
H       0.7057   0.8214   0.6703     H
C       0.7093   0.8295     0.22     C
N       0.7101   0.6657   0.3967     N
O      0.71012  0.23878  0.20591     O
O        0.711  0.66701  0.81057     O
O      0.71154   0.6566  0.64638     O
C       0.7116   0.6705   0.4466     C
H       0.7118   0.0452   0.6158     H
C      0.71249   0.6851   0.9137     C
H       0.7139    0.243   0.6272     H
C      0.71525   0.6945   0.9633     C
N       0.7188  0.02006    0.615     N
O       0.7206  0.32643    0.265     O
C       0.7208    0.255     0.02     C
O       0.7211   0.5904   0.0358     O
O      0.72485  0.74879   0.6941     O
H       0.7264   0.8737   0.2653     H
H       0.7266   0.2532    0.986     H
C       0.7269  0.47371   0.9172     C
C       0.7275   0.2388   0.5533     C
O      0.72783  0.12085   0.7626     O
C       0.7302    0.231  0.10436     C
C        0.731   0.2302  0.60436     C
Cd     0.73286  0.67963  0.72294    Cd
H       0.7348   0.4528    0.896     H
H       0.7355   0.6992   0.5001     H
N       0.7359   0.6989  0.46785     N
C        0.737   0.5399   0.9517     C
C        0.737  0.69396   0.8244     C
O      0.73878  0.21012  0.70591     O
C       0.7388   0.2275   0.0533     C
C      0.74006  0.70244   0.8788     C
H        0.743   0.2139   0.1272     H
C        0.745   0.7208     0.98     C
H       0.7468   0.7266    0.014     H
O      0.74879  0.27515   0.3059     O
H       0.7492   0.0645   0.5467     H
C       0.7497   0.0103   0.5826     C
C      0.74995   0.3083   0.2863     C
C      0.75005   0.8083   0.2137     C
C       0.7503   0.5103   0.9174     C
H       0.7508   0.5645   0.9533     H
O      0.75121  0.77515   0.1941     O
H       0.7532   0.2266    0.486     H
C        0.755   0.2208     0.52     C
H        0.757   0.7139   0.3728     H
C      0.75994  0.20244   0.6212     C
C       0.7612   0.7275   0.4467     C
O      0.76122  0.71012  0.79409     O
C        0.763   0.0399   0.5483     C
C        0.763  0.19396   0.6756     C
N       0.7641   0.1989  0.03215     N
H       0.7645   0.1992   0.9999     H
H       0.7652   0.9528    0.604     H
Cd     0.76714  0.17963  0.77706    Cd
C        0.769   0.7302  0.89564     C
C       0.7698    0.731  0.39564     C
O      0.77217  0.62085   0.7374     O
C       0.7725   0.7388   0.9467     C
C       0.7731  0.97371   0.5828     C
H       0.7734   0.7532    0.514     H
H       0.7736   0.3737   0.2347     H
O      0.77515  0.24879   0.8059     O
O       0.7789   0.0904   0.4642     O
C       0.7792    0.755     0.48     C
O       0.7794  0.82643    0.235     O
N       0.7812  0.52006    0.885     N
C      0.78475   0.1945   0.5367     C
H       0.7861    0.743   0.8728     H
C      0.78751   0.1851   0.5863     C
H       0.7882   0.5452   0.8842     H
C       0.7884   0.1705   0.0534     C
O      0.78846   0.1566  0.85362     O
O        0.789  0.16701  0.68943     O
O      0.78988  0.73878  0.29409     O
N       0.7899   0.1657   0.1033     N
C       0.7907   0.3295     0.28     C
H       0.7943   0.3214   0.8297     H
C       0.7954    0.034   0.5173     C
C        0.796   0.3625   0.2508     C
C      0.79756  0.75994   0.3788     C
H       0.7978   0.3858   0.8503     H
N       0.7983  0.45588   0.8586     N
H       0.7992   0.1486   0.1858     H
H       0.8008   0.7645   0.0001     H
N       0.8011   0.7641  0.96785     N
C       0.8017    0.495   0.8542     C
O      0.80232  0.66929  0.69666     O
C       0.8039   0.6346    0.717     C
C       0.8055  0.78475   0.4633     C
O      0.80578  0.17762  0.45459     O
C      0.80604    0.763   0.3244     C
C       0.8063   0.9679   0.5537     C
C       0.8069   0.0668   0.4807     C
H       0.8075   0.1673   0.5974     H
C       0.8083  0.24995   0.7863     C
N       0.8084    0.147  0.02002     N
O       0.8098   0.4257    0.179     O
C      0.81221  0.17476   0.5006     C
C       0.8144    0.137   0.1166     C
C       0.8149  0.78751   0.4137     C
C      0.81499  0.13172   0.8382     C
N       0.8157  0.39346   0.8289     N
C       0.8158   0.3242   0.8075     C
O      0.81608  0.90061  0.58173     O
N      0.81667   0.1343  0.16968     N
H       0.8168   0.5615   0.7558     H
C       0.8183   0.9989   0.5209     C
H       0.8184   0.1334   0.2628     H
O      0.82035  0.12775   0.7919     O
Cd     0.82037  0.76714  0.22294    Cd
H       0.8214   0.2943   0.3297     H
C       0.8223   0.4348   0.8258     C
O      0.82238  0.80578  0.54541     O
C       0.8242   0.3158   0.3075     C
C      0.82524  0.81221   0.4994     C
O      0.82643   0.2206    0.765     O
N       0.8286  0.51452    0.823     N
C       0.8295   0.2907     0.78     C
C       0.8295   0.7884   0.9466     C
C       0.8304  0.92964   0.5559     C
O      0.83071  0.69768  0.19666     O
H       0.8327   0.8075   0.4026     H
O      0.83299    0.789  0.31057     O
C        0.833   0.3798   0.2443     C
O      0.83309  0.12873  0.35502     O
C       0.8337   0.1224   0.0401     C
C       0.8338   0.1137   0.9254     C
N       0.8343   0.7899   0.8967     N
C       0.8347   0.3623   0.8012     C
N       0.8369   0.1124  0.08968     N
C      0.83917  0.11686   0.2511     C
C       0.8394   0.4144    0.205     C
C       0.8404   0.5706   0.7404     C
C      0.84067  0.10954  0.87351     C
O      0.84116  0.15307  0.51653     O
H       0.8415    0.996   0.5016     H
C       0.8419     0.61   0.7178     C
O       0.8434  0.78846  0.14638     O
C      0.84386   0.1111      0.2     C
O       0.8444   0.0677   0.4693     O
O      0.84693  0.84116  0.48347     O
N       0.8481   0.4496   0.7938     N
C       0.8481   0.4904    0.793     C
Cd     0.84911  0.48006  0.14687    Cd
O       0.8509   0.5472   0.1616     O
H        0.851   0.6222   0.1823     H
H       0.8514   0.7992   0.8142     H
N        0.853   0.8084  0.97998     N
N       0.8559   0.0953  0.01086     N
Cd     0.85814  0.12942  0.43724    Cd
C       0.8595   0.0934  0.95891     C
C       0.8623   0.3347   0.3012     C
C      0.86243  0.10712  0.34041     C
C       0.8625    0.296   0.7508     C
C        0.863   0.8144   0.8834     C
O      0.86371  0.92713   0.5344     O
C      0.86491  0.09844  0.28467     C
C       0.8654   0.6961    0.217     C
N       0.8657  0.81667  0.83032     N
C       0.8663   0.3665   0.7708     C
C       0.8665   0.3663   0.2708     C
H       0.8666   0.8184   0.7372     H
C      0.86828  0.81499   0.1618     C
H       0.8692   0.0772   0.0272     H
Cd     0.87058  0.85814  0.56276    Cd
O      0.87127  0.83309  0.64498     O
O      0.87225  0.82035   0.2081     O
O       0.8732   0.4338   0.2042     O
N       0.8733   0.5069   0.7561     N
C      0.87348  0.08529  0.85655     C
C       0.8736   0.0862    0.182     C
H       0.8737   0.2736   0.7347     H
C       0.8746   0.5466   0.7391     C
H       0.8762   0.0818   0.1477     H
C       0.8766   0.6229    0.197     C
C       0.8771   0.6234    0.697     C
H       0.8776   0.0822   0.8223     H
C       0.8776   0.8337   0.9599     C
H       0.8778    0.649   0.6823     H
O      0.87915  0.72783   0.2374     O
H       0.8792   0.3915   0.7673     H
C       0.8798    0.333   0.7443     C
C      0.88314  0.83917   0.7489     C
C       0.8849   0.5492   0.1768     C
H       0.8858   0.2978   0.3503     H
C       0.8863   0.8338   0.0746     C
N       0.8876   0.8369  0.91032     N
O       0.8881  0.09256  0.36893     O
C       0.8889  0.84386      0.8     C
C         0.89   0.6581   0.2178     C
H       0.8901   0.4904   0.7423     H
C      0.89046  0.84067  0.12649     C
H       0.8915   0.3792   0.2673     H
C      0.89172   0.0706  0.94141     C
C      0.89288  0.86243  0.65959     C
N      0.89346   0.3157   0.3289     N
C       0.8961  0.07352  0.26674     C
C      0.89864  0.06674  0.88854     C
C       0.8996   0.5887   0.1972     C
C      0.90025  0.06717   0.2159     C
O      0.90061  0.18392  0.41827     O
C      0.90156  0.86491  0.71533     C
O       0.9039   0.5201   0.1748     O
N       0.9047   0.8559  0.98914     N
C       0.9066   0.8595  0.04109     C
O      0.90744   0.8881  0.63107     O
H        0.909   0.0577   0.9639     H
O       0.9096   0.7789   0.5358     O
C       0.9105   0.5605   0.7186     C
C       0.9113   0.6004   0.6972     C
C       0.9138   0.8736    0.818     C
H        0.914   0.0613    0.289     H
C       0.9144   0.3394    0.705     C
C      0.91471  0.87348  0.14345     C
H       0.9178   0.8776   0.1777     H
H       0.9182   0.8762   0.8523     H
H       0.9228   0.8692   0.9728     H
O       0.9257   0.3098    0.679     O
C      0.92648   0.8961  0.73326     C
O      0.92713  0.13629   0.4656     O
C       0.9294   0.6596   0.2404     C
C       0.9294  0.89172  0.05859     C
C      0.92964   0.1696   0.4441     C
O       0.9323   0.8444   0.5307     O
C      0.93283  0.90025   0.7841     C
C       0.9332   0.8069   0.5193     C
C      0.93326  0.89864  0.11146     C
H       0.9337   0.5443   0.7187     H
O       0.9338   0.3732   0.7042     O
C      0.93433  0.04226  0.19558     C
C      0.93438  0.04239  0.87081     C
C       0.9348   0.3223   0.3258     C
H       0.9355   0.7492   0.4533     H
H       0.9385   0.6832   0.2558     H
H       0.9387    0.914    0.711     H
O      0.93874  0.03781  0.15005     O
O      0.93907  0.03825  0.82501     O
C       0.9395   0.5895   0.2186     C
H       0.9423    0.909   0.0361     H
N       0.9496   0.3481   0.2938     N
C       0.9508   0.6151   0.6768     C
H       0.9528   0.2348    0.396     H
O       0.9528   0.6491   0.6616     O
C       0.9534   0.6254   0.2391     C
H       0.9548   0.7118   0.3842     H
H       0.9557   0.5663   0.2187     H
N      0.95588   0.2983   0.3586     N
O      0.95709  0.02605  0.90196     O
C      0.95761  0.93438  0.12919     C
C      0.95774  0.93433  0.80442     C
O      0.95824  0.02584  0.22709     O
C       0.9601    0.763   0.4517     C
O      0.96175  0.93907  0.17499     O
O      0.96219  0.93874  0.84995     O
C        0.966   0.7954   0.4827     C
C       0.9679   0.1937   0.4463     C
C      0.97371   0.2269   0.4172     C
O      0.97395  0.95709  0.09804     O
O      0.97416  0.95824  0.77291     O
O       0.9799   0.5961   0.6748     O
N      0.97994   0.7188    0.385     N
Cd     0.98006  0.34911  0.64687    Cd
N      0.98548   0.6714    0.323     N
C       0.9897   0.7497   0.4174     C
C       0.9904   0.3481    0.293     C
H       0.9904   0.3901   0.2423     H
N       0.9931   0.6267   0.2561     N
C        0.995   0.3017   0.3542     C
H        0.996   0.1585   0.4984     H
C       0.9989   0.1817   0.4791     C
