data_I
_chemical_name_common  '/home/zhangsd/repos/MofS-CGCNN/ML/data/TSD/clean_cifs/QAMVEH01_clean'
_cell_length_a 16.51260
_cell_length_b 16.51260
_cell_length_c 24.50980
_cell_angle_alpha 90.00000
_cell_angle_beta  90.00000
_cell_angle_gamma 120.00000
_space_group_name_H-M_alt      'P 1'


loop_
_space_group_symop_operation_xyz
  'x, y, z' 

loop_
_atom_site_label
_atom_site_fract_x
_atom_site_fract_y
_atom_site_fract_z
_atom_site_type_symbol
Ce         0.0  0.07702  0.66667    Ce
Ce         0.0  0.92298  0.16667    Ce
O       0.0012    0.072   0.0452     O
O       0.0012   0.9292  0.78813     O
H       0.0223    0.339  0.83653     H
H       0.0223   0.6833   0.9968     H
C       0.0297   0.1963  0.79353     C
C       0.0297   0.8334   0.0398     C
O       0.0315   0.2001   0.5036     O
O       0.0315   0.8314  0.32973     O
O       0.0376   0.1388  0.76233     O
O       0.0376   0.8988    0.071     O
H       0.0445   0.2368   0.0194     H
H       0.0445   0.8077  0.81393     H
C       0.0561   0.1122  0.08333     C
C       0.0561   0.9439     0.75     C
O       0.0708    0.072  0.12147     O
O       0.0708   0.9988  0.71187     O
O        0.072   0.0012   0.9548     O
O        0.072   0.0708  0.87853     O
C       0.0739   0.3621  0.81353     C
C       0.0739   0.7118   0.0198     C
Ce     0.07702     -0.0  0.33333    Ce
Ce     0.07702  0.07702      0.5    Ce
C       0.0911   0.2687   0.0452     C
C       0.0911   0.8224  0.78813     C
C       0.0964   0.3014  0.78733     C
C       0.0964    0.795    0.046     C
O       0.1012   0.1388  0.40433     O
O       0.1012   0.9624    0.429     O
H       0.1031   0.2942  0.42933     H
H       0.1031   0.8089    0.404     H
C       0.1089   0.2178  0.08333     C
C       0.1089   0.8911     0.75     C
C       0.1122   0.0561  0.91667     C
H       0.1149   0.4992  0.82233     H
H       0.1149   0.6157    0.011     H
H       0.1258   0.3934    0.017     H
H       0.1258   0.7324  0.81633     H
C       0.1303   0.4587  0.80483     C
C       0.1303   0.6716   0.0285     C
C       0.1383   0.3618   0.0441     C
C       0.1383   0.7765  0.78923     C
O       0.1388   0.0376  0.23767     O
O       0.1388   0.1012  0.59567     O
H       0.1518   0.5353   0.0631     H
H       0.1518   0.6165  0.77023     H
C       0.1599   0.3348  0.41263     C
C       0.1599   0.8251   0.4207     C
C       0.1666   0.1963  0.37313     C
C       0.1666   0.9703   0.4602     C
O       0.1686   0.2001  0.66307     O
O       0.1686   0.9685  0.17027     O
H       0.1742   0.4553  0.44243     H
H       0.1742   0.7189   0.3909     H
C       0.1749   0.3348  0.75403     C
C       0.1749   0.8401   0.0793     C
C       0.1776   0.2687  0.12147     C
C       0.1776   0.9089  0.71187     C
H       0.1911   0.2942  0.73733     H
H       0.1911   0.8969    0.096     H
H       0.1923   0.2368  0.14727     H
H       0.1923   0.9555  0.68607     H
C       0.1963   0.0297  0.20647     C
C       0.1963   0.1666  0.62687     C
O       0.2001   0.0315   0.4964     O
O       0.2001   0.1686  0.33693     O
C        0.203   0.4316  0.42003     C
C        0.203   0.7714   0.4133     C
C        0.205   0.3014  0.37933     C
C        0.205   0.9036    0.454     C
C        0.206    0.412  0.08333     C
C        0.206    0.794     0.75     C
C       0.2062   0.4947  0.77183     C
C       0.2062   0.7115   0.0615     C
C       0.2151    0.568   0.0718     C
C       0.2151   0.6471  0.76153     C
C       0.2178   0.1089  0.91667     C
C       0.2235   0.3618  0.12257     C
C       0.2235   0.8617  0.71077     C
H       0.2256   0.6128  0.41667     H
C       0.2286   0.4316  0.74663     C
C       0.2286    0.797   0.0867     C
H       0.2368   0.0445   0.9806     H
H       0.2368   0.1923  0.85273     H
C       0.2586   0.5172  0.08333     C
C       0.2586   0.7414     0.75     C
C       0.2591   0.5962  0.76093     C
C       0.2591   0.6629   0.0724     C
H       0.2676   0.3934  0.14967     H
H       0.2676   0.8742  0.68367     H
C       0.2687   0.0911   0.9548     C
C       0.2687   0.1776  0.87853     C
H       0.2811   0.4553  0.72423     H
H       0.2811   0.8258   0.1091     H
C       0.2882   0.3621  0.35313     C
C       0.2882   0.9261   0.4802     C
C       0.2885   0.4947  0.39483     C
C       0.2885   0.7938   0.4385     C
C       0.2908   0.6454  0.41667     C
H       0.2942   0.1031  0.57067     H
H       0.2942   0.1911  0.26267     H
C       0.3014   0.0964  0.21267     C
C       0.3014    0.205  0.62067     C
H       0.3167    0.339  0.33013     H
H       0.3167   0.9777   0.5032     H
C       0.3284   0.4587  0.36183     C
C       0.3284   0.8697   0.4715     C
C       0.3348   0.1599  0.58737     C
C       0.3348   0.1749  0.24597     C
C       0.3371   0.5962  0.40573     C
C       0.3371   0.7409   0.4276     C
H        0.339   0.0223  0.16347     H
H        0.339   0.3167  0.66987     H
C       0.3529    0.568  0.09487     C
C       0.3529   0.7849  0.73847     C
C       0.3546   0.6454     0.75     C
C       0.3546   0.7092  0.08333     C
C       0.3618   0.1383   0.9559     C
C       0.3618   0.2235  0.87743     C
C       0.3621   0.0739  0.18647     C
C       0.3621   0.2882  0.64687     C
H       0.3835   0.5353  0.10357     H
H       0.3835   0.8482  0.72977     H
H       0.3843   0.4992  0.34433     H
H       0.3843   0.8851    0.489     H
H       0.3872   0.6128     0.75     H
H       0.3872   0.7744  0.08333     H
H       0.3934   0.1258    0.983     H
H       0.3934   0.2676  0.85033     H
C       0.4038   0.6629  0.09427     C
C       0.4038   0.7409  0.73907     C
C        0.412    0.206  0.91667     C
C       0.4316    0.203  0.57997     C
C       0.4316   0.2286  0.25337     C
C        0.432   0.6471  0.40513     C
C        0.432   0.7849   0.4282     C
H       0.4553   0.1742  0.55757     H
H       0.4553   0.2811  0.27577     H
C       0.4587   0.1303  0.19517     C
C       0.4587   0.3284  0.63817     C
H       0.4647   0.6165  0.39643     H
H       0.4647   0.8482   0.4369     H
C       0.4828   0.7414  0.41667     C
C       0.4947   0.2062  0.22817     C
C       0.4947   0.2885  0.60517     C
H       0.4992   0.1149  0.17767     H
H       0.4992   0.3843  0.65567     H
H       0.5008   0.6157  0.15567     H
H       0.5008   0.8851  0.67767     H
C       0.5053   0.7115  0.10517     C
C       0.5053   0.7938  0.72817     C
C       0.5172   0.2586  0.91667     C
H       0.5353   0.1518   0.9369     H
H       0.5353   0.3835  0.89643     H
C       0.5413   0.6716  0.13817     C
C       0.5413   0.8697  0.69517     C
H       0.5447   0.7189  0.77577     H
H       0.5447   0.8258  0.05757     H
C        0.568   0.2151   0.9282     C
C        0.568   0.3529  0.90513     C
C       0.5684   0.7714  0.75337     C
C       0.5684    0.797  0.07997     C
C        0.588    0.794  0.41667     C
C       0.5962   0.2591  0.23907     C
C       0.5962   0.3371  0.59427     C
H       0.6066   0.7324  0.35033     H
H       0.6066   0.8742    0.483     H
H       0.6128   0.2256  0.58333     H
H       0.6128   0.3872     0.25     H
H       0.6157   0.1149    0.989     H
H       0.6157   0.5008  0.84433     H
H       0.6165   0.1518  0.22977     H
H       0.6165   0.4647  0.60357     H
C       0.6379   0.7118  0.14687     C
C       0.6379   0.9261  0.68647     C
C       0.6382   0.7765  0.37743     C
C       0.6382   0.8617   0.4559     C
C       0.6454   0.2908  0.58333     C
C       0.6454   0.3546     0.25     C
C       0.6471   0.2151  0.23847     C
C       0.6471    0.432  0.59487     C
H        0.661   0.6833  0.16987     H
H        0.661   0.9777  0.66347     H
C       0.6629   0.2591   0.9276     C
C       0.6629   0.4038  0.90573     C
C       0.6652   0.8251  0.74597     C
C       0.6652   0.8401  0.08737     C
C       0.6716   0.1303   0.9715     C
C       0.6716   0.5413  0.86183     C
H       0.6833   0.0223   0.0032     H
H       0.6833    0.661  0.83013     H
C       0.6986    0.795  0.12067     C
C       0.6986   0.9036  0.71267     C
H       0.7058   0.8089  0.76267     H
H       0.7058   0.8969  0.07067     H
C       0.7092   0.3546  0.91667     C
C       0.7115   0.2062   0.9385     C
C       0.7115   0.5053  0.89483     C
C       0.7118   0.0739   0.9802     C
C       0.7118   0.6379  0.85313     C
H       0.7189   0.1742   0.6091     H
H       0.7189   0.5447  0.22423     H
C       0.7313   0.8224  0.37853     C
C       0.7313   0.9089   0.4548     C
H       0.7324   0.1258  0.18367     H
H       0.7324   0.6066  0.64967     H
C       0.7409   0.3371   0.5724     C
C       0.7409   0.4038  0.26093     C
C       0.7414   0.2586     0.25     C
C       0.7414   0.4828  0.58333     C
H       0.7632   0.8077  0.35273     H
H       0.7632   0.9555   0.4806     H
C       0.7714    0.203   0.5867     C
C       0.7714   0.5684  0.24663     C
H       0.7744   0.3872  0.91667     H
C       0.7765   0.1383  0.21077     C
C       0.7765   0.6382  0.62257     C
C       0.7822   0.8911  0.41667     C
C       0.7849   0.3529  0.26153     C
C       0.7849    0.432   0.5718     C
C       0.7938   0.2885   0.5615     C
C       0.7938   0.5053  0.27183     C
C        0.794    0.206     0.25     C
C        0.794    0.588  0.58333     C
C        0.795   0.0964    0.954     C
C        0.795   0.6986  0.87933     C
C        0.797   0.2286   0.9133     C
C        0.797   0.5684  0.92003     C
O       0.7999   0.8314  0.83693     O
O       0.7999   0.9685   0.9964     O
C       0.8037   0.8334  0.12687     C
C       0.8037   0.9703  0.70647     C
H       0.8077   0.0445  0.18607     H
H       0.8077   0.7632  0.64727     H
H       0.8089   0.1031    0.596     H
H       0.8089   0.7058  0.23733     H
C       0.8224   0.0911  0.21187     C
C       0.8224   0.7313  0.62147     C
C       0.8251   0.1599   0.5793     C
C       0.8251   0.6652  0.25403     C
H       0.8258   0.2811   0.8909     H
H       0.8258   0.5447  0.94243     H
O       0.8314   0.0315  0.67027     O
O       0.8314   0.7999  0.16307     O
C       0.8334   0.0297   0.9602     C
C       0.8334   0.8037  0.87313     C
C       0.8401   0.1749   0.9207     C
C       0.8401   0.6652  0.91263     C
H       0.8482   0.3835  0.27023     H
H       0.8482   0.4647   0.5631     H
O       0.8612   0.8988  0.09567     O
O       0.8612   0.9624  0.73767     O
C       0.8617   0.2235  0.28923     C
C       0.8617   0.6382   0.5441     C
C       0.8697   0.3284   0.5285     C
C       0.8697   0.5413  0.30483     C
H       0.8742   0.2676  0.31633     H
H       0.8742   0.6066    0.517     H
H       0.8851   0.3843    0.511     H
H       0.8851   0.5008  0.32233     H
C       0.8878   0.9439  0.41667     C
C       0.8911   0.1089     0.25     C
C       0.8911   0.7822  0.58333     C
H       0.8969   0.1911    0.904     H
H       0.8969   0.7058  0.92933     H
O       0.8988   0.0376    0.929     O
O       0.8988   0.8612  0.90433     O
C       0.9036    0.205    0.546     C
C       0.9036   0.6986  0.28733     C
C       0.9089   0.1776  0.28813     C
C       0.9089   0.7313   0.5452     C
Ce     0.92298     -0.0  0.83333    Ce
Ce     0.92298  0.92298      0.0    Ce
C       0.9261   0.2882   0.5198     C
C       0.9261   0.6379  0.31353     C
O        0.928   0.9292  0.37853     O
O        0.928   0.9988   0.4548     O
O       0.9292   0.0012  0.21187     O
O       0.9292    0.928  0.62147     O
C       0.9439   0.0561     0.25     C
C       0.9439   0.8878  0.58333     C
H       0.9555   0.1923  0.31393     H
H       0.9555   0.7632   0.5194     H
O       0.9624   0.1012    0.571     O
O       0.9624   0.8612  0.26233     O
O       0.9685   0.1686  0.82973     O
O       0.9685   0.7999   0.0036     O
C       0.9703   0.1666   0.5398     C
C       0.9703   0.8037  0.29353     C
H       0.9777   0.3167   0.4968     H
H       0.9777    0.661  0.33653     H
O       0.9988   0.0708  0.28813     O
O       0.9988    0.928   0.5452     O
