data_I
_chemical_name_common  '/home/zhangsd/repos/MofS-CGCNN/ML/data/TSD/clean_cifs/QANSUV_clean'
_cell_length_a 23.96470
_cell_length_b 23.96470
_cell_length_c 40.97900
_cell_angle_alpha 90.00000
_cell_angle_beta  90.00000
_cell_angle_gamma 120.00000
_space_group_name_H-M_alt      'P 1'


loop_
_space_group_symop_operation_xyz
  'x, y, z' 

loop_
_atom_site_label
_atom_site_fract_x
_atom_site_fract_y
_atom_site_fract_z
_atom_site_type_symbol
Cl         0.0   0.2001     0.75    Cl
Cu         0.0      0.5      0.0    Cu
Cu         0.0      0.5      0.5    Cu
Cl         0.0   0.7999     0.25    Cl
O      0.00147  0.47343   0.0447     O
O      0.00147  0.52803   0.5447     O
C       0.0019   0.1755  0.86129     C
C       0.0019   0.8264  0.36129     C
H       0.0023   0.3739   0.6555     H
H       0.0023   0.6284   0.1555     H
O       0.0056   0.1166  0.40214     O
O       0.0056    0.889  0.90214     O
N      0.00637  0.36663  0.11771     N
N      0.00637  0.63973  0.61771     N
C      0.00903  0.27877   0.4733     C
C      0.00903  0.73027   0.9733     C
O       0.0112   0.4508  0.60755     O
O       0.0112   0.5604  0.10755     O
C       0.0134   0.1524   0.1195     C
C       0.0134    0.861   0.6195     C
C      0.01543  0.17987  0.47717     C
C      0.01543  0.83557  0.97717     C
C      0.01577  0.18463  0.99383     C
C      0.01577  0.83113  0.49383     C
H       0.0179   0.4399   0.8805     H
H       0.0179    0.578   0.3805     H
N      0.01987  0.40673  0.09268     N
N      0.01987  0.61313  0.59268     N
O       0.0212   0.1962  0.36968     O
C       0.0212   0.2166  0.66515     C
C       0.0212   0.8046  0.16515     C
O       0.0212    0.825  0.86968     O
H       0.0219   0.1264   0.6048     H
H       0.0219   0.8955   0.1048     H
H      0.02333  0.50557  0.44447     H
H      0.02333  0.51777  0.94447     H
H      0.02407  0.15653  0.98193     H
H      0.02407  0.86753  0.48193     H
C      0.02447  0.29003  0.99716     C
C      0.02447  0.73443  0.49716     C
N      0.02693  0.32697  0.45105     N
N      0.02693  0.69997  0.95105     N
C      0.02733  0.23607  0.46015     C
C      0.02733  0.79127  0.96015     C
H      0.02833  0.15187  0.46897     H
H      0.02833  0.87647  0.96897     H
N       0.0299   0.2524  0.82399     N
N       0.0299   0.7775  0.32399     N
Cu     0.03024  0.41238  0.44935    Cu
Cu     0.03024  0.61787  0.94935    Cu
N       0.0333   0.3397  0.71562     N
N       0.0333   0.6936  0.21562     N
C      0.03627  0.24673  0.98105     C
C      0.03627  0.78953  0.48105     C
C        0.037    0.154  0.62267     C
C        0.037    0.883  0.12267     C
H      0.03827  0.33103  0.98883     H
H      0.03827  0.70723  0.48883     H
H      0.04057  0.33563  0.17783     H
H      0.04057  0.70493  0.67783     H
C       0.0433   0.4011  0.66383     C
C       0.0433   0.6422  0.16383     C
Cu      0.0488  0.30309  0.78268    Cu
Cu      0.0488  0.74571  0.28268    Cu
N      0.05353  0.31347  0.42602     N
N      0.05353  0.74007  0.92602     N
C      0.05457  0.39693  0.13996     C
C      0.05457  0.65763  0.63996     C
N      0.05513  0.25957  0.43083     N
N      0.05513  0.79557  0.93083     N
H      0.06093  0.49507  0.35977     H
H      0.06093  0.56587  0.85977     H
C       0.0636   0.3879  0.69337     C
C       0.0636   0.6757  0.19337     C
N       0.0654   0.2204  0.86568     N
N       0.0654    0.845  0.36568     N
C      0.06777  0.37663   0.1695     C
C      0.06777  0.69113   0.6695     C
C       0.0682   0.4762    0.616     C
C       0.0682    0.592    0.116     C
N      0.06893  0.48197  0.50967     N
N      0.06893  0.58697  0.00967     N
O      0.07267  0.21873  0.93411     O
O      0.07267  0.85393  0.43411     O
N       0.0734   0.3532  0.74065     N
N       0.0734   0.7202  0.24065     N
N      0.07377  0.46223  0.09749     N
N      0.07377  0.61153  0.59749     N
C      0.07467  0.26513  0.94933     C
C      0.07467  0.80953  0.44933     C
H       0.0749   0.2397   0.1668     H
H       0.0749   0.8352   0.6668     H
Cu     0.07904  0.36358  0.38399    Cu
Cu     0.07904  0.71547  0.88399    Cu
C       0.0793   0.1771   0.1343     C
C       0.0793   0.9022   0.6343     C
N       0.0797   0.2644    0.843     N
N       0.0797   0.8153    0.343     N
N      0.08093  0.44417  0.49066     N
N      0.08093  0.63677  0.99066     N
C       0.0847   0.2429    0.676     C
C       0.0847   0.8418    0.176     C
C       0.0866   0.4562  0.64772     C
C       0.0866   0.6304  0.14772     C
H      0.08867  0.31543  0.21383     H
H      0.08867  0.77323  0.71383     H
C      0.09043  0.50847  0.34267     C
C      0.09043  0.58197  0.84267     C
H      0.09363  0.50187  0.83347     H
H      0.09363  0.59177  0.33347     H
C      0.09727  0.45793  0.12681     C
C      0.09727  0.63933  0.62681     C
C       0.0978   0.1771   0.6343     C
C       0.0978   0.9207   0.1343     C
Cu     0.09965  0.23121  0.39902    Cu
Cu     0.09965  0.86845  0.89902    Cu
C       0.1007   0.2229   0.1603     C
C       0.1007   0.8778   0.6603     C
H       0.1008   0.2724   0.6931     H
H       0.1008   0.8284   0.1931     H
Cu     0.10213  0.53511  0.06568    Cu
Cu     0.10213  0.56701  0.56568    Cu
H       0.1045   0.1264   0.1048     H
H       0.1045   0.9781   0.6048     H
O      0.10627  0.32213  0.94088     O
O      0.10627  0.78413  0.44088     O
H      0.10657  0.35123  0.95283     H
H      0.10657  0.75533  0.45283     H
C      0.11043  0.54447  0.82697     C
C      0.11043  0.56597  0.32697     C
N      0.11083  0.41427  0.34268     N
N      0.11083  0.69657  0.84268     N
O        0.111   0.1166  0.90214     O
O        0.111   0.9944  0.40214     O
N      0.11293  0.51167  0.53235     N
N      0.11293  0.60127  0.03235     N
O       0.1146   0.5206  0.60078     O
O       0.1146    0.594  0.10078     O
O       0.1166   0.0056  0.09786     O
O       0.1166    0.111  0.59786     O
C      0.11673  0.47127  0.33182     C
C      0.11673  0.64547  0.83182     C
C        0.117    0.154  0.12267     C
C        0.117    0.963  0.62267     C
O      0.11747  0.34453  0.22578     O
O      0.11747  0.77293  0.72578     O
C       0.1222   0.2229   0.6603     C
C       0.1222   0.8993   0.1603     C
C      0.12287  0.41993  0.18561     C
C      0.12287  0.70293  0.68561     C
H      0.12353  0.15187  0.96897     H
H      0.12353  0.97167  0.46897     H
C       0.1246   0.4306  0.70652     C
C       0.1246    0.694  0.20652     C
H       0.1264   0.0219   0.8952     H
H       0.1264   0.1045   0.3952     H
N       0.1289   0.4071  0.73584     N
N       0.1289   0.7218  0.23584     N
Cu     0.13155  0.23121  0.89902    Cu
Cu     0.13155  0.90035  0.39902    Cu
H      0.13247  0.15653  0.48193     H
H      0.13247  0.97593  0.98193     H
Cl     0.13323  0.46657  0.41667    Cl
Cl     0.13323  0.66667  0.91667    Cl
O      0.13713  0.49167  0.03635     O
O      0.13713  0.64547  0.53635     O
C      0.13793  0.45007  0.50152     C
C      0.13793  0.68787  0.00152     C
O      0.13863  0.33187  0.37804     O
O      0.13863  0.80677  0.87804     O
C        0.139   0.1524   0.6195     C
C        0.139   0.9866   0.1195     C
O       0.1401   0.3348  0.78863     O
O       0.1401   0.8053  0.28863     O
C      0.14287  0.40153  0.21733     C
C      0.14287  0.74133  0.71733     C
O      0.14607  0.21873  0.43411     O
O      0.14607  0.92733  0.93411     O
N      0.14863  0.40227  0.32367     N
N      0.14863  0.74637  0.82367     N
C       0.1487   0.4978   0.6605     C
C       0.1487   0.6509   0.1605     C
H       0.1489     0.31   0.7778     H
H       0.1489   0.8389   0.2778     H
H      0.15187  0.02833  0.03103     H
H      0.15187  0.12353  0.53103     H
C       0.1524   0.0134   0.3805     C
C       0.1524    0.139   0.8805     C
C      0.15347  0.50223  0.14383     C
C      0.15347  0.65123  0.64383     C
C        0.154    0.037  0.87733     C
C        0.154    0.117  0.37733     C
N        0.155   0.2204  0.36568     N
N        0.155   0.9346  0.86568     N
C      0.15623  0.56887  0.80097     C
C      0.15623  0.58737  0.30097     C
H      0.15653  0.02407  0.51807     H
H      0.15653  0.13247  0.01807     H
C      0.15783  0.49307  0.52796     C
C      0.15783  0.66477  0.02796     C
C       0.1582   0.2429    0.176     C
C       0.1582   0.9153    0.676     C
O      0.15833  0.47047  0.79699     O
O      0.15833  0.68787  0.29699     O
C      0.15973  0.49117  0.30538     C
C      0.15973  0.66857  0.80538     C
H       0.1611     0.31   0.2778     H
H       0.1611   0.8511   0.7778     H
H      0.16173  0.39427  0.47357     H
H      0.16173  0.76747  0.97357     H
C      0.16443  0.17987  0.97717     C
C      0.16443  0.98457  0.47717     C
C      0.16447  0.48203  0.17283     C
C      0.16447  0.68243  0.67283     C
H       0.1648   0.2397   0.6668     H
H       0.1648   0.9251   0.1668     H
Cu     0.16667  0.33333  0.33333    Cu
Cu     0.16667  0.33333  0.83333    Cu
Cu     0.16667  0.83333  0.33333    Cu
Cu     0.16667  0.83333  0.83333    Cu
H      0.16853  0.42697  0.99987     H
H      0.16853  0.74157  0.49987     H
C      0.16887  0.18463  0.49383     C
C      0.16887  0.98423  0.99383     C
C       0.1689   0.4868   0.6895     C
C       0.1689   0.6821   0.1895     C
H       0.1716   0.2724   0.1931     H
H       0.1716   0.8992   0.6931     H
H      0.17223  0.35667  0.38887     H
H      0.17223  0.81557  0.88887     H
C       0.1736   0.1755  0.36129     C
C       0.1736   0.9981  0.86129     C
O        0.175   0.1962  0.86968     O
O        0.175   0.9788  0.36968     O
C      0.17513  0.42377  0.49067     C
C      0.17513  0.75137  0.99067     C
C       0.1755   0.0019  0.63871     C
C       0.1755   0.1736  0.13871     C
H       0.1768   0.5342   0.6486     H
H       0.1768   0.6426   0.1486     H
C       0.1771   0.0793   0.3657     C
C       0.1771   0.0978   0.8657     C
N      0.17833  0.44627  0.30099     N
N      0.17833  0.73207  0.80099     N
C      0.17933  0.54967  0.28934     C
C      0.17933  0.62967  0.78934     C
C      0.17987  0.01543  0.02283     C
C      0.17987  0.16443  0.52283     C
C      0.18093  0.52767  0.78617     C
C      0.18093  0.65327  0.28617     C
H      0.18147  0.54313  0.13563     H
H      0.18147  0.63833  0.63563     H
H      0.18443  0.35667  0.88887     H
H      0.18443  0.82777  0.38887     H
C      0.18463  0.01577  0.50617     C
C      0.18463  0.16887  0.00617     C
N       0.1847   0.2644    0.343     N
N       0.1847   0.9203    0.843     N
O      0.18727  0.44793  0.23255     O
O      0.18727  0.73933  0.73255     O
C      0.19047  0.26513  0.44933     C
C      0.19047  0.92533  0.94933     C
O      0.19323  0.33187  0.87804     O
O      0.19323  0.86137  0.37804     O
C      0.19433  0.51427  0.04717     C
C      0.19433  0.68007  0.54717     C
O       0.1947   0.3348  0.28863     O
O       0.1947   0.8599  0.78863     O
C       0.1954   0.2166  0.16515     C
C       0.1954   0.9788  0.66515     C
O       0.1962   0.0212  0.13032     O
O       0.1962    0.175  0.63032     O
Cl      0.2001      0.0     0.75    Cl
Cl      0.2001   0.2001     0.25    Cl
H      0.20087  0.51013  0.18473     H
H      0.20087  0.69073  0.68473     H
Cu     0.20178  0.43546  0.76765    Cu
Cu     0.20178  0.76632  0.26765    Cu
N      0.20443  0.25957  0.93083     N
N      0.20443  0.94487  0.43083     N
H      0.20693  0.56217  0.27147     H
H      0.20693  0.64477  0.77147     H
C      0.20873  0.23607  0.96015     C
C      0.20873  0.97267  0.46015     C
H       0.2098   0.5148   0.6977     H
H       0.2098    0.695   0.1977     H
C      0.21047  0.24673  0.48105     C
C      0.21047  0.96373  0.98105     C
C      0.21113  0.44377  0.00637     C
C      0.21113  0.76737  0.50637     C
O      0.21587  0.32213  0.44088     O
O      0.21587  0.89373  0.94088     O
C      0.21633  0.51267    0.544     C
C      0.21633  0.70367    0.044     C
C       0.2166   0.0212  0.83485     C
C       0.2166   0.1954  0.33485     C
O      0.21673  0.55567  0.06881     O
O      0.21673  0.66107  0.56881     O
O      0.21873  0.07267  0.56589     O
O      0.21873  0.14607  0.06589     O
N       0.2204   0.0654  0.63432     N
N       0.2204    0.155  0.13432     N
O      0.22233  0.55007  0.76453     O
O      0.22233  0.67227  0.26453     O
N       0.2225   0.2524  0.32399     N
N       0.2225   0.9701  0.82399     N
C       0.2229   0.1007   0.3397     C
C       0.2229   0.1222   0.8397     C
H      0.22677  0.31543  0.71383     H
H      0.22677  0.91133  0.21383     H
O      0.22707  0.34453  0.72578     O
O      0.22707  0.88253  0.22578     O
H      0.22883  0.54027  0.56187     H
H      0.22883  0.68857  0.06187     H
Cu     0.23121  0.09965  0.10098    Cu
Cu     0.23121  0.13155  0.60098    Cu
H      0.23253  0.39427  0.97357     H
H      0.23253  0.83827  0.47357     H
C      0.23263  0.44377  0.50637     C
C      0.23263  0.78887  0.00637     C
Cu     0.23368  0.43546  0.26765    Cu
Cu     0.23368  0.79822  0.76765    Cu
C      0.23553  0.48957  0.03237     C
C      0.23553  0.74597  0.53237     C
C      0.23607  0.02733  0.03985     C
C      0.23607  0.20873  0.53985     C
H       0.2397   0.0749   0.3332     H
H       0.2397   0.1648   0.8332     H
C       0.2429   0.0847    0.824     C
C       0.2429   0.1582    0.324     C
H      0.24467  0.35123  0.45283     H
H      0.24467  0.89343  0.95283     H
C      0.24673  0.03627  0.51895     C
C      0.24673  0.21047  0.01895     C
C      0.24863  0.42377  0.99067     C
C      0.24863  0.82487  0.49067     C
N       0.2524   0.0299  0.67601     N
N       0.2524   0.2225  0.17601     N
N      0.25363  0.40227  0.82367     N
N      0.25363  0.85137  0.32367     N
C      0.25403  0.48957  0.53237     C
C      0.25403  0.76447  0.03237     C
Cu     0.25429  0.30309  0.28268    Cu
Cu     0.25429   0.9512  0.78268    Cu
H      0.25843  0.42697  0.49987     H
H      0.25843  0.83147  0.99987     H
C      0.25867  0.40153  0.71733     C
C      0.25867  0.85713  0.21733     C
N      0.25957  0.05513  0.06917     N
N      0.25957  0.20443  0.56917     N
N      0.25993  0.31347  0.92602     N
N      0.25993  0.94647  0.42602     N
O      0.26067  0.44793  0.73255     O
O      0.26067  0.81273  0.23255     O
N       0.2644   0.0797    0.657     N
N       0.2644   0.1847    0.157     N
C      0.26513  0.07467  0.55067     C
C      0.26513  0.19047  0.05067     C
C      0.26557  0.29003  0.49716     C
C      0.26557  0.97553  0.99716     C
N      0.26793  0.44627  0.80099     N
N      0.26793  0.82167  0.30099     N
C      0.26973  0.27877   0.9733     C
C      0.26973  0.99097   0.4733     C
H       0.2724   0.1008   0.8069     H
H       0.2724   0.1716   0.3069     H
N       0.2782   0.4071  0.23584     N
N       0.2782   0.8711  0.73584     N
C      0.27877  0.00903   0.0267     C
C      0.27877  0.26973   0.5267     C
N       0.2798   0.3532  0.24065     N
N       0.2798   0.9266  0.74065     N
Cu     0.28453  0.36358  0.88399    Cu
Cu     0.28453  0.92096  0.38399    Cu
C      0.29003  0.02447  0.50284     C
C      0.29003  0.26557  0.00284     C
H      0.29277  0.33103  0.48883     H
H      0.29277  0.96173  0.98883     H
H      0.29507  0.33563  0.67783     H
H      0.29507  0.95943  0.17783     H
C      0.29633  0.51267    0.044     C
C      0.29633  0.78367    0.544     C
C      0.29707  0.41993  0.68561     C
C      0.29707  0.87713  0.18561     C
N      0.30003  0.32697  0.95105     N
N      0.30003  0.97307  0.45105     N
Cu     0.30309   0.0488  0.71732    Cu
Cu     0.30309  0.25429  0.21732    Cu
N      0.30343  0.41427  0.84268     N
N      0.30343  0.88917  0.34268     N
H        0.305   0.5148   0.1977     H
H        0.305   0.7902   0.6977     H
C        0.306   0.4306  0.20652     C
C        0.306   0.8754  0.70652     C
N       0.3064   0.3397  0.21562     N
N       0.3064   0.9667  0.71562     N
C      0.30887  0.37663   0.6695     C
C      0.30887  0.93223   0.1695     C
H      0.30927  0.51013  0.68473     H
H      0.30927  0.79913  0.18473     H
H         0.31   0.1489   0.7222     H
H         0.31   0.1611   0.2222     H
H      0.31143  0.54027  0.06187     H
H      0.31143  0.77117  0.56187     H
C      0.31213  0.45007  0.00152     C
O      0.31213  0.47047  0.29699     O
O      0.31213  0.84167  0.79699     O
C      0.31213  0.86207  0.50152     C
N      0.31347  0.05353  0.07398     N
N      0.31347  0.25993  0.57398     N
H      0.31543  0.08867  0.28617     H
H      0.31543  0.22677  0.78617     H
C      0.31757  0.48203  0.67283     C
C      0.31757  0.83553  0.17283     C
C       0.3179   0.4868   0.1895     C
C       0.3179   0.8311   0.6895     C
C      0.31993  0.51427  0.54717     C
C      0.31993  0.80567  0.04717     C
O      0.32213  0.10627  0.55912     O
O      0.32213  0.21587  0.05912     O
C       0.3243   0.3879  0.19337     C
C       0.3243   0.9364  0.69337     C
N      0.32697  0.02693  0.04895     N
N      0.32697  0.30003  0.54895     N
O      0.32773  0.55007  0.26453     O
O      0.32773  0.77767  0.76453     O
H      0.33103  0.03827  0.51117     H
H      0.33103  0.29277  0.01117     H
C      0.33143  0.49117  0.80538     C
C      0.33143  0.84027  0.30538     C
O      0.33187  0.13863  0.12196     O
O      0.33187  0.19323  0.62196     O
Cu     0.33333  0.16667  0.16667    Cu
Cu     0.33333  0.16667  0.66667    Cu
Cl     0.33333  0.46657  0.91667    Cl
Cl     0.33333  0.86677  0.41667    Cl
O       0.3348   0.1401  0.71137     O
O       0.3348   0.1947  0.21137     O
C      0.33523  0.49307  0.02796     C
C      0.33523  0.84217  0.52796     C
H      0.33563  0.04057  0.32217     H
H      0.33563  0.29507  0.82217     H
O      0.33893  0.55567  0.56881     O
O      0.33893  0.78327  0.06881     O
N       0.3397   0.0333  0.78438     N
N       0.3397   0.3064  0.28438     N
C      0.34237  0.39693  0.63996     C
C      0.34237  0.94543  0.13996     C
O      0.34453  0.11747  0.27422     O
O      0.34453  0.22707  0.77422     O
C      0.34673  0.52767  0.28617     C
C      0.34673  0.81907  0.78617     C
C      0.34877  0.50223  0.64383     C
C      0.34877  0.84653  0.14383     C
C       0.3491   0.4978   0.1605     C
C       0.3491   0.8513   0.6605     C
H      0.35123  0.10657  0.54717     H
H      0.35123  0.24467  0.04717     H
N       0.3532   0.0734  0.75935     N
N       0.3532   0.2798  0.25935     N
C      0.35453  0.47127  0.83182     C
O      0.35453  0.49167  0.53635     O
O      0.35453  0.86287  0.03635     O
C      0.35453  0.88327  0.33182     C
H      0.35523  0.56217  0.77147     H
H      0.35523  0.79307  0.27147     H
H      0.35667  0.17223  0.11113     H
H      0.35667  0.18443  0.61113     H
H       0.3574   0.5342   0.1486     H
H       0.3574   0.8232   0.6486     H
C       0.3578   0.4011  0.16383     C
C       0.3578   0.9567  0.66383     C
N      0.36027  0.36663  0.61771     N
N      0.36027  0.99363  0.11771     N
C      0.36067  0.45793  0.62681     C
C      0.36067  0.90273  0.12681     C
H      0.36167  0.54313  0.63563     H
H      0.36167  0.81853  0.13563     H
N      0.36323  0.44417  0.99066     N
N      0.36323  0.91907  0.49066     N
Cu     0.36358  0.07904  0.11601    Cu
Cu     0.36358  0.28453  0.61601    Cu
N      0.36663  0.00637  0.38229     N
N      0.36663  0.36027  0.88229     N
C       0.3696   0.4562  0.14772     C
C       0.3696   0.9134  0.64772     C
C      0.37033  0.54967  0.78934     C
C      0.37033  0.82067  0.28934     C
H       0.3716   0.3739   0.1555     H
H       0.3716   0.9977   0.6555     H
H       0.3739   0.0023   0.8445     H
H       0.3739   0.3716   0.3445     H
C      0.37663  0.06777   0.3305     C
C      0.37663  0.30887   0.8305     C
Cu     0.38213  0.41238  0.94935    Cu
Cu     0.38213  0.96976  0.44935    Cu
N      0.38687  0.40673  0.59268     N
N      0.38687  0.98013  0.09268     N
C       0.3879   0.0636  0.80663     C
C       0.3879   0.3243  0.30663     C
N      0.38847  0.46223  0.59749     N
N      0.38847  0.92623  0.09749     N
H      0.39427  0.16173  0.02643     H
H      0.39427  0.23253  0.52643     H
C      0.39693  0.05457  0.36004     C
C      0.39693  0.34237  0.86004     C
N      0.39873  0.51167  0.03235     N
N      0.39873  0.88707  0.53235     N
C       0.4011   0.0433  0.83617     C
C       0.4011   0.3578  0.33617     C
C      0.40153  0.14287  0.28267     C
C      0.40153  0.25867  0.78267     C
N      0.40227  0.14863  0.17633     N
N      0.40227  0.25363  0.67633     N
O        0.406   0.5206  0.10078     O
O        0.406   0.8854  0.60078     O
N      0.40673  0.01987  0.40732     N
N      0.40673  0.38687  0.90732     N
N       0.4071   0.1289  0.76416     N
N       0.4071   0.2782  0.26416     N
C        0.408   0.4762    0.116     C
C        0.408   0.9318    0.616     C
H      0.40823  0.50187  0.33347     H
H      0.40823  0.90637  0.83347     H
Cu     0.41238  0.03024  0.05065    Cu
Cu     0.41238  0.38213  0.55065    Cu
C      0.41263  0.56887  0.30097     C
C      0.41263  0.84377  0.80097     C
N      0.41303  0.48197  0.00967     N
N      0.41303  0.93107  0.50967     N
N      0.41427  0.11083  0.15732     N
N      0.41427  0.30343  0.65732     N
C      0.41803  0.50847  0.84267     C
C      0.41803  0.90957  0.34267     C
C      0.41993  0.12287  0.31439     C
C      0.41993  0.29707  0.81439     C
H        0.422   0.4399   0.3805     H
H        0.422   0.9821   0.8805     H
C      0.42377  0.17513  0.00933     C
C      0.42377  0.24863  0.50933     C
H      0.42697  0.16853  0.50013     H
H      0.42697  0.25843  0.00013     H
C       0.4306   0.1246  0.79348     C
C       0.4306    0.306  0.29348     C
C      0.43113  0.58737  0.80097     C
C      0.43113  0.84377  0.30097     C
Cu     0.43299  0.53511  0.56568    Cu
Cu     0.43299  0.89787  0.06568    Cu
C      0.43403  0.54447  0.32697     C
C      0.43403  0.88957  0.82697     C
H      0.43413  0.49507  0.85977     H
H      0.43413  0.93907  0.35977     H
Cu     0.43546  0.20178  0.73235    Cu
Cu     0.43546  0.23368  0.23235    Cu
H      0.43783  0.64477  0.27147     H
H      0.43783  0.79307  0.77147     H
O       0.4396   0.4508  0.10755     O
O       0.4396   0.9888  0.60755     O
H       0.4399   0.0179   0.6195     H
H       0.4399    0.422   0.1195     H
C      0.44377  0.21113  0.49363     C
C      0.44377  0.23263  0.99363     C
N      0.44417  0.08093  0.00934     N
N      0.44417  0.36323  0.50934     N
O      0.44433  0.66107  0.06881     O
O      0.44433  0.78327  0.56881     O
N      0.44627  0.17833  0.19901     N
N      0.44627  0.26793  0.69901     N
O      0.44793  0.18727  0.26745     O
O      0.44793  0.26067  0.76745     O
O      0.44993  0.67227  0.76453     O
O      0.44993  0.77767  0.26453     O
C      0.45007  0.13793  0.99848     C
C      0.45007  0.31213  0.49848     C
C      0.45033  0.62967  0.28934     C
C      0.45033  0.82067  0.78934     C
O       0.4508   0.0112  0.89245     O
O       0.4508   0.4396  0.39245     O
C      0.45553  0.56597  0.82697     C
C      0.45553  0.88957  0.32697     C
C       0.4562   0.0866  0.85228     C
C       0.4562   0.3696  0.35228     C
H      0.45687  0.63833  0.13563     H
H      0.45687  0.81853  0.63563     H
C      0.45793  0.09727  0.37319     C
C      0.45793  0.36067  0.87319     C
H      0.45973  0.68857  0.56187     H
H      0.45973  0.77117  0.06187     H
N      0.46223  0.07377  0.40251     N
N      0.46223  0.38847  0.90251     N
Cu     0.46489  0.56701  0.06568    Cu
Cu     0.46489  0.89787  0.56568    Cu
H       0.4658   0.6426   0.6486     H
H       0.4658   0.8232   0.1486     H
Cl     0.46657  0.13323  0.08333    Cl
Cl     0.46657  0.33333  0.58333    Cl
O      0.47047  0.15833  0.70301     O
O      0.47047  0.31213  0.20301     O
C      0.47127  0.11673  0.16818     C
C      0.47127  0.35453  0.66818     C
O      0.47197  0.47343   0.5447     O
O      0.47197  0.99853   0.0447     O
C      0.47233  0.65327  0.78617     C
C      0.47233  0.81907  0.28617     C
O      0.47343  0.00147   0.4553     O
O      0.47343  0.47197   0.9553     O
C       0.4762   0.0682    0.884     C
C       0.4762    0.408    0.384     C
O       0.4794    0.594  0.60078     O
O       0.4794   0.8854  0.10078     O
N      0.48197  0.06893  0.99033     N
N      0.48197  0.41303  0.49033     N
C      0.48203  0.16447  0.32717     C
C      0.48203  0.31757  0.82717     C
H      0.48223  0.50557  0.94447     H
H      0.48223  0.97667  0.44447     H
H       0.4852    0.695   0.6977     H
H       0.4852   0.7902   0.1977     H
C      0.48573  0.68007  0.04717     C
C      0.48573  0.80567  0.54717     C
C       0.4868   0.1689   0.8105     C
C       0.4868   0.3179   0.3105     C
C      0.48733  0.70367    0.544     C
C      0.48733  0.78367    0.044     C
N      0.48833  0.60127  0.53235     N
N      0.48833  0.88707  0.03235     N
C      0.48957  0.23553  0.46763     C
C      0.48957  0.25403  0.96763     C
H      0.48987  0.69073  0.18473     H
H      0.48987  0.79913  0.68473     H
C      0.49117  0.15973  0.19462     C
C      0.49117  0.33143  0.69462     C
C      0.49153  0.58197  0.34267     C
C      0.49153  0.90957  0.84267     C
O      0.49167  0.13713  0.46365     O
O      0.49167  0.35453  0.96365     O
C      0.49307  0.15783  0.97204     C
C      0.49307  0.33523  0.47204     C
H      0.49443  0.51777  0.44447     H
H      0.49443  0.97667  0.94447     H
H      0.49507  0.06093  0.14023     H
H      0.49507  0.43413  0.64023     H
C      0.49777  0.65123  0.14383     C
C      0.49777  0.84653  0.64383     C
C       0.4978   0.1487   0.8395     C
C       0.4978   0.3491   0.3395     C
H      0.49813  0.59177  0.83347     H
H      0.49813  0.90637  0.33347     H
Cu         0.5      0.0      0.0    Cu
Cu         0.5      0.0      0.5    Cu
Cu         0.5      0.5      0.0    Cu
Cu         0.5      0.5      0.5    Cu
H      0.50187  0.09363  0.66653     H
H      0.50187  0.40823  0.16653     H
C       0.5022   0.6509   0.6605     C
C       0.5022   0.8513   0.1605     C
C      0.50223  0.15347  0.35617     C
C      0.50223  0.34877  0.85617     C
H      0.50493  0.56587  0.35977     H
H      0.50493  0.93907  0.85977     H
H      0.50557  0.02333  0.05553     H
H      0.50557  0.48223  0.55553     H
C      0.50693  0.66477  0.52796     C
C      0.50693  0.84217  0.02796     C
O      0.50833  0.64547  0.03635     O
O      0.50833  0.86287  0.53635     O
C      0.50847  0.09043  0.15733     C
C      0.50847  0.41803  0.65733     C
C      0.50883  0.66857  0.30538     C
C      0.50883  0.84027  0.80538     C
H      0.51013  0.20087  0.31527     H
H      0.51013  0.30927  0.81527     H
C      0.51043  0.74597  0.03237     C
C      0.51043  0.76447  0.53237     C
N      0.51167  0.11293  0.96765     N
N      0.51167  0.39873  0.46765     N
C      0.51267  0.21633    0.956     C
C      0.51267  0.29633    0.456     C
C       0.5132   0.6821   0.6895     C
C       0.5132   0.8311   0.1895     C
C      0.51427  0.19433  0.45283     C
C      0.51427  0.31993  0.95283     C
H       0.5148   0.2098   0.8023     H
H       0.5148    0.305   0.3023     H
H      0.51777  0.02333  0.55553     H
H      0.51777  0.49443  0.05553     H
C      0.51797  0.68243  0.17283     C
C      0.51797  0.83553  0.67283     C
N      0.51803  0.58697  0.50967     N
N      0.51803  0.93107  0.00967     N
O       0.5206   0.1146  0.89922     O
O       0.5206    0.406  0.39922     O
C       0.5238    0.592    0.616     C
C       0.5238   0.9318    0.116     C
O      0.52657  0.52803   0.0447     O
O      0.52657  0.99853   0.5447     O
C      0.52767  0.18093  0.71383     C
C      0.52767  0.34673  0.21383     C
O      0.52803  0.00147   0.9553     O
O      0.52803  0.52657   0.4553     O
C      0.52873  0.64547  0.33182     C
C      0.52873  0.88327  0.83182     C
O      0.52953  0.68787  0.79699     O
O      0.52953  0.84167  0.29699     O
Cl     0.53343  0.66667  0.41667    Cl
Cl     0.53343  0.86677  0.91667    Cl
H       0.5342   0.1768   0.8514     H
H       0.5342   0.3574   0.3514     H
Cu     0.53511  0.10213  0.43432    Cu
Cu     0.53511  0.43299  0.93432    Cu
N      0.53777  0.61153  0.09749     N
N      0.53777  0.92623  0.59749     N
H      0.54027  0.22883  0.93813     H
H      0.54027  0.31143  0.43813     H
C      0.54207  0.63933  0.12681     C
C      0.54207  0.90273  0.62681     C
H      0.54313  0.18147  0.36437     H
H      0.54313  0.36167  0.86437     H
C       0.5438   0.6304  0.64772     C
C       0.5438   0.9134  0.14772     C
C      0.54447  0.11043  0.67303     C
C      0.54447  0.43403  0.17303     C
O       0.5492   0.5604  0.60755     O
O       0.5492   0.9888  0.10755     O
C      0.54967  0.17933  0.21066     C
C      0.54967  0.37033  0.71066     C
C      0.54993  0.68787  0.50152     C
C      0.54993  0.86207  0.00152     C
O      0.55007  0.22233  0.73547     O
O      0.55007  0.32773  0.23547     O
O      0.55207  0.73933  0.23255     O
O      0.55207  0.81273  0.73255     O
N      0.55373  0.73207  0.30099     N
N      0.55373  0.82167  0.80099     N
O      0.55567  0.21673  0.43119     O
O      0.55567  0.33893  0.93119     O
N      0.55583  0.63677  0.49066     N
N      0.55583  0.91907  0.99066     N
C      0.55623  0.76737  0.00637     C
C      0.55623  0.78887  0.50637     C
H       0.5601    0.578   0.8805     H
H       0.5601   0.9821   0.3805     H
O       0.5604   0.0112  0.39245     O
O       0.5604   0.5492  0.89245     O
H      0.56217  0.20693  0.22853     H
H      0.56217  0.35523  0.72853     H
Cu     0.56454  0.76632  0.76765    Cu
Cu     0.56454  0.79822  0.26765    Cu
H      0.56587  0.06093  0.64023     H
H      0.56587  0.50493  0.14023     H
C      0.56597  0.11043  0.17303     C
C      0.56597  0.45553  0.67303     C
Cu     0.56701  0.10213  0.93432    Cu
Cu     0.56701  0.46489  0.43432    Cu
C      0.56887  0.15623  0.69903     C
C      0.56887  0.41263  0.19903     C
C       0.5694    0.694  0.70652     C
C       0.5694   0.8754  0.20652     C
H      0.57303  0.74157  0.99987     H
H      0.57303  0.83147  0.49987     H
C      0.57623  0.75137  0.49067     C
C      0.57623  0.82487  0.99067     C
H        0.578   0.0179   0.1195     H
H        0.578   0.5601   0.6195     H
C      0.58007  0.70293  0.18561     C
C      0.58007  0.87713  0.68561     C
C      0.58197  0.09043  0.65733     C
C      0.58197  0.49153  0.15733     C
N      0.58573  0.69657  0.34268     N
N      0.58573  0.88917  0.84268     N
N      0.58697  0.06893  0.49033     N
N      0.58697  0.51803  0.99033     N
C      0.58737  0.15623  0.19903     C
C      0.58737  0.43113  0.69903     C
Cu     0.58762  0.61787  0.44935    Cu
Cu     0.58762  0.96976  0.94935    Cu
H      0.59177  0.09363  0.16653     H
H      0.59177  0.49813  0.66653     H
C        0.592   0.0682    0.384     C
C        0.592   0.5238    0.884     C
N       0.5929   0.7218  0.73584     N
N       0.5929   0.8711  0.23584     N
N      0.59327  0.61313  0.09268     N
N      0.59327  0.98013  0.59268     N
O        0.594   0.1146  0.39922     O
O        0.594   0.4794  0.89922     O
N      0.59773  0.74637  0.32367     N
N      0.59773  0.85137  0.82367     N
C      0.59847  0.74133  0.21733     C
C      0.59847  0.85713  0.71733     C
C       0.5989   0.6422  0.66383     C
C       0.5989   0.9567  0.16383     C
N      0.60127  0.11293  0.46765     N
N      0.60127  0.48833  0.96765     N
C      0.60307  0.65763  0.13996     C
C      0.60307  0.94543  0.63996     C
H      0.60573  0.76747  0.47357     H
H      0.60573  0.83827  0.97357     H
N      0.61153  0.07377  0.90251     N
N      0.61153  0.53777  0.40251     N
C       0.6121   0.6757  0.69337     C
C       0.6121   0.9364  0.19337     C
N      0.61313  0.01987  0.90732     N
N      0.61313  0.59327  0.40732     N
Cu     0.61787  0.03024  0.55065    Cu
Cu     0.61787  0.58762  0.05065    Cu
C      0.62337  0.69113   0.1695     C
C      0.62337  0.93223   0.6695     C
H       0.6261   0.6284   0.6555     H
H       0.6261   0.9977   0.1555     H
H       0.6284   0.0023   0.3445     H
H       0.6284   0.6261   0.8445     H
C      0.62967  0.17933  0.71066     C
C      0.62967  0.45033  0.21066     C
C       0.6304   0.0866  0.35228     C
C       0.6304   0.5438  0.85228     C
N      0.63337  0.63973  0.11771     N
N      0.63337  0.99363  0.61771     N
Cu     0.63642  0.71547  0.38399    Cu
Cu     0.63642  0.92096  0.88399    Cu
N      0.63677  0.08093  0.50934     N
N      0.63677  0.55583  0.00934     N
H      0.63833  0.18147  0.86437     H
H      0.63833  0.45687  0.36437     H
C      0.63933  0.09727  0.87319     C
C      0.63933  0.54207  0.37319     C
N      0.63973  0.00637  0.88229     N
N      0.63973  0.63337  0.38229     N
C       0.6422   0.0433  0.33617     C
C       0.6422   0.5989  0.83617     C
H       0.6426   0.1768   0.3514     H
H       0.6426   0.4658   0.8514     H
H      0.64333  0.81557  0.38887     H
H      0.64333  0.82777  0.88887     H
H      0.64477  0.20693  0.72853     H
H      0.64477  0.43783  0.22853     H
C      0.64547  0.11673  0.66818     C
O      0.64547  0.13713  0.96365     O
O      0.64547  0.50833  0.46365     O
C      0.64547  0.52873  0.16818     C
N       0.6468   0.7202  0.74065     N
N       0.6468   0.9266  0.24065     N
H      0.64877  0.75533  0.95283     H
H      0.64877  0.89343  0.45283     H
C       0.6509   0.1487   0.3395     C
C       0.6509   0.5022   0.8395     C
C      0.65123  0.15347  0.85617     C
C      0.65123  0.49777  0.35617     C
C      0.65327  0.18093  0.21383     C
C      0.65327  0.47233  0.71383     C
O      0.65547  0.77293  0.22578     O
O      0.65547  0.88253  0.72578     O
C      0.65763  0.05457  0.86004     C
C      0.65763  0.60307  0.36004     C
N       0.6603   0.6936  0.71562     N
N       0.6603   0.9667  0.21562     N
O      0.66107  0.21673  0.93119     O
O      0.66107  0.44433  0.43119     O
H      0.66437  0.70493  0.17783     H
H      0.66437  0.95943  0.67783     H
C      0.66477  0.15783  0.47204     C
C      0.66477  0.50693  0.97204     C
O       0.6652   0.8053  0.78863     O
O       0.6652   0.8599  0.28863     O
Cl     0.66667  0.13323  0.58333    Cl
Cl     0.66667  0.53343  0.08333    Cl
Cu     0.66667  0.83333  0.33333    Cu
Cu     0.66667  0.83333  0.83333    Cu
O      0.66813  0.80677  0.37804     O
O      0.66813  0.86137  0.87804     O
C      0.66857  0.15973  0.69462     C
C      0.66857  0.50883  0.19462     C
H      0.66897  0.70723  0.98883     H
H      0.66897  0.96173  0.48883     H
O      0.67227  0.22233  0.23547     O
O      0.67227  0.44993  0.73547     O
N      0.67303  0.69997  0.45105     N
N      0.67303  0.97307  0.95105     N
C       0.6757   0.0636  0.30663     C
C       0.6757   0.6121  0.80663     C
O      0.67787  0.78413  0.94088     O
O      0.67787  0.89373  0.44088     O
C      0.68007  0.19433  0.95283     C
C      0.68007  0.48573  0.45283     C
C       0.6821   0.1689   0.3105     C
C       0.6821   0.5132   0.8105     C
C      0.68243  0.16447  0.82717     C
C      0.68243  0.51797  0.32717     C
H      0.68457  0.77323  0.21383     H
H      0.68457  0.91133  0.71383     H
N      0.68653  0.74007  0.42602     N
N      0.68653  0.94647  0.92602     N
C      0.68787  0.13793  0.49848     C
O      0.68787  0.15833  0.20301     O
O      0.68787  0.52953  0.70301     O
C      0.68787  0.54993  0.99848     C
H      0.68857  0.22883  0.43813     H
H      0.68857  0.45973  0.93813     H
H         0.69   0.8389   0.7778     H
H         0.69   0.8511   0.2778     H
H      0.69073  0.20087  0.81527     H
H      0.69073  0.48987  0.31527     H
C      0.69113  0.06777   0.8305     C
C      0.69113  0.62337   0.3305     C
N       0.6936   0.0333  0.28438     N
N       0.6936   0.6603  0.78438     N
C        0.694   0.1246  0.29348     C
C        0.694   0.5694  0.79348     C
H        0.695   0.2098   0.3023     H
H        0.695   0.4852   0.8023     H
N      0.69657  0.11083  0.65732     N
N      0.69657  0.58573  0.15732     N
Cu     0.69691  0.74571  0.78268    Cu
Cu     0.69691   0.9512  0.28268    Cu
N      0.69997  0.02693  0.54895     N
N      0.69997  0.67303  0.04895     N
C      0.70293  0.12287  0.81439     C
C      0.70293  0.58007  0.31439     C
C      0.70367  0.21633    0.456     C
C      0.70367  0.48733    0.956     C
H      0.70493  0.04057  0.82217     H
H      0.70493  0.66437  0.32217     H
H      0.70723  0.03827  0.01117     H
H      0.70723  0.66897  0.51117     H
C      0.70997  0.73443  0.99716     C
C      0.70997  0.97553  0.49716     C
Cu     0.71547  0.07904  0.61601    Cu
Cu     0.71547  0.63642  0.11601    Cu
N       0.7202   0.0734  0.25935     N
N       0.7202   0.6468  0.75935     N
C      0.72123  0.73027   0.4733     C
C      0.72123  0.99097   0.9733     C
N       0.7218   0.1289  0.26416     N
N       0.7218   0.5929  0.76416     N
H       0.7276   0.8284   0.6931     H
H       0.7276   0.8992   0.1931     H
C      0.73027  0.00903   0.5267     C
C      0.73027  0.72123   0.0267     C
N      0.73207  0.17833  0.69901     N
N      0.73207  0.55373  0.19901     N
C      0.73443  0.02447  0.00284     C
C      0.73443  0.70997  0.50284     C
C      0.73487  0.80953  0.94933     C
C      0.73487  0.92533  0.44933     C
N       0.7356   0.8153    0.843     N
N       0.7356   0.9203    0.343     N
O      0.73933  0.18727  0.76745     O
O      0.73933  0.55207  0.26745     O
N      0.74007  0.05353  0.57398     N
N      0.74007  0.68653  0.07398     N
N      0.74043  0.79557  0.43083     N
N      0.74043  0.94487  0.93083     N
C      0.74133  0.14287  0.78267     C
C      0.74133  0.59847  0.28267     C
H      0.74157  0.16853  0.00013     H
H      0.74157  0.57303  0.50013     H
Cu     0.74571   0.0488  0.21732    Cu
Cu     0.74571  0.69691  0.71732    Cu
C      0.74597  0.23553  0.96763     C
C      0.74597  0.51043  0.46763     C
N      0.74637  0.14863  0.67633     N
N      0.74637  0.59773  0.17633     N
N       0.7476   0.7775  0.82399     N
N       0.7476   0.9701  0.32399     N
C      0.75137  0.17513  0.50933     C
C      0.75137  0.57623  0.00933     C
C      0.75327  0.78953  0.98105     C
C      0.75327  0.96373  0.48105     C
H      0.75533  0.10657  0.04717     H
H      0.75533  0.64877  0.54717     H
C       0.7571   0.8418    0.676     C
C       0.7571   0.9153    0.176     C
H       0.7603   0.8352   0.1668     H
H       0.7603   0.9251   0.6668     H
C      0.76393  0.79127  0.46015     C
C      0.76393  0.97267  0.96015     C
C      0.76447  0.25403  0.46763     C
C      0.76447  0.51043  0.96763     C
Cu     0.76632  0.20178  0.23235    Cu
Cu     0.76632  0.56454  0.73235    Cu
C      0.76737  0.21113  0.99363     C
C      0.76737  0.55623  0.49363     C
H      0.76747  0.16173  0.52643     H
H      0.76747  0.60573  0.02643     H
Cu     0.76879  0.86845  0.39902    Cu
Cu     0.76879  0.90035  0.89902    Cu
H      0.77117  0.31143  0.93813     H
H      0.77117  0.45973  0.43813     H
O      0.77293  0.11747  0.77422     O
O      0.77293  0.65547  0.27422     O
H      0.77323  0.08867  0.78617     H
H      0.77323  0.68457  0.28617     H
C       0.7771   0.8778   0.1603     C
C       0.7771   0.8993   0.6603     C
N       0.7775   0.0299  0.17601     N
N       0.7775   0.7476  0.67601     N
O      0.77767  0.32773  0.73547     O
O      0.77767  0.44993  0.23547     O
N       0.7796    0.845  0.86568     N
N       0.7796   0.9346  0.36568     N
O      0.78127  0.85393  0.93411     O
O      0.78127  0.92733  0.43411     O
O      0.78327  0.33893  0.43119     O
O      0.78327  0.44433  0.93119     O
C       0.7834   0.8046  0.66515     C
C       0.7834   0.9788  0.16515     C
C      0.78367  0.29633    0.956     C
C      0.78367  0.48733    0.456     C
O      0.78413  0.10627  0.05912     O
O      0.78413  0.67787  0.55912     O
C      0.78887  0.23263  0.49363     C
C      0.78887  0.55623  0.99363     C
C      0.78953  0.03627  0.01895     C
C      0.78953  0.75327  0.51895     C
H       0.7902    0.305   0.8023     H
H       0.7902   0.4852   0.3023     H
C      0.79127  0.02733  0.53985     C
C      0.79127  0.76393  0.03985     C
H      0.79307  0.35523  0.22853     H
H      0.79307  0.43783  0.72853     H
N      0.79557  0.05513  0.56917     N
N      0.79557  0.74043  0.06917     N
Cu     0.79822  0.23368  0.73235    Cu
Cu     0.79822  0.56454  0.23235    Cu
H      0.79913  0.30927  0.31527     H
H      0.79913  0.48987  0.81527     H
Cl      0.7999      0.0     0.25    Cl
Cl      0.7999   0.7999     0.75    Cl
O       0.8038    0.825  0.36968     O
O       0.8038   0.9788  0.86968     O
C       0.8046   0.0212  0.33485     C
C       0.8046   0.7834  0.83485     C
O       0.8053   0.1401  0.21137     O
O       0.8053   0.6652  0.71137     O
C      0.80567  0.31993  0.45283     C
C      0.80567  0.48573  0.95283     C
O      0.80677  0.13863  0.62196     O
O      0.80677  0.66813  0.12196     O
C      0.80953  0.07467  0.05067     C
C      0.80953  0.73487  0.55067     C
O      0.81273  0.26067  0.26745     O
O      0.81273  0.55207  0.76745     O
N       0.8153   0.0797    0.157     N
N       0.8153   0.7356    0.657     N
C      0.81537  0.83113  0.99383     C
C      0.81537  0.98423  0.49383     C
H      0.81557  0.17223  0.61113     H
H      0.81557  0.64333  0.11113     H
H      0.81853  0.36167  0.36437     H
H      0.81853  0.45687  0.86437     H
C      0.81907  0.34673  0.71383     C
C      0.81907  0.47233  0.21383     C
C      0.82013  0.83557  0.47717     C
C      0.82013  0.98457  0.97717     C
C      0.82067  0.37033  0.21066     C
C      0.82067  0.45033  0.71066     C
N      0.82167  0.26793  0.19901     N
N      0.82167  0.55373  0.69901     N
C       0.8229   0.9022   0.1343     C
C       0.8229   0.9207   0.6343     C
H       0.8232   0.3574   0.8514     H
H       0.8232   0.4658   0.3514     H
C       0.8245   0.8264  0.86129     C
C       0.8245   0.9981  0.36129     C
C      0.82487  0.24863  0.00933     C
C      0.82487  0.57623  0.50933     C
O        0.825   0.0212  0.63032     O
O        0.825   0.8038  0.13032     O
C       0.8264   0.0019  0.13871     C
C       0.8264   0.8245  0.63871     C
H      0.82777  0.18443  0.11113     H
H      0.82777  0.64333  0.61113     H
H       0.8284   0.1008   0.3069     H
H       0.8284   0.7276   0.8069     H
C       0.8311   0.3179   0.8105     C
C       0.8311   0.5132   0.3105     C
C      0.83113  0.01577  0.00617     C
C      0.83113  0.81537  0.50617     C
H      0.83147  0.25843  0.50013     H
H      0.83147  0.57303  0.00013     H
Cu     0.83333  0.16667  0.16667    Cu
Cu     0.83333  0.16667  0.66667    Cu
Cu     0.83333  0.66667  0.16667    Cu
Cu     0.83333  0.66667  0.66667    Cu
H       0.8352   0.0749   0.8332     H
H       0.8352   0.7603   0.3332     H
C      0.83553  0.31757  0.32717     C
C      0.83553  0.51797  0.82717     C
C      0.83557  0.01543  0.52283     C
C      0.83557  0.82013  0.02283     C
H      0.83827  0.23253  0.02643     H
H      0.83827  0.60573  0.52643     H
H       0.8389   0.1489   0.2222     H
H       0.8389     0.69   0.7222     H
C      0.84027  0.33143  0.19462     C
C      0.84027  0.50883  0.69462     C
O      0.84167  0.31213  0.70301     O
O      0.84167  0.52953  0.20301     O
C       0.8418   0.0847    0.324     C
C       0.8418   0.7571    0.824     C
C      0.84217  0.33523  0.97204     C
C      0.84217  0.50693  0.47204     C
H      0.84347  0.86753  0.98193     H
H      0.84347  0.97593  0.48193     H
C      0.84377  0.41263  0.69903     C
C      0.84377  0.43113  0.19903     C
N        0.845   0.0654  0.13432     N
N        0.845   0.7796  0.63432     N
C        0.846    0.883  0.62267     C
C        0.846    0.963  0.12267     C
C      0.84653  0.34877  0.35617     C
C      0.84653  0.49777  0.85617     C
C       0.8476    0.861   0.1195     C
C       0.8476   0.9866   0.6195     C
H      0.84813  0.87647  0.46897     H
H      0.84813  0.97167  0.96897     H
H       0.8511   0.1611   0.7222     H
H       0.8511     0.69   0.2222     H
C       0.8513   0.3491   0.8395     C
C       0.8513   0.5022   0.3395     C
N      0.85137  0.25363  0.17633     N
N      0.85137  0.59773  0.67633     N
O      0.85393  0.07267  0.06589     O
O      0.85393  0.78127  0.56589     O
C      0.85713  0.25867  0.28267     C
C      0.85713  0.59847  0.78267     C
O       0.8599   0.1947  0.71137     O
O       0.8599   0.6652  0.21137     O
C        0.861   0.0134   0.8805     C
C        0.861   0.8476   0.3805     C
O      0.86137  0.19323  0.12196     O
O      0.86137  0.66813  0.62196     O
C      0.86207  0.31213  0.99848     C
C      0.86207  0.54993  0.49848     C
O      0.86287  0.35453  0.46365     O
O      0.86287  0.50833  0.96365     O
Cl     0.86677  0.33333  0.08333    Cl
Cl     0.86677  0.53343  0.58333    Cl
H      0.86753  0.02407  0.01807     H
H      0.86753  0.84347  0.51807     H
Cu     0.86845  0.09965  0.60098    Cu
Cu     0.86845  0.76879  0.10098    Cu
N       0.8711   0.2782  0.76416     N
N       0.8711   0.5929  0.26416     N
H       0.8736   0.8955   0.6048     H
H       0.8736   0.9781   0.1048     H
C       0.8754    0.306  0.79348     C
C       0.8754   0.5694  0.29348     C
H      0.87647  0.02833  0.53103     H
H      0.87647  0.84813  0.03103     H
C      0.87713  0.29707  0.31439     C
C      0.87713  0.58007  0.81439     C
C       0.8778   0.1007   0.8397     C
C       0.8778   0.7771   0.3397     C
O      0.88253  0.22707  0.27422     O
O      0.88253  0.65547  0.77422     O
C        0.883    0.037  0.37733     C
C        0.883    0.846  0.87733     C
C      0.88327  0.35453  0.16818     C
C      0.88327  0.52873  0.66818     C
O       0.8834    0.889  0.40214     O
O       0.8834   0.9944  0.90214     O
O       0.8854    0.406  0.89922     O
O       0.8854   0.4794  0.39922     O
N      0.88707  0.39873  0.96765     N
N      0.88707  0.48833  0.46765     N
O        0.889   0.0056  0.59786     O
O        0.889   0.8834  0.09786     O
N      0.88917  0.30343  0.15732     N
N      0.88917  0.58573  0.65732     N
C      0.88957  0.43403  0.67303     C
C      0.88957  0.45553  0.17303     C
H      0.89343  0.24467  0.54717     H
H      0.89343  0.64877  0.04717     H
O      0.89373  0.21587  0.55912     O
O      0.89373  0.67787  0.05912     O
H       0.8955   0.0219   0.3952     H
H       0.8955   0.8736   0.8952     H
Cu     0.89787  0.43299  0.43432    Cu
Cu     0.89787  0.46489  0.93432    Cu
H       0.8992   0.1716   0.8069     H
H       0.8992   0.7276   0.3069     H
C       0.8993   0.1222   0.3397     C
C       0.8993   0.7771   0.8397     C
Cu     0.90035  0.13155  0.10098    Cu
Cu     0.90035  0.76879  0.60098    Cu
C       0.9022   0.0793   0.8657     C
C       0.9022   0.8229   0.3657     C
C      0.90273  0.36067  0.37319     C
C      0.90273  0.54207  0.87319     C
H      0.90637  0.40823  0.66653     H
H      0.90637  0.49813  0.16653     H
C      0.90957  0.41803  0.15733     C
C      0.90957  0.49153  0.65733     C
H      0.91133  0.22677  0.28617     H
H      0.91133  0.68457  0.78617     H
C       0.9134   0.3696  0.85228     C
C       0.9134   0.5438  0.35228     C
C       0.9153   0.1582    0.824     C
C       0.9153   0.7571    0.324     C
N      0.91907  0.36323  0.00934     N
N      0.91907  0.55583  0.50934     N
N       0.9203   0.1847    0.657     N
N       0.9203   0.7356    0.157     N
C       0.9207   0.0978   0.3657     C
C       0.9207   0.8229   0.8657     C
Cu     0.92096  0.28453  0.11601    Cu
Cu     0.92096  0.63642  0.61601    Cu
H       0.9251   0.1648   0.3332     H
H       0.9251   0.7603   0.8332     H
C      0.92533  0.19047  0.55067     C
C      0.92533  0.73487  0.05067     C
N      0.92623  0.38847  0.40251     N
N      0.92623  0.53777  0.90251     N
N       0.9266   0.2798  0.75935     N
N       0.9266   0.6468  0.25935     N
O      0.92733  0.14607  0.56589     O
O      0.92733  0.78127  0.06589     O
N      0.93107  0.41303  0.99033     N
N      0.93107  0.51803  0.49033     N
C       0.9318    0.408    0.884     C
C       0.9318   0.5238    0.384     C
C      0.93223  0.30887   0.3305     C
C      0.93223  0.62337   0.8305     C
N       0.9346    0.155  0.63432     N
N       0.9346   0.7796  0.13432     N
C       0.9364   0.3243  0.80663     C
C       0.9364   0.6121  0.30663     C
H      0.93907  0.43413  0.14023     H
H      0.93907  0.50493  0.64023     H
N      0.94487  0.20443  0.06917     N
N      0.94487  0.74043  0.56917     N
C      0.94543  0.34237  0.36004     C
C      0.94543  0.60307  0.86004     C
N      0.94647  0.25993  0.07398     N
N      0.94647  0.68653  0.57398     N
Cu      0.9512  0.25429  0.71732    Cu
Cu      0.9512  0.69691  0.21732    Cu
C       0.9567   0.3578  0.83617     C
C       0.9567   0.5989  0.33617     C
H      0.95943  0.29507  0.32217     H
H      0.95943  0.66437  0.82217     H
H      0.96173  0.29277  0.51117     H
H      0.96173  0.66897  0.01117     H
C        0.963    0.117  0.87733     C
C        0.963    0.846  0.37733     C
C      0.96373  0.21047  0.51895     C
C      0.96373  0.75327  0.01895     C
N       0.9667   0.3064  0.78438     N
N       0.9667   0.6603  0.28438     N
Cu     0.96976  0.38213  0.05065    Cu
Cu     0.96976  0.58762  0.55065    Cu
N       0.9701   0.2225  0.67601     N
N       0.9701   0.7476  0.17601     N
H      0.97167  0.12353  0.03103     H
H      0.97167  0.84813  0.53103     H
C      0.97267  0.20873  0.03985     C
C      0.97267  0.76393  0.53985     C
N      0.97307  0.30003  0.04895     N
N      0.97307  0.67303  0.54895     N
C      0.97553  0.26557  0.50284     C
C      0.97553  0.70997  0.00284     C
H      0.97593  0.13247  0.51807     H
H      0.97593  0.84347  0.01807     H
H      0.97667  0.48223  0.05553     H
H      0.97667  0.49443  0.55553     H
H       0.9781   0.1045   0.8952     H
H       0.9781   0.8736   0.3952     H
O       0.9788    0.175  0.13032     O
C       0.9788   0.1954  0.83485     C
C       0.9788   0.7834  0.33485     C
O       0.9788   0.8038  0.63032     O
N      0.98013  0.38687  0.40732     N
N      0.98013  0.59327  0.90732     N
H       0.9821    0.422   0.6195     H
H       0.9821   0.5601   0.1195     H
C      0.98423  0.16887  0.50617     C
C      0.98423  0.81537  0.00617     C
C      0.98457  0.16443  0.02283     C
C      0.98457  0.82013  0.52283     C
C       0.9866    0.139   0.3805     C
C       0.9866   0.8476   0.8805     C
O       0.9888   0.4396  0.89245     O
O       0.9888   0.5492  0.39245     O
C      0.99097  0.26973   0.0267     C
C      0.99097  0.72123   0.5267     C
N      0.99363  0.36027  0.38229     N
N      0.99363  0.63337  0.88229     N
O       0.9944    0.111  0.09786     O
O       0.9944   0.8834  0.59786     O
H       0.9977   0.3716   0.8445     H
H       0.9977   0.6261   0.3445     H
C       0.9981   0.1736  0.63871     C
C       0.9981   0.8245  0.13871     C
O      0.99853  0.47197   0.4553     O
O      0.99853  0.52657   0.9553     O
