data_I
_chemical_name_common  '/home/zhangsd/repos/MofS-CGCNN/ML/data/TSD/clean_cifs/QAVBUL_clean'
_cell_length_a 12.21480
_cell_length_b 16.97000
_cell_length_c 16.97000
_cell_angle_alpha 65.56560
_cell_angle_beta  76.11770
_cell_angle_gamma 103.88200
_space_group_name_H-M_alt      'P 1'


loop_
_space_group_symop_operation_xyz
  'x, y, z' 

loop_
_atom_site_label
_atom_site_fract_x
_atom_site_fract_y
_atom_site_fract_z
_atom_site_type_symbol
Tb         0.0  0.32249  0.32249    Tb
O      0.00274   0.4307   0.1807     O
C      0.01671  0.03342  0.48329     C
C      0.02608  0.88898  0.50404     C
H       0.0642   0.8561   0.4831     H
C      0.07014  0.14028  0.42986     C
C      0.07962  0.57962  0.84076     C
C      0.07987  0.98555  0.45664     C
H       0.0881   0.5211   0.7159     H
C      0.09432  0.55781  0.98555     C
O       0.1046  0.46929  0.31129     O
C      0.12616  0.58607  0.68349     C
C      0.13297  0.63297  0.73406     C
C       0.1371  0.60698  0.88898     C
H       0.1391   0.5745   0.0173     H
H       0.1405   0.6072   0.3391     H
C      0.14107  0.44052  0.37681     C
H       0.1451   0.6811   0.4244     H
C      0.14869  0.57868  0.39611     C
C      0.15186   0.6231  0.44692     C
O      0.15548  0.36201  0.40483     O
H       0.1564   0.0173   0.4082     H
C      0.15719  0.49229  0.42762     C
C      0.16555  0.58177  0.53432     C
C      0.17005  0.45061  0.51356     C
C      0.17267  0.49485  0.56494     C
C      0.17445  0.63312  0.58657     C
H       0.1768   0.3926   0.5358     H
H       0.1796   0.4654   0.6224     H
O      0.18344   0.1807   0.3886     O
C      0.19035  0.73044  0.68349     C
H        0.196    0.763   0.7159     H
H        0.198   0.9122   0.6224     H
O      0.20653  0.36201  0.23316     O
H       0.2081   0.6608   0.8561     H
H       0.2158   0.3926   0.0716     H
C      0.23087  0.73087  0.53826     C
C      0.23898  0.78031  0.58657     C
C      0.26239  0.94021  0.56494     C
H      0.26345  0.76345   0.4731     H
C      0.28056  0.45061  0.03583     C
H       0.2858   0.4654   0.9122     H
H       0.2874   0.0716   0.5358     H
C      0.29945  0.44052  0.18267     C
C      0.30013  0.88391  0.53432     C
C      0.31639  0.03583  0.51356     C
C      0.32218  0.49485  0.94021     C
Tb     0.32249  0.32249  0.35502    Tb
C       0.3351  0.49229  0.08009     C
O      0.36469  0.46929  0.21942     O
C      0.40122  0.92998  0.44692     C
C      0.41519  0.08009  0.42762     C
O      0.41589  0.31129  0.21942     O
C      0.41622  0.58177  0.88391     C
O      0.42796   0.4307   0.3886     O
C      0.42999  0.57868  0.02521     C
H       0.4305   0.8945   0.4244     H
H        0.433   0.5211    0.763     H
H       0.4354   0.5745   0.4082     H
O      0.43969  0.23316  0.40483     O
H       0.4527   0.6608   0.4831     H
C       0.4552  0.02521  0.39611     C
C      0.45867  0.63312  0.78031     C
C      0.45991  0.58607  0.73044     C
C      0.46349  0.55781  0.45664     C
H        0.464   0.8945   0.6811     H
H       0.4667   0.6072   0.0537     H
C      0.46988  0.60698  0.50404     C
C      0.47124   0.6231  0.92998     C
H       0.4796   0.3391   0.0537     H
C      0.48212  0.18267  0.37681     C
C          0.5  0.42986  0.42986     C
C          0.5  0.48329  0.48329     C
C          0.5  0.57962  0.57962     C
C          0.5  0.63297  0.63297     C
C          0.5  0.73087  0.73087     C
H          0.5  0.76345  0.76345     H
C      0.51788  0.37681  0.18267     C
H       0.5204   0.0537   0.3391     H
C      0.52876  0.92998   0.6231     C
C      0.53012  0.50404  0.60698     C
H       0.5333   0.0537   0.6072     H
H        0.536   0.6811   0.8945     H
C      0.53651  0.45664  0.55781     C
C      0.54009  0.73044  0.58607     C
C      0.54133  0.78031  0.63312     C
C       0.5448  0.39611  0.02521     C
H       0.5473   0.4831   0.6608     H
O      0.56031  0.40483  0.23316     O
H       0.5646   0.4082   0.5745     H
H        0.567    0.763   0.5211     H
H       0.5695   0.4244   0.8945     H
C      0.57001  0.02521  0.57868     C
O      0.57204   0.3886   0.4307     O
C      0.58378  0.88391  0.58177     C
O      0.58411  0.21942  0.31129     O
C      0.58481  0.42762  0.08009     C
C      0.59878  0.44692  0.92998     C
O      0.63531  0.21942  0.46929     O
C       0.6649  0.08009  0.49229     C
Tb     0.67751  0.35502  0.32249    Tb
C      0.67782  0.94021  0.49485     C
C      0.68361  0.51356  0.03583     C
C      0.69987  0.53432  0.88391     C
C      0.70055  0.18267  0.44052     C
H       0.7126   0.5358   0.0716     H
H       0.7142   0.9122   0.4654     H
C      0.71944  0.03583  0.45061     C
H      0.73655   0.4731  0.76345     H
C      0.73761  0.56494  0.94021     C
C      0.76102  0.58657  0.78031     C
C      0.76913  0.53826  0.73087     C
H       0.7842   0.0716   0.3926     H
H       0.7919   0.8561   0.6608     H
O      0.79347  0.23316  0.36201     O
H        0.802   0.6224   0.9122     H
H        0.804   0.7159    0.763     H
C      0.80965  0.68349  0.73044     C
O      0.81656   0.3886   0.1807     O
H       0.8204   0.6224   0.4654     H
H       0.8232   0.5358   0.3926     H
C      0.82555  0.58657  0.63312     C
C      0.82733  0.56494  0.49485     C
C      0.82995  0.51356  0.45061     C
C      0.83445  0.53432  0.58177     C
C      0.84281  0.42762  0.49229     C
H       0.8436   0.4082   0.0173     H
O      0.84452  0.40483  0.36201     O
C      0.84814  0.44692   0.6231     C
C      0.85131  0.39611  0.57868     C
H       0.8549   0.4244   0.6811     H
C      0.85893  0.37681  0.44052     C
H       0.8595   0.3391   0.6072     H
H       0.8609   0.0173   0.5745     H
C       0.8629  0.88898  0.60698     C
C      0.86703  0.73406  0.63297     C
C      0.87384  0.68349  0.58607     C
O       0.8954  0.31129  0.46929     O
C      0.90568  0.98555  0.55781     C
H       0.9119   0.7159   0.5211     H
C      0.92013  0.45664  0.98555     C
C      0.92038  0.84076  0.57962     C
C      0.92986  0.42986  0.14028     C
H       0.9358   0.4831   0.8561     H
C      0.97392  0.50404  0.88898     C
C      0.98329  0.48329  0.03342     C
O      0.99726   0.1807   0.4307     O
