data_I
_chemical_name_common  '/home/zhangsd/repos/MofS-CGCNN/ML/data/TSD/clean_cifs/QEFNAQ_clean'
_cell_length_a 15.76000
_cell_length_b 15.76000
_cell_length_c 15.76000
_cell_angle_alpha 90.00000
_cell_angle_beta  90.00000
_cell_angle_gamma 90.00000
_space_group_name_H-M_alt      'P 1'


loop_
_space_group_symop_operation_xyz
  'x, y, z' 

loop_
_atom_site_label
_atom_site_fract_x
_atom_site_fract_y
_atom_site_fract_z
_atom_site_type_symbol
Cu         0.0     0.25     0.75    Cu
Cu         0.0     0.75     0.25    Cu
H        0.003    0.686    0.814     H
H        0.003    0.814    0.686     H
C       0.0573   0.6713   0.8287     C
C       0.0573   0.8287   0.6713     C
H       0.0739   0.5797   0.7423     H
H       0.0739   0.7423   0.5797     H
H       0.0739   0.7577   0.9203     H
H       0.0739   0.9203   0.7577     H
H       0.0797   0.2423   0.9261     H
H       0.0797   0.2577   0.5739     H
H       0.0797   0.5739   0.2577     H
H       0.0797   0.9261   0.2423     H
N       0.0884    0.194   0.6795     N
N       0.0884    0.306   0.8205     N
N       0.0884   0.6795    0.194     N
N       0.0884   0.8205    0.306     N
C       0.1008   0.6086   0.7862     C
C       0.1008   0.7138   0.8914     C
C       0.1008   0.7862   0.6086     C
C       0.1008   0.8914   0.7138     C
O       0.1042   0.1042   0.7908     O
O       0.1042   0.3958   0.7092     O
O       0.1042   0.7092   0.3958     O
O       0.1042   0.7908   0.1042     O
C       0.1086   0.2138   0.6008     C
C       0.1086   0.2862   0.8992     C
C       0.1086   0.6008   0.2138     C
C       0.1086   0.8992   0.2862     C
C       0.1278   0.1278   0.7188     C
C       0.1278   0.3722   0.7812     C
C       0.1278   0.7188   0.1278     C
C       0.1278   0.7812   0.3722     C
C       0.1713   0.1713   0.5573     C
C       0.1713   0.3287   0.9427     C
C       0.1713   0.5573   0.1713     C
C       0.1713   0.9427   0.3287     C
N       0.1795   0.5884    0.806     N
N       0.1795    0.694   0.9116     N
N       0.1795    0.806   0.5884     N
N       0.1795   0.9116    0.694     N
H        0.186    0.186    0.503     H
H        0.186    0.314    0.997     H
H        0.186    0.503    0.186     H
H        0.186    0.997    0.314     H
N        0.194   0.0884   0.6795     N
N        0.194   0.4116   0.8205     N
N        0.194   0.6795   0.0884     N
N        0.194   0.8205   0.4116     N
O       0.2092   0.6042   0.6042     O
O       0.2092   0.8958   0.8958     O
C       0.2138   0.1086   0.6008     C
C       0.2138   0.3914   0.8992     C
C       0.2138   0.6008   0.1086     C
C       0.2138   0.8992   0.3914     C
C       0.2188   0.6278   0.8722     C
C       0.2188   0.8722   0.6278     C
H       0.2423   0.0797   0.9261     H
H       0.2423   0.4203   0.5739     H
H       0.2423   0.5739   0.4203     H
H       0.2423   0.9261   0.0797     H
Cu        0.25      0.0     0.75    Cu
Cu        0.25      0.5     0.75    Cu
Cu        0.25     0.75      0.0    Cu
Cu        0.25     0.75      0.5    Cu
H       0.2577   0.0797   0.5739     H
H       0.2577   0.4203   0.9261     H
H       0.2577   0.5739   0.0797     H
H       0.2577   0.9261   0.4203     H
C       0.2812   0.6278   0.6278     C
C       0.2812   0.8722   0.8722     C
C       0.2862   0.1086   0.8992     C
C       0.2862   0.3914   0.6008     C
C       0.2862   0.6008   0.3914     C
C       0.2862   0.8992   0.1086     C
O       0.2908   0.6042   0.8958     O
O       0.2908   0.8958   0.6042     O
N        0.306   0.0884   0.8205     N
N        0.306   0.4116   0.6795     N
N        0.306   0.6795   0.4116     N
N        0.306   0.8205   0.0884     N
H        0.314    0.186    0.997     H
H        0.314    0.314    0.503     H
H        0.314    0.503    0.314     H
H        0.314    0.997    0.186     H
N       0.3205   0.5884    0.694     N
N       0.3205    0.694   0.5884     N
N       0.3205    0.806   0.9116     N
N       0.3205   0.9116    0.806     N
C       0.3287   0.1713   0.9427     C
C       0.3287   0.3287   0.5573     C
C       0.3287   0.5573   0.3287     C
C       0.3287   0.9427   0.1713     C
C       0.3722   0.1278   0.7812     C
C       0.3722   0.3722   0.7188     C
C       0.3722   0.7188   0.3722     C
C       0.3722   0.7812   0.1278     C
C       0.3914   0.2138   0.8992     C
C       0.3914   0.2862   0.6008     C
C       0.3914   0.6008   0.2862     C
C       0.3914   0.8992   0.2138     C
O       0.3958   0.1042   0.7092     O
O       0.3958   0.3958   0.7908     O
O       0.3958   0.7092   0.1042     O
O       0.3958   0.7908   0.3958     O
C       0.3992   0.6086   0.7138     C
C       0.3992   0.7138   0.6086     C
C       0.3992   0.7862   0.8914     C
C       0.3992   0.8914   0.7862     C
N       0.4116    0.194   0.8205     N
N       0.4116    0.306   0.6795     N
N       0.4116   0.6795    0.306     N
N       0.4116   0.8205    0.194     N
H       0.4203   0.2423   0.5739     H
H       0.4203   0.2577   0.9261     H
H       0.4203   0.5739   0.2423     H
H       0.4203   0.9261   0.2577     H
H       0.4261   0.5797   0.7577     H
H       0.4261   0.7423   0.9203     H
H       0.4261   0.7577   0.5797     H
H       0.4261   0.9203   0.7423     H
C       0.4427   0.6713   0.6713     C
C       0.4427   0.8287   0.8287     C
H        0.497    0.686    0.686     H
H        0.497    0.814    0.814     H
Cu         0.5     0.25     0.75    Cu
Cu         0.5     0.75     0.25    Cu
H        0.503    0.186    0.186     H
H        0.503    0.314    0.314     H
C       0.5573   0.1713   0.1713     C
C       0.5573   0.3287   0.3287     C
H       0.5739   0.0797   0.2577     H
H       0.5739   0.2423   0.4203     H
H       0.5739   0.2577   0.0797     H
H       0.5739   0.4203   0.2423     H
H       0.5797   0.0739   0.7423     H
H       0.5797   0.4261   0.7577     H
H       0.5797   0.7423   0.0739     H
H       0.5797   0.7577   0.4261     H
N       0.5884   0.1795    0.806     N
N       0.5884   0.3205    0.694     N
N       0.5884    0.694   0.3205     N
N       0.5884    0.806   0.1795     N
C       0.6008   0.1086   0.2138     C
C       0.6008   0.2138   0.1086     C
C       0.6008   0.2862   0.3914     C
C       0.6008   0.3914   0.2862     C
O       0.6042   0.2092   0.6042     O
O       0.6042   0.2908   0.8958     O
O       0.6042   0.6042   0.2092     O
O       0.6042   0.8958   0.2908     O
C       0.6086   0.1008   0.7862     C
C       0.6086   0.3992   0.7138     C
C       0.6086   0.7138   0.3992     C
C       0.6086   0.7862   0.1008     C
C       0.6278   0.2188   0.8722     C
C       0.6278   0.2812   0.6278     C
C       0.6278   0.6278   0.2812     C
C       0.6278   0.8722   0.2188     C
C       0.6713   0.0573   0.8287     C
C       0.6713   0.4427   0.6713     C
C       0.6713   0.6713   0.4427     C
C       0.6713   0.8287   0.0573     C
N       0.6795   0.0884    0.194     N
N       0.6795    0.194   0.0884     N
N       0.6795    0.306   0.4116     N
N       0.6795   0.4116    0.306     N
H        0.686    0.003    0.814     H
H        0.686    0.497    0.686     H
H        0.686    0.686    0.497     H
H        0.686    0.814    0.003     H
N        0.694   0.1795   0.9116     N
N        0.694   0.3205   0.5884     N
N        0.694   0.5884   0.3205     N
N        0.694   0.9116   0.1795     N
O       0.7092   0.1042   0.3958     O
O       0.7092   0.3958   0.1042     O
C       0.7138   0.1008   0.8914     C
C       0.7138   0.3992   0.6086     C
C       0.7138   0.6086   0.3992     C
C       0.7138   0.8914   0.1008     C
C       0.7188   0.1278   0.1278     C
C       0.7188   0.3722   0.3722     C
H       0.7423   0.0739   0.5797     H
H       0.7423   0.4261   0.9203     H
H       0.7423   0.5797   0.0739     H
H       0.7423   0.9203   0.4261     H
Cu        0.75      0.0     0.25    Cu
Cu        0.75     0.25      0.0    Cu
Cu        0.75     0.25      0.5    Cu
Cu        0.75      0.5     0.25    Cu
H       0.7577   0.0739   0.9203     H
H       0.7577   0.4261   0.5797     H
H       0.7577   0.5797   0.4261     H
H       0.7577   0.9203   0.0739     H
C       0.7812   0.1278   0.3722     C
C       0.7812   0.3722   0.1278     C
C       0.7862   0.1008   0.6086     C
C       0.7862   0.3992   0.8914     C
C       0.7862   0.6086   0.1008     C
C       0.7862   0.8914   0.3992     C
O       0.7908   0.1042   0.1042     O
O       0.7908   0.3958   0.3958     O
N        0.806   0.1795   0.5884     N
N        0.806   0.3205   0.9116     N
N        0.806   0.5884   0.1795     N
N        0.806   0.9116   0.3205     N
H        0.814    0.003    0.686     H
H        0.814    0.497    0.814     H
H        0.814    0.686    0.003     H
H        0.814    0.814    0.497     H
N       0.8205   0.0884    0.306     N
N       0.8205    0.194   0.4116     N
N       0.8205    0.306   0.0884     N
N       0.8205   0.4116    0.194     N
C       0.8287   0.0573   0.6713     C
C       0.8287   0.4427   0.8287     C
C       0.8287   0.6713   0.0573     C
C       0.8287   0.8287   0.4427     C
C       0.8722   0.2188   0.6278     C
C       0.8722   0.2812   0.8722     C
C       0.8722   0.6278   0.2188     C
C       0.8722   0.8722   0.2812     C
C       0.8914   0.1008   0.7138     C
C       0.8914   0.3992   0.7862     C
C       0.8914   0.7138   0.1008     C
C       0.8914   0.7862   0.3992     C
O       0.8958   0.2092   0.8958     O
O       0.8958   0.2908   0.6042     O
O       0.8958   0.6042   0.2908     O
O       0.8958   0.8958   0.2092     O
C       0.8992   0.1086   0.2862     C
C       0.8992   0.2138   0.3914     C
C       0.8992   0.2862   0.1086     C
C       0.8992   0.3914   0.2138     C
N       0.9116   0.1795    0.694     N
N       0.9116   0.3205    0.806     N
N       0.9116    0.694   0.1795     N
N       0.9116    0.806   0.3205     N
H       0.9203   0.0739   0.7577     H
H       0.9203   0.4261   0.7423     H
H       0.9203   0.7423   0.4261     H
H       0.9203   0.7577   0.0739     H
H       0.9261   0.0797   0.2423     H
H       0.9261   0.2423   0.0797     H
H       0.9261   0.2577   0.4203     H
H       0.9261   0.4203   0.2577     H
C       0.9427   0.1713   0.3287     C
C       0.9427   0.3287   0.1713     C
H        0.997    0.186    0.314     H
H        0.997    0.314    0.186     H
