data_I
_chemical_name_common  '/home/zhangsd/repos/MofS-CGCNN/ML/data/TSD/clean_cifs/QEJYIP_clean'
_cell_length_a 10.77310
_cell_length_b 12.41990
_cell_length_c 13.53260
_cell_angle_alpha 99.09890
_cell_angle_beta  90.00000
_cell_angle_gamma 115.70300
_space_group_name_H-M_alt      'P 1'


loop_
_space_group_symop_operation_xyz
  'x, y, z' 

loop_
_atom_site_label
_atom_site_fract_x
_atom_site_fract_y
_atom_site_fract_z
_atom_site_type_symbol
C       0.0511   0.7096   0.3647     C
Cd     0.06483   0.5939  0.14135    Cd
O       0.0694   0.7706   0.4534     O
O       0.0715   0.4394   0.0033     O
C       0.0887   0.3818   0.6699     C
N       0.1145   0.4466   0.7652     N
C       0.1388   0.3834    0.023     C
O       0.1451    0.298   0.9655     O
O       0.1453   0.7286   0.3082     O
O       0.1529    0.298   0.4655     O
N       0.1945   0.5072   0.1909     N
H       0.1952   0.8866   0.1627     H
C       0.2093   0.4206   0.1247     C
C       0.2113   0.4206   0.6247     C
N       0.2327   0.7584   0.0905     N
C       0.2446   0.3834    0.523     C
C       0.2498    0.519   0.7736     C
C       0.2534   0.8708   0.1181     C
C       0.2692    0.519   0.2736     C
H       0.2767   0.5726   0.3321     H
C       0.2931   0.3818   0.1699     C
H       0.2959   0.5726   0.8321     H
O       0.2988   0.2294   0.0466     O
H       0.3086   0.1134   0.3373     H
N       0.3127   0.5072   0.6909     N
H       0.3131   0.6632    0.013     H
H       0.3207   0.9542   0.3937     H
C       0.3209   0.7414   0.0306     C
N       0.3321   0.4466   0.2652     N
H       0.3348   0.8148   0.4472     H
C       0.3415   0.2904   0.1353     C
H       0.3501   0.6632    0.513     H
C       0.3571   0.9676   0.0845     C
H       0.3665   0.0458   0.1063     H
O       0.3679   0.4394   0.5033     O
C       0.3826   0.1292   0.3819     C
C       0.3895   0.0324   0.4155     C
C        0.409    0.833   0.4925     C
O       0.4167   0.2714   0.1918     O
C       0.4205   0.7414   0.5306     C
C        0.424    0.833   0.9925     C
C       0.4446   0.9498   0.0204     C
Cd     0.47093   0.4061  0.35865    Cd
N       0.4743   0.2416   0.4095     N
H         0.48   0.8148   0.9472     H
C       0.4948   0.0502   0.4796     C
C       0.5052   0.9498   0.5204     C
H         0.52   0.1852   0.0528     H
N       0.5257   0.7584   0.5905     N
Cd     0.52907   0.5939  0.64135    Cd
C       0.5554   0.0502   0.9796     C
C        0.576    0.167   0.0075     C
C       0.5795   0.2586   0.4694     C
O       0.5833   0.7286   0.8082     O
C        0.591    0.167   0.5075     C
C       0.6105   0.9676   0.5845     C
C       0.6174   0.8708   0.6181     C
O       0.6321   0.5606   0.4967     O
H       0.6335   0.9542   0.8937     H
C       0.6429   0.0324   0.9155     C
H       0.6499   0.3368    0.487     H
C       0.6585   0.7096   0.8647     C
H       0.6652   0.1852   0.5528     H
N       0.6679   0.5534   0.7348     N
C       0.6791   0.2586   0.9694     C
H       0.6793   0.0458   0.6063     H
H       0.6869   0.3368    0.987     H
N       0.6873   0.4928   0.3091     N
H       0.6914   0.8866   0.6627     H
O       0.7012   0.7706   0.9534     O
H       0.7041   0.4274   0.1679     H
C       0.7069   0.6182   0.8301     C
H       0.7233   0.4274   0.6679     H
C       0.7308    0.481   0.7264     C
C       0.7466   0.1292   0.8819     C
C       0.7502    0.481   0.2264     C
C       0.7554   0.6166    0.477     C
N       0.7673   0.2416   0.9095     N
C       0.7887   0.5794   0.3753     C
C       0.7907   0.5794   0.8753     C
H       0.8048   0.1134   0.8373     H
N       0.8055   0.4928   0.8091     N
O       0.8471    0.702   0.5345     O
O       0.8547   0.2714   0.6918     O
O       0.8549    0.702   0.0345     O
C       0.8612   0.6166    0.977     C
N       0.8855   0.5534   0.2348     N
C       0.9113   0.6182   0.3301     C
O       0.9285   0.5606   0.9967     O
O       0.9306   0.2294   0.5466     O
Cd     0.93517   0.4061  0.85865    Cd
C       0.9489   0.2904   0.6353     C
