data_I
_chemical_name_common  '/home/zhangsd/repos/MofS-CGCNN/ML/data/TSD/clean_cifs/QEWDON_clean'
_cell_length_a 16.27820
_cell_length_b 16.27820
_cell_length_c 30.49920
_cell_angle_alpha 90.00000
_cell_angle_beta  90.00000
_cell_angle_gamma 90.00000
_space_group_name_H-M_alt      'P 1'


loop_
_space_group_symop_operation_xyz
  'x, y, z' 

loop_
_atom_site_label
_atom_site_fract_x
_atom_site_fract_y
_atom_site_fract_z
_atom_site_type_symbol
C       0.0005   0.6383  0.99735     C
C       0.0005   0.8617  0.49735     C
H       0.0047   0.6067   0.9712     H
H       0.0047   0.8933   0.4712     H
C       0.0058   0.6377  0.61526     C
C       0.0058   0.8623  0.11526     C
C        0.006   0.5394  0.84592     C
C        0.006   0.9606  0.34592     C
C       0.0062   0.5919   0.6539     C
C       0.0062   0.9081   0.1539     C
C       0.0124    0.231  0.42585     C
C       0.0124    0.269  0.92585     C
C        0.016   0.6496  0.07521     C
C        0.016   0.8504  0.57521     C
C       0.0172     0.22  0.88463     C
C       0.0172     0.28  0.38463     C
H       0.0179   0.0965   0.7806     H
H       0.0179   0.4035   0.2806     H
C       0.0184   0.1278  0.80688     C
C       0.0184   0.3722  0.30688     C
H       0.0215   0.6124   0.5885     H
H       0.0215   0.8876   0.0885     H
C       0.0224   0.6045  0.03725     C
C       0.0224   0.8955  0.53725     C
O      0.02438   0.0563  0.69043     O
O      0.02438   0.4437  0.19043     O
C       0.0281   0.2193  0.50433     C
C       0.0281   0.2807  0.00433     C
O       0.0286   0.0477  0.61728     O
O       0.0286   0.4523  0.11728     O
H       0.0311   0.6255   0.1024     H
H       0.0311   0.8745   0.6024     H
C       0.0336   0.2353  0.96586     C
C       0.0336   0.2647  0.46586     C
C       0.0394    0.506  0.65408     C
C       0.0394    0.994  0.15408     C
H        0.042   0.5496   0.0385     H
H        0.042   0.9504   0.5385     H
C       0.0425   0.2456  0.34526     C
C       0.0425   0.2544  0.84526     C
C       0.0436   0.2086  0.80605     C
C       0.0436   0.2914  0.30605     C
O       0.0477   0.0286  0.11728     O
O       0.0477   0.4714  0.61728     O
H       0.0496    0.542   0.4615     H
H       0.0496    0.958   0.9615     H
H       0.0522   0.1801   0.9671     H
H       0.0522   0.3199   0.4671     H
C        0.054   0.2435   0.0466     C
C        0.054   0.2565   0.5466     C
O       0.0563  0.02438  0.19043     O
O       0.0563  0.47562  0.69043     O
O       0.0585   0.1732  0.26293     O
O       0.0585   0.3268  0.76293     O
H       0.0594   0.1897   0.3447     H
H       0.0594   0.3103   0.8447     H
O       0.0611   0.1663  0.04762     O
O       0.0611   0.3337  0.54762     O
C       0.0668   0.2489  0.76416     C
C       0.0668   0.2511  0.26416     C
O        0.067   0.2141  0.57984     O
O        0.067   0.2859  0.07984     O
Zn     0.09004  0.13883  0.20387    Zn
Zn     0.09004  0.36117  0.70387    Zn
O       0.0902   0.2084  0.73184     O
O       0.0902   0.2916  0.23184     O
C       0.0919   0.5062   0.8461     C
C       0.0919   0.9938   0.3461     C
H       0.0965   0.0179   0.2806     H
H       0.0965   0.4821   0.7806     H
C       0.1045   0.5224  0.46275     C
C       0.1045   0.9776  0.96275     C
H       0.1067   0.5047   0.5288     H
H       0.1067   0.9953   0.0288     H
H       0.1124   0.5215   0.9115     H
H       0.1124   0.9785   0.4115     H
Zn       0.114  0.12468   0.1003    Zn
Zn       0.114  0.37532   0.6003    Zn
Zn     0.12468    0.114   0.6003    Zn
Zn     0.12468    0.386   0.1003    Zn
H       0.1255   0.5311   0.3976     H
H       0.1255   0.9689   0.8976     H
C       0.1278   0.0184  0.30688     C
C       0.1278   0.4816  0.80688     C
C       0.1377   0.5058  0.88474     C
C       0.1377   0.9942  0.38474     C
C       0.1383   0.5005  0.50265     C
C       0.1383   0.9995  0.00265     C
Zn     0.13883  0.09004  0.70387    Zn
Zn     0.13883  0.40996  0.20387    Zn
O       0.1494  0.17742  0.15299     O
O       0.1494  0.32258  0.65299     O
C       0.1496    0.516  0.42479     C
C       0.1496    0.984  0.92479     C
H        0.151   0.2286   0.1566     H
H        0.151   0.2714   0.6566     H
O       0.1663   0.0611  0.54762     O
O       0.1663   0.4389  0.04762     O
O       0.1732   0.0585  0.76293     O
O       0.1732   0.4415  0.26293     O
O      0.17742   0.1494  0.65299     O
O      0.17742   0.3506  0.15299     O
H       0.1801   0.0522   0.4671     H
H       0.1801   0.4478   0.9671     H
H       0.1897   0.0594   0.8447     H
H       0.1897   0.4406   0.3447     H
O       0.2084   0.0902  0.23184     O
O       0.2084   0.4098  0.73184     O
C       0.2086   0.0436  0.30605     C
C       0.2086   0.4564  0.80605     C
O       0.2141    0.067  0.07984     O
O       0.2141    0.433  0.57984     O
C       0.2193   0.0281  0.00433     C
C       0.2193   0.4719  0.50433     C
C         0.22   0.0172  0.38463     C
C         0.22   0.4828  0.88463     C
H       0.2286    0.151   0.6566     H
H       0.2286    0.349   0.1566     H
C        0.231   0.0124  0.92585     C
C        0.231   0.4876  0.42585     C
C       0.2353   0.0336  0.46586     C
C       0.2353   0.4664  0.96586     C
C       0.2435    0.054   0.5466     C
C       0.2435    0.446   0.0466     C
C       0.2456   0.0425  0.84526     C
C       0.2456   0.4575  0.34526     C
C       0.2489   0.0668  0.26416     C
C       0.2489   0.4332  0.76416     C
C       0.2511   0.0668  0.76416     C
C       0.2511   0.4332  0.26416     C
C       0.2544   0.0425  0.34526     C
C       0.2544   0.4575  0.84526     C
C       0.2565    0.054   0.0466     C
C       0.2565    0.446   0.5466     C
C       0.2647   0.0336  0.96586     C
C       0.2647   0.4664  0.46586     C
C        0.269   0.0124  0.42585     C
C        0.269   0.4876  0.92585     C
H       0.2714    0.151   0.1566     H
H       0.2714    0.349   0.6566     H
C         0.28   0.0172  0.88463     C
C         0.28   0.4828  0.38463     C
C       0.2807   0.0281  0.50433     C
C       0.2807   0.4719  0.00433     C
O       0.2859    0.067  0.57984     O
O       0.2859    0.433  0.07984     O
C       0.2914   0.0436  0.80605     C
C       0.2914   0.4564  0.30605     C
O       0.2916   0.0902  0.73184     O
O       0.2916   0.4098  0.23184     O
H       0.3103   0.0594   0.3447     H
H       0.3103   0.4406   0.8447     H
H       0.3199   0.0522   0.9671     H
H       0.3199   0.4478   0.4671     H
O      0.32258   0.1494  0.15299     O
O      0.32258   0.3506  0.65299     O
O       0.3268   0.0585  0.26293     O
O       0.3268   0.4415  0.76293     O
O       0.3337   0.0611  0.04762     O
O       0.3337   0.4389  0.54762     O
H        0.349   0.2286   0.6566     H
H        0.349   0.2714   0.1566     H
C       0.3504    0.516  0.92479     C
C       0.3504    0.984  0.42479     C
O       0.3506  0.17742  0.65299     O
O       0.3506  0.32258  0.15299     O
Zn     0.36117  0.09004  0.20387    Zn
Zn     0.36117  0.40996  0.70387    Zn
C       0.3617   0.5005  0.00265     C
C       0.3617   0.9995  0.50265     C
C       0.3623   0.5058  0.38474     C
C       0.3623   0.9942  0.88474     C
C       0.3722   0.0184  0.80688     C
C       0.3722   0.4816  0.30688     C
H       0.3745   0.5311   0.8976     H
H       0.3745   0.9689   0.3976     H
Zn     0.37532    0.114   0.1003    Zn
Zn     0.37532    0.386   0.6003    Zn
Zn       0.386  0.12468   0.6003    Zn
Zn       0.386  0.37532   0.1003    Zn
H       0.3876   0.5215   0.4115     H
H       0.3876   0.9785   0.9115     H
H       0.3933   0.5047   0.0288     H
H       0.3933   0.9953   0.5288     H
C       0.3955   0.5224  0.96275     C
C       0.3955   0.9776  0.46275     C
H       0.4035   0.0179   0.7806     H
H       0.4035   0.4821   0.2806     H
C       0.4081   0.5062   0.3461     C
C       0.4081   0.9938   0.8461     C
O       0.4098   0.2084  0.23184     O
O       0.4098   0.2916  0.73184     O
Zn     0.40996  0.13883  0.70387    Zn
Zn     0.40996  0.36117  0.20387    Zn
O        0.433   0.2141  0.07984     O
O        0.433   0.2859  0.57984     O
C       0.4332   0.2489  0.26416     C
C       0.4332   0.2511  0.76416     C
O       0.4389   0.1663  0.54762     O
O       0.4389   0.3337  0.04762     O
H       0.4406   0.1897   0.8447     H
H       0.4406   0.3103   0.3447     H
O       0.4415   0.1732  0.76293     O
O       0.4415   0.3268  0.26293     O
O       0.4437  0.02438  0.69043     O
O       0.4437  0.47562  0.19043     O
C        0.446   0.2435   0.5466     C
C        0.446   0.2565   0.0466     C
H       0.4478   0.1801   0.4671     H
H       0.4478   0.3199   0.9671     H
H       0.4504    0.542   0.9615     H
H       0.4504    0.958   0.4615     H
O       0.4523   0.0286  0.61728     O
O       0.4523   0.4714  0.11728     O
C       0.4564   0.2086  0.30605     C
C       0.4564   0.2914  0.80605     C
C       0.4575   0.2456  0.84526     C
C       0.4575   0.2544  0.34526     C
H        0.458   0.5496   0.5385     H
H        0.458   0.9504   0.0385     H
C       0.4606    0.506  0.15408     C
C       0.4606    0.994  0.65408     C
C       0.4664   0.2353  0.46586     C
C       0.4664   0.2647  0.96586     C
H       0.4689   0.6255   0.6024     H
H       0.4689   0.8745   0.1024     H
O       0.4714   0.0477  0.11728     O
O       0.4714   0.4523  0.61728     O
C       0.4719   0.2193  0.00433     C
C       0.4719   0.2807  0.50433     C
O      0.47562   0.0563  0.19043     O
O      0.47562   0.4437  0.69043     O
C       0.4776   0.6045  0.53725     C
C       0.4776   0.8955  0.03725     C
H       0.4785   0.6124   0.0885     H
H       0.4785   0.8876   0.5885     H
C       0.4816   0.1278  0.30688     C
C       0.4816   0.3722  0.80688     C
H       0.4821   0.0965   0.2806     H
H       0.4821   0.4035   0.7806     H
C       0.4828     0.22  0.38463     C
C       0.4828     0.28  0.88463     C
C        0.484   0.6496  0.57521     C
C        0.484   0.8504  0.07521     C
C       0.4876    0.231  0.92585     C
C       0.4876    0.269  0.42585     C
C       0.4938   0.5919   0.1539     C
C       0.4938   0.9081   0.6539     C
C        0.494   0.5394  0.34592     C
C        0.494   0.9606  0.84592     C
C       0.4942   0.6377  0.11526     C
C       0.4942   0.8623  0.61526     C
H       0.4953   0.6067   0.4712     H
H       0.4953   0.8933   0.9712     H
C       0.4995   0.6383  0.49735     C
C       0.4995   0.8617  0.99735     C
C       0.5005   0.1383  0.00265     C
C       0.5005   0.3617  0.50265     C
H       0.5047   0.1067   0.0288     H
H       0.5047   0.3933   0.5288     H
C       0.5058   0.1377  0.38474     C
C       0.5058   0.3623  0.88474     C
C        0.506   0.0394  0.15408     C
C        0.506   0.4606  0.65408     C
C       0.5062   0.0919   0.3461     C
C       0.5062   0.4081   0.8461     C
C       0.5124    0.731  0.57415     C
C       0.5124    0.769  0.07415     C
C        0.516   0.1496  0.92479     C
C        0.516   0.3504  0.42479     C
C       0.5172     0.72  0.11537     C
C       0.5172     0.78  0.61537     C
H       0.5179   0.5965   0.2194     H
H       0.5179   0.9035   0.7194     H
C       0.5184   0.6278  0.19312     C
C       0.5184   0.8722  0.69312     C
H       0.5215   0.1124   0.4115     H
H       0.5215   0.3876   0.9115     H
C       0.5224   0.1045  0.96275     C
C       0.5224   0.3955  0.46275     C
O      0.52438   0.5563  0.30957     O
O      0.52438   0.9437  0.80957     O
C       0.5281   0.7193  0.49567     C
C       0.5281   0.7807  0.99567     C
O       0.5286   0.5477  0.38272     O
O       0.5286   0.9523  0.88272     O
H       0.5311   0.1255   0.8976     H
H       0.5311   0.3745   0.3976     H
C       0.5336   0.7353  0.03414     C
C       0.5336   0.7647  0.53414     C
C       0.5394    0.006  0.34592     C
C       0.5394    0.494  0.84592     C
H        0.542   0.0496   0.9615     H
H        0.542   0.4504   0.4615     H
C       0.5425   0.7456  0.65474     C
C       0.5425   0.7544  0.15474     C
C       0.5436   0.7086  0.19395     C
C       0.5436   0.7914  0.69395     C
O       0.5477   0.5286  0.88272     O
O       0.5477   0.9714  0.38272     O
H       0.5496    0.042   0.5385     H
H       0.5496    0.458   0.0385     H
H       0.5522   0.6801   0.0329     H
H       0.5522   0.8199   0.5329     H
C        0.554   0.7435   0.9534     C
C        0.554   0.7565   0.4534     C
O       0.5563  0.52438  0.80957     O
O       0.5563  0.97562  0.30957     O
O       0.5585   0.6732  0.73707     O
O       0.5585   0.8268  0.23707     O
H       0.5594   0.6897   0.6553     H
H       0.5594   0.8103   0.1553     H
O       0.5611   0.6663  0.95238     O
O       0.5611   0.8337  0.45238     O
C       0.5668   0.7489  0.23584     C
C       0.5668   0.7511  0.73584     C
O        0.567   0.7141  0.42016     O
O        0.567   0.7859  0.92016     O
Zn     0.59004  0.63883  0.79613    Zn
Zn     0.59004  0.86117  0.29613    Zn
O       0.5902   0.7084  0.26816     O
O       0.5902   0.7916  0.76816     O
C       0.5919   0.0062   0.1539     C
C       0.5919   0.4938   0.6539     C
H       0.5965   0.5179   0.7194     H
H       0.5965   0.9821   0.2194     H
C       0.6045   0.0224  0.53725     C
C       0.6045   0.4776  0.03725     C
H       0.6067   0.0047   0.4712     H
H       0.6067   0.4953   0.9712     H
H       0.6124   0.0215   0.0885     H
H       0.6124   0.4785   0.5885     H
Zn       0.614  0.62468   0.8997    Zn
Zn       0.614  0.87532   0.3997    Zn
Zn     0.62468    0.614   0.3997    Zn
Zn     0.62468    0.886   0.8997    Zn
H       0.6255   0.0311   0.6024     H
H       0.6255   0.4689   0.1024     H
C       0.6278   0.5184  0.69312     C
C       0.6278   0.9816  0.19312     C
C       0.6377   0.0058  0.11526     C
C       0.6377   0.4942  0.61526     C
C       0.6383   0.0005  0.49735     C
C       0.6383   0.4995  0.99735     C
Zn     0.63883  0.59004  0.29613    Zn
Zn     0.63883  0.90996  0.79613    Zn
O       0.6494  0.67742  0.84701     O
O       0.6494  0.82258  0.34701     O
C       0.6496    0.016  0.57521     C
C       0.6496    0.484  0.07521     C
H        0.651   0.7286   0.8434     H
H        0.651   0.7714   0.3434     H
O       0.6663   0.5611  0.45238     O
O       0.6663   0.9389  0.95238     O
O       0.6732   0.5585  0.23707     O
O       0.6732   0.9415  0.73707     O
O      0.67742   0.6494  0.34701     O
O      0.67742   0.8506  0.84701     O
H       0.6801   0.5522   0.5329     H
H       0.6801   0.9478   0.0329     H
H       0.6897   0.5594   0.1553     H
H       0.6897   0.9406   0.6553     H
O       0.7084   0.5902  0.76816     O
O       0.7084   0.9098  0.26816     O
C       0.7086   0.5436  0.69395     C
C       0.7086   0.9564  0.19395     C
O       0.7141    0.567  0.92016     O
O       0.7141    0.933  0.42016     O
C       0.7193   0.5281  0.99567     C
C       0.7193   0.9719  0.49567     C
C         0.72   0.5172  0.61537     C
C         0.72   0.9828  0.11537     C
H       0.7286    0.651   0.3434     H
H       0.7286    0.849   0.8434     H
C        0.731   0.5124  0.07415     C
C        0.731   0.9876  0.57415     C
C       0.7353   0.5336  0.53414     C
C       0.7353   0.9664  0.03414     C
C       0.7435    0.554   0.4534     C
C       0.7435    0.946   0.9534     C
C       0.7456   0.5425  0.15474     C
C       0.7456   0.9575  0.65474     C
C       0.7489   0.5668  0.73584     C
C       0.7489   0.9332  0.23584     C
C       0.7511   0.5668  0.23584     C
C       0.7511   0.9332  0.73584     C
C       0.7544   0.5425  0.65474     C
C       0.7544   0.9575  0.15474     C
C       0.7565    0.554   0.9534     C
C       0.7565    0.946   0.4534     C
C       0.7647   0.5336  0.03414     C
C       0.7647   0.9664  0.53414     C
C        0.769   0.5124  0.57415     C
C        0.769   0.9876  0.07415     C
H       0.7714    0.651   0.8434     H
H       0.7714    0.849   0.3434     H
C         0.78   0.5172  0.11537     C
C         0.78   0.9828  0.61537     C
C       0.7807   0.5281  0.49567     C
C       0.7807   0.9719  0.99567     C
O       0.7859    0.567  0.42016     O
O       0.7859    0.933  0.92016     O
C       0.7914   0.5436  0.19395     C
C       0.7914   0.9564  0.69395     C
O       0.7916   0.5902  0.26816     O
O       0.7916   0.9098  0.76816     O
H       0.8103   0.5594   0.6553     H
H       0.8103   0.9406   0.1553     H
H       0.8199   0.5522   0.0329     H
H       0.8199   0.9478   0.5329     H
O      0.82258   0.6494  0.84701     O
O      0.82258   0.8506  0.34701     O
O       0.8268   0.5585  0.73707     O
O       0.8268   0.9415  0.23707     O
O       0.8337   0.5611  0.95238     O
O       0.8337   0.9389  0.45238     O
H        0.849   0.7286   0.3434     H
H        0.849   0.7714   0.8434     H
C       0.8504    0.016  0.07521     C
C       0.8504    0.484  0.57521     C
O       0.8506  0.67742  0.34701     O
O       0.8506  0.82258  0.84701     O
Zn     0.86117  0.59004  0.79613    Zn
Zn     0.86117  0.90996  0.29613    Zn
C       0.8617   0.0005  0.99735     C
C       0.8617   0.4995  0.49735     C
C       0.8623   0.0058  0.61526     C
C       0.8623   0.4942  0.11526     C
C       0.8722   0.5184  0.19312     C
C       0.8722   0.9816  0.69312     C
H       0.8745   0.0311   0.1024     H
H       0.8745   0.4689   0.6024     H
Zn     0.87532    0.614   0.8997    Zn
Zn     0.87532    0.886   0.3997    Zn
Zn       0.886  0.62468   0.3997    Zn
Zn       0.886  0.87532   0.8997    Zn
H       0.8876   0.0215   0.5885     H
H       0.8876   0.4785   0.0885     H
H       0.8933   0.0047   0.9712     H
H       0.8933   0.4953   0.4712     H
C       0.8955   0.0224  0.03725     C
C       0.8955   0.4776  0.53725     C
H       0.9035   0.5179   0.2194     H
H       0.9035   0.9821   0.7194     H
C       0.9081   0.0062   0.6539     C
C       0.9081   0.4938   0.1539     C
O       0.9098   0.7084  0.76816     O
O       0.9098   0.7916  0.26816     O
Zn     0.90996  0.63883  0.29613    Zn
Zn     0.90996  0.86117  0.79613    Zn
O        0.933   0.7141  0.92016     O
O        0.933   0.7859  0.42016     O
C       0.9332   0.7489  0.73584     C
C       0.9332   0.7511  0.23584     C
O       0.9389   0.6663  0.45238     O
O       0.9389   0.8337  0.95238     O
H       0.9406   0.6897   0.1553     H
H       0.9406   0.8103   0.6553     H
O       0.9415   0.6732  0.23707     O
O       0.9415   0.8268  0.73707     O
O       0.9437  0.52438  0.30957     O
O       0.9437  0.97562  0.80957     O
C        0.946   0.7435   0.4534     C
C        0.946   0.7565   0.9534     C
H       0.9478   0.6801   0.5329     H
H       0.9478   0.8199   0.0329     H
H       0.9504    0.042   0.0385     H
H       0.9504    0.458   0.5385     H
O       0.9523   0.5286  0.38272     O
O       0.9523   0.9714  0.88272     O
C       0.9564   0.7086  0.69395     C
C       0.9564   0.7914  0.19395     C
C       0.9575   0.7456  0.15474     C
C       0.9575   0.7544  0.65474     C
H        0.958   0.0496   0.4615     H
H        0.958   0.4504   0.9615     H
C       0.9606    0.006  0.84592     C
C       0.9606    0.494  0.34592     C
C       0.9664   0.7353  0.53414     C
C       0.9664   0.7647  0.03414     C
H       0.9689   0.1255   0.3976     H
H       0.9689   0.3745   0.8976     H
O       0.9714   0.5477  0.88272     O
O       0.9714   0.9523  0.38272     O
C       0.9719   0.7193  0.99567     C
C       0.9719   0.7807  0.49567     C
O      0.97562   0.5563  0.80957     O
O      0.97562   0.9437  0.30957     O
C       0.9776   0.1045  0.46275     C
C       0.9776   0.3955  0.96275     C
H       0.9785   0.1124   0.9115     H
H       0.9785   0.3876   0.4115     H
C       0.9816   0.6278  0.69312     C
C       0.9816   0.8722  0.19312     C
H       0.9821   0.5965   0.7194     H
H       0.9821   0.9035   0.2194     H
C       0.9828     0.72  0.61537     C
C       0.9828     0.78  0.11537     C
C        0.984   0.1496  0.42479     C
C        0.984   0.3504  0.92479     C
C       0.9876    0.731  0.07415     C
C       0.9876    0.769  0.57415     C
C       0.9938   0.0919   0.8461     C
C       0.9938   0.4081   0.3461     C
C        0.994   0.0394  0.65408     C
C        0.994   0.4606  0.15408     C
C       0.9942   0.1377  0.88474     C
C       0.9942   0.3623  0.38474     C
H       0.9953   0.1067   0.5288     H
H       0.9953   0.3933   0.0288     H
C       0.9995   0.1383  0.50265     C
C       0.9995   0.3617  0.00265     C
