data_I
_chemical_name_common  '/home/zhangsd/repos/MofS-CGCNN/ML/data/TSD/clean_cifs/QEYWUN_clean'
_cell_length_a 10.09360
_cell_length_b 12.51080
_cell_length_c 15.17210
_cell_angle_alpha 90.00000
_cell_angle_beta  90.00000
_cell_angle_gamma 90.00000
_space_group_name_H-M_alt      'P 1'


loop_
_space_group_symop_operation_xyz
  'x, y, z' 

loop_
_atom_site_label
_atom_site_fract_x
_atom_site_fract_y
_atom_site_fract_z
_atom_site_type_symbol
Cd         0.0      0.0      0.5    Cd
Cd         0.0      0.5      0.0    Cd
N       0.0123   0.6882    0.031     N
N       0.0123   0.8118    0.531     N
C       0.0161    0.524   0.7811     C
C       0.0161    0.976   0.2811     C
H       0.0187    0.002   0.1126     H
H       0.0187    0.498   0.6126     H
N       0.0411  0.65044  0.57968     N
N       0.0411  0.84956  0.07968     N
N       0.0513   0.1412  0.98536     N
N       0.0513   0.3588  0.48536     N
H       0.0558   0.5208   0.2292     H
H       0.0558   0.9792   0.7292     H
N       0.0608    0.551  0.85944     N
N       0.0608    0.949  0.35944     N
C       0.0641   0.2399   0.0124     C
C       0.0641   0.2601   0.5124     C
C       0.0763   0.7489   0.0884     C
C       0.0763   0.7511   0.5884     C
C       0.0848   0.5535  0.62448     C
C       0.0848   0.9465  0.12448     C
N       0.0885  0.56983  0.71923     N
N       0.0885  0.93017  0.21923     N
H       0.1211   0.2407   0.5579     H
H       0.1211   0.2593   0.0579     H
H       0.1375   0.7238   0.1293     H
H       0.1375   0.7762   0.6293     H
C        0.165   0.6161   0.8406     C
C        0.165   0.8839   0.3406     C
N       0.1874   0.6288  0.75654     N
N       0.1874   0.8712  0.25654     N
H       0.2159   0.6489    0.884     H
H       0.2159   0.8511    0.384     H
C        0.221   0.5096   0.5945     C
C        0.221   0.9904   0.0945     C
O       0.2224  0.05289  0.53088     O
O       0.2224  0.44711  0.03088     O
O       0.2407  0.56712  0.13873     O
O       0.2407  0.93288  0.63873     O
O       0.2593  0.06712  0.13873     O
O       0.2593  0.43288  0.63873     O
O       0.2776  0.55289  0.53088     O
O       0.2776  0.94711  0.03088     O
C        0.279   0.0096   0.5945     C
C        0.279   0.4904   0.0945     C
H       0.2841   0.1489    0.884     H
H       0.2841   0.3511    0.384     H
N       0.3126   0.1288  0.75654     N
N       0.3126   0.3712  0.25654     N
C        0.335   0.1161   0.8406     C
C        0.335   0.3839   0.3406     C
H       0.3625   0.2238   0.1293     H
H       0.3625   0.2762   0.6293     H
H       0.3789   0.7407   0.5579     H
H       0.3789   0.7593   0.0579     H
N       0.4115  0.06983  0.71923     N
N       0.4115  0.43017  0.21923     N
C       0.4152   0.0535  0.62448     C
C       0.4152   0.4465  0.12448     C
C       0.4237   0.2489   0.0884     C
C       0.4237   0.2511   0.5884     C
C       0.4359   0.7399   0.0124     C
C       0.4359   0.7601   0.5124     C
N       0.4392    0.051  0.85944     N
N       0.4392    0.449  0.35944     N
H       0.4442   0.0208   0.2292     H
H       0.4442   0.4792   0.7292     H
N       0.4487   0.6412  0.98536     N
N       0.4487   0.8588  0.48536     N
N       0.4589  0.15044  0.57968     N
N       0.4589  0.34956  0.07968     N
H       0.4813    0.502   0.1126     H
H       0.4813    0.998   0.6126     H
C       0.4839    0.024   0.7811     C
C       0.4839    0.476   0.2811     C
N       0.4877   0.1882    0.031     N
N       0.4877   0.3118    0.531     N
Cd         0.5      0.0      0.0    Cd
Cd         0.5      0.5      0.5    Cd
N       0.5123   0.6882    0.469     N
N       0.5123   0.8118    0.969     N
C       0.5161    0.524   0.7189     C
C       0.5161    0.976   0.2189     C
H       0.5187    0.002   0.3874     H
H       0.5187    0.498   0.8874     H
N       0.5411  0.65044  0.92032     N
N       0.5411  0.84956  0.42032     N
N       0.5513   0.1412  0.51464     N
N       0.5513   0.3588  0.01464     N
H       0.5558   0.5208   0.2708     H
H       0.5558   0.9792   0.7708     H
N       0.5608    0.551  0.64056     N
N       0.5608    0.949  0.14056     N
C       0.5641   0.2399   0.4876     C
C       0.5641   0.2601   0.9876     C
C       0.5763   0.7489   0.4116     C
C       0.5763   0.7511   0.9116     C
C       0.5848   0.5535  0.87552     C
C       0.5848   0.9465  0.37552     C
N       0.5885  0.56983  0.78077     N
N       0.5885  0.93017  0.28077     N
H       0.6211   0.2407   0.9421     H
H       0.6211   0.2593   0.4421     H
H       0.6375   0.7238   0.3707     H
H       0.6375   0.7762   0.8707     H
C        0.665   0.6161   0.6594     C
C        0.665   0.8839   0.1594     C
N       0.6874   0.6288  0.74346     N
N       0.6874   0.8712  0.24346     N
H       0.7159   0.6489    0.616     H
H       0.7159   0.8511    0.116     H
C        0.721   0.5096   0.9055     C
C        0.721   0.9904   0.4055     C
O       0.7224  0.05289  0.96912     O
O       0.7224  0.44711  0.46912     O
O       0.7407  0.56712  0.36127     O
O       0.7407  0.93288  0.86127     O
O       0.7593  0.06712  0.36127     O
O       0.7593  0.43288  0.86127     O
O       0.7776  0.55289  0.96912     O
O       0.7776  0.94711  0.46912     O
C        0.779   0.0096   0.9055     C
C        0.779   0.4904   0.4055     C
H       0.7841   0.1489    0.616     H
H       0.7841   0.3511    0.116     H
N       0.8126   0.1288  0.74346     N
N       0.8126   0.3712  0.24346     N
C        0.835   0.1161   0.6594     C
C        0.835   0.3839   0.1594     C
H       0.8625   0.2238   0.3707     H
H       0.8625   0.2762   0.8707     H
H       0.8789   0.7407   0.9421     H
H       0.8789   0.7593   0.4421     H
N       0.9115  0.06983  0.78077     N
N       0.9115  0.43017  0.28077     N
C       0.9152   0.0535  0.87552     C
C       0.9152   0.4465  0.37552     C
C       0.9237   0.2489   0.4116     C
C       0.9237   0.2511   0.9116     C
C       0.9359   0.7399   0.4876     C
C       0.9359   0.7601   0.9876     C
N       0.9392    0.051  0.64056     N
N       0.9392    0.449  0.14056     N
H       0.9442   0.0208   0.2708     H
H       0.9442   0.4792   0.7708     H
N       0.9487   0.6412  0.51464     N
N       0.9487   0.8588  0.01464     N
N       0.9589  0.15044  0.92032     N
N       0.9589  0.34956  0.42032     N
H       0.9813    0.502   0.3874     H
H       0.9813    0.998   0.8874     H
C       0.9839    0.024   0.7189     C
C       0.9839    0.476   0.2189     C
N       0.9877   0.1882    0.469     N
N       0.9877   0.3118    0.969     N
