data_I
_chemical_name_common  '/home/zhangsd/repos/MofS-CGCNN/ML/data/TSD/clean_cifs/QIHXIQ_clean'
_cell_length_a 12.88000
_cell_length_b 16.86100
_cell_length_c 17.32500
_cell_angle_alpha 75.74000
_cell_angle_beta  73.26000
_cell_angle_gamma 68.59000
_space_group_name_H-M_alt      'P 1'


loop_
_space_group_symop_operation_xyz
  'x, y, z' 

loop_
_atom_site_label
_atom_site_fract_x
_atom_site_fract_y
_atom_site_fract_z
_atom_site_type_symbol
C      0.00369    0.632  0.87805     C
H       0.0082   0.5054   0.2213     H
H       0.0083    0.567   0.9937     H
H         0.01   0.8326   0.2373     H
C       0.0102   0.8624  0.11583     C
H        0.025   0.4166   0.2838     H
H       0.0339   0.6961   0.7619     H
H       0.0352   0.0102   0.8024     H
H       0.0378   0.8672   0.9931     H
C       0.0451   0.8127   0.1863     C
C        0.051   0.5924  0.94602     C
C       0.0617  0.83323  0.04126     C
C       0.0646   0.4534   0.2424     C
C       0.0662    0.669  0.80832     C
C       0.0872  0.05403   0.8798     C
C        0.092   0.9962   0.8328     C
H       0.1119   0.4699    0.267     H
C        0.113   0.3685   0.1209     C
C       0.1315   0.7338   0.1822     C
C       0.1406    0.404   0.1724     C
C       0.1481   0.7544  0.03716     C
H       0.1554   0.6999   0.2304     H
C       0.1607   0.5898  0.94425     C
H        0.167   0.0731   0.9563     H
C       0.1703   0.0336   0.9242     C
C       0.1759   0.6664  0.80656     C
C       0.1799  0.91803   0.8303     C
C        0.183  0.70467  0.10763     C
H       0.1832   0.8785   0.7982     H
H       0.1833   0.7344   0.9862     H
H        0.193   0.5627   0.9907     H
H       0.1969   0.3309   0.9569     H
H       0.2079   0.2398   0.0153     H
H       0.2186   0.6917   0.7589     H
C       0.2187   0.3311   0.0701     C
N      0.22321  0.62678  0.87453     N
C       0.2373   0.2889   0.9973     C
N       0.2536   0.3894   0.1545     N
C       0.2582   0.9554   0.9218     C
C        0.263  0.89759   0.8748     C
C       0.2705   0.6178   0.1039     C
O        0.282   0.5693   0.1739     O
H       0.2919   0.4182   0.5719     H
H       0.2955   0.4205   0.4355     H
N       0.2979   0.3443   0.0918     N
H       0.3089    0.488   0.7997     H
H       0.3101   0.4856    0.665     H
H       0.3149   0.9414   0.9522     H
H       0.3193   0.2687   0.9728     H
O       0.3277   0.5961  0.03632     O
O       0.3408   0.7567    0.845     O
Zn     0.35095  0.44506  0.17775    Zn
C       0.3519   0.8095   0.8785     C
H       0.3601   0.6354   0.6201     H
C       0.3625   0.4073  0.53291     C
H       0.3637   0.6377   0.4838     H
C       0.3646   0.4087  0.45192     C
C       0.3709  0.44868  0.76907     C
C       0.3716   0.4472  0.68903     C
O       0.3755   0.4123    0.289     O
Zn     0.38429  0.62491  0.86133    Zn
H       0.3857   0.7059   0.3513     H
H        0.387   0.7035   0.2165     H
O       0.4222   0.4645  0.91746     O
O        0.428   0.7965   0.9159     O
C       0.4308   0.6245  0.58112     C
C       0.4329   0.6259  0.50014     C
O        0.435   0.6165   0.7421     O
C       0.4477   0.6665  0.32061     C
C       0.4485   0.6651  0.24058     C
C       0.4608   0.3925  0.80426     C
C       0.4618   0.3948   0.8897     C
C       0.4623   0.3896  0.64419     C
C       0.4637   0.3901  0.55688     C
C        0.468   0.3928  0.39491     C
Zn     0.46949  0.31808  0.04999    Zn
C       0.4711   0.3954   0.3075     C
O       0.4861  0.40928  0.09181     O
O       0.4934   0.6799    0.068     O
O       0.5066   0.3201    0.932     O
O       0.5139  0.59072  0.90819     O
C       0.5289   0.6046   0.6925     C
Zn     0.53051  0.68192  0.95001    Zn
C        0.532   0.6072  0.60509     C
C       0.5363   0.6099  0.44312     C
C       0.5377   0.6104  0.35581     C
C       0.5382   0.6052   0.1103     C
C       0.5392   0.6075  0.19574     C
C       0.5515   0.3349  0.75942     C
C       0.5523   0.3335  0.67939     C
O        0.565   0.3835   0.2579     O
C       0.5671   0.3741  0.49986     C
C       0.5692   0.3755  0.41888     C
O        0.572   0.2035   0.0841     O
O       0.5778   0.5355  0.08254     O
H        0.613   0.2965   0.7835     H
H       0.6143   0.2941   0.6487     H
Zn     0.61571  0.37509  0.13867    Zn
O       0.6245   0.5877    0.711     O
C       0.6284   0.5528  0.31097     C
C       0.6291  0.55132  0.23093     C
C       0.6354   0.5913  0.54808     C
H       0.6363   0.3623   0.5162     H
C       0.6375   0.5927  0.46709     C
H       0.6399   0.3646   0.3799     H
C       0.6481   0.1905   0.1215     C
Zn     0.64905  0.55494  0.82225    Zn
O       0.6592   0.2433    0.155     O
O       0.6723   0.4039  0.96368     O
H       0.6807   0.7313   0.0272     H
H       0.6851   0.0586   0.0478     H
H       0.6899   0.5144    0.335     H
H       0.6911    0.512   0.2003     H
N       0.7021   0.6557   0.9082     N
H       0.7045   0.5795   0.5645     H
H       0.7081   0.5818   0.4281     H
O        0.718   0.4307   0.8261     O
C       0.7295   0.3822   0.8961     C
C        0.737  0.10241   0.1252     C
C       0.7418   0.0446   0.0782     C
N       0.7464   0.6106   0.8455     N
C       0.7627   0.7111   0.0027     C
N      0.77679  0.37322  0.12547     N
C       0.7813   0.6689   0.9299     C
H       0.7814   0.3083   0.2411     H
H       0.7921   0.7602   0.9847     H
H       0.8031   0.6691   0.0431     H
H        0.807   0.4373   0.0093     H
H       0.8167   0.2656   0.0138     H
H       0.8168   0.1215   0.2018     H
C        0.817  0.29533  0.89237     C
C       0.8201  0.08197   0.1697     C
C       0.8241   0.3336  0.19344     C
C       0.8297   0.9664   0.0758     C
H        0.833   0.9269   0.0437     H
C       0.8393   0.4102  0.05575     C
H       0.8446   0.3001   0.7696     H
C       0.8519   0.2456  0.96284     C
C       0.8594    0.596   0.8276     C
C       0.8685   0.2662   0.8178     C
C        0.887   0.6315   0.8791     C
H       0.8881   0.5301    0.733     H
C        0.908   0.0038   0.1672     C
C       0.9128  0.94597   0.1202     C
C       0.9338    0.331  0.19168     C
C       0.9354   0.5466   0.7576     C
C       0.9383  0.16677  0.95874     C
C        0.949   0.4076  0.05398     C
C       0.9549   0.1873   0.8137     C
H       0.9622   0.1328   0.0069     H
H       0.9648   0.9898   0.1976     H
H       0.9661   0.3039   0.2381     H
H        0.975   0.5834   0.7162     H
C       0.9898   0.1376  0.88417     C
H         0.99   0.1674   0.7627     H
H       0.9917    0.433   0.0063     H
H       0.9918   0.4946   0.7787     H
C      0.99631    0.368  0.12195     C
