data_I
_chemical_name_common  '/home/zhangsd/repos/MofS-CGCNN/ML/data/TSD/clean_cifs/QIRWAR_clean'
_cell_length_a 14.74500
_cell_length_b 11.02400
_cell_length_c 13.28700
_cell_angle_alpha 90.00000
_cell_angle_beta  97.27000
_cell_angle_gamma 90.00000
_space_group_name_H-M_alt      'P 1'


loop_
_space_group_symop_operation_xyz
  'x, y, z' 

loop_
_atom_site_label
_atom_site_fract_x
_atom_site_fract_y
_atom_site_fract_z
_atom_site_type_symbol
Cu      0.0147  0.21258  0.73314    Cu
Cu      0.0147  0.28742  0.23314    Cu
C       0.0269   0.5335   0.2691     C
C       0.0269   0.9665   0.7691     C
O        0.057   0.6387   0.2881     O
O        0.057   0.8613   0.7881     O
C       0.0732   0.0069   0.2428     C
C       0.0732   0.4931   0.7428     C
O      0.07909   0.0567   0.7608     O
O      0.07909   0.4433   0.2608     O
N       0.0949   0.6087   0.7622     N
N       0.0949   0.8913   0.2622     N
O       0.1279   0.2097   0.2199     O
O       0.1279   0.2903   0.7199     O
C        0.141   0.0961   0.2339     C
C        0.141   0.4039   0.7339     C
C       0.1825   0.6432   0.7726     C
C       0.1825   0.8568   0.2726     C
H       0.1984   0.7254   0.7873     H
H       0.1984   0.7746   0.2873     H
H       0.2177   0.0805   0.0321     H
H       0.2177   0.4195   0.5321     H
H       0.2217    0.123   0.8619     H
H       0.2217    0.377   0.3619     H
N       0.2298   0.0578    0.242     N
N       0.2298   0.4422    0.742     N
C       0.2501   0.5585   0.7618     C
C       0.2501   0.9415   0.2618     C
C       0.2532   0.1465   0.0129     C
C       0.2532   0.3535   0.5129     C
C       0.2558   0.1722   0.9118     C
C       0.2558   0.3278   0.4118     C
N        0.301    0.215   0.0836     N
N        0.301    0.285   0.5836     N
N       0.3049   0.2355   0.3818     N
N       0.3049   0.2645   0.8818     N
H       0.3122   0.5837   0.7687     H
H       0.3122   0.9163   0.2687     H
Cu     0.31441   0.1973  0.23652    Cu
Cu     0.31441   0.3027  0.73652    Cu
C       0.3505   0.1919   0.5566     C
C       0.3505   0.3081   0.0566     C
C       0.3538   0.1642   0.4523     C
C       0.3538   0.3358   0.9523     C
O       0.3862   0.1539   0.7308     O
O       0.3862   0.3461   0.2308     O
O       0.3989   0.0775   0.4198     O
O       0.3989   0.4225   0.9198     O
C       0.3992   0.1212   0.6431     C
C       0.3992   0.3788   0.1431     C
O       0.4502   0.0341   0.6273     O
O       0.4502   0.4659   0.1273     O
Cu         0.5      0.0      0.5    Cu
Cu         0.5      0.5      0.0    Cu
O       0.5498   0.5341   0.8727     O
O       0.5498   0.9659   0.3727     O
C       0.6008   0.6212   0.8569     C
C       0.6008   0.8788   0.3569     C
O       0.6011   0.5775   0.0802     O
O       0.6011   0.9225   0.5802     O
O       0.6138   0.6539   0.7692     O
O       0.6138   0.8461   0.2692     O
C       0.6462   0.6642   0.0477     C
C       0.6462   0.8358   0.5477     C
C       0.6495   0.6919   0.9434     C
C       0.6495   0.8081   0.4434     C
Cu     0.68559   0.6973  0.26348    Cu
Cu     0.68559   0.8027  0.76348    Cu
H       0.6878   0.0837   0.7313     H
H       0.6878   0.4163   0.2313     H
N       0.6951   0.7355   0.1182     N
N       0.6951   0.7645   0.6182     N
N        0.699    0.715   0.4164     N
N        0.699    0.785   0.9164     N
C       0.7442   0.6722   0.5882     C
C       0.7442   0.8278   0.0882     C
C       0.7468   0.6465   0.4871     C
C       0.7468   0.8535   0.9871     C
C       0.7499   0.0585   0.7382     C
C       0.7499   0.4415   0.2382     C
N       0.7702   0.5578    0.258     N
N       0.7702   0.9422    0.758     N
H       0.7783    0.623   0.6381     H
H       0.7783    0.877   0.1381     H
H       0.7823   0.5805   0.4679     H
H       0.7823   0.9195   0.9679     H
H       0.8016   0.2254   0.7127     H
H       0.8016   0.2746   0.2127     H
C       0.8175   0.1432   0.7274     C
C       0.8175   0.3568   0.2274     C
C        0.859   0.5961   0.2661     C
C        0.859   0.9039   0.7661     C
O       0.8721   0.7097   0.2801     O
O       0.8721   0.7903   0.7801     O
N       0.9051   0.1087   0.7378     N
N       0.9051   0.3913   0.2378     N
O      0.92091   0.5567   0.7392     O
O      0.92091   0.9433   0.2392     O
C       0.9268   0.5069   0.2572     C
C       0.9268   0.9931   0.7572     C
O        0.943   0.1387   0.2119     O
O        0.943   0.3613   0.7119     O
C       0.9731   0.0335   0.2309     C
C       0.9731   0.4665   0.7309     C
Cu      0.9853  0.71258  0.76686    Cu
Cu      0.9853  0.78742  0.26686    Cu
