data_I
_chemical_name_common  '/home/zhangsd/repos/MofS-CGCNN/ML/data/TSD/clean_cifs/QIRYAS_clean'
_cell_length_a 11.11930
_cell_length_b 11.24730
_cell_length_c 11.36200
_cell_angle_alpha 75.65100
_cell_angle_beta  66.11900
_cell_angle_gamma 76.99100
_space_group_name_H-M_alt      'P 1'


loop_
_space_group_symop_operation_xyz
  'x, y, z' 

loop_
_atom_site_label
_atom_site_fract_x
_atom_site_fract_y
_atom_site_fract_z
_atom_site_type_symbol
Co     0.00083  0.35774  0.00891    Co
C       0.0122   0.8293   0.7537     C
C       0.0147   0.0502   0.7649     C
C        0.015   0.2735   0.7734     C
H       0.0278   0.9675   0.1427     H
Co     0.02891  0.56873  0.71005    Co
O       0.0353    0.746   0.1043     O
O       0.0365    0.756   0.6776     O
O       0.0393   0.1916   0.1236     O
C        0.045   0.1677   0.7013     C
C       0.0481   0.9584     0.69     C
O       0.0489   0.3755   0.7003     O
O       0.0506   0.4711   0.0941     O
O       0.0817   0.5743   0.5097     O
N       0.1048   0.1967   0.5707     N
Co     0.10894  0.38861  0.49877    Co
C       0.1145   0.9874   0.5558     C
H       0.1268   0.4761   0.0781     H
C       0.1403   0.1072      0.5     C
H       0.1418   0.9255    0.503     H
O       0.1616   0.4056   0.3004     O
H        0.185   0.1267    0.408     H
O       0.2019   0.6411   0.8625     O
O       0.2252    0.542   0.7028     O
C        0.267   0.5978   0.7596     C
C       0.2818   0.4138   0.2244     C
N       0.3191   0.3674   0.4272     N
O       0.3232   0.4352   0.1038     O
H        0.356   0.3265   0.5902     H
C       0.3768   0.3932   0.2955     C
C       0.3952   0.3484   0.4978     C
C       0.4117   0.6133    0.695     C
H       0.4192   0.6511   0.5067     H
H       0.4519   0.5804   0.8617     H
C       0.4703   0.6404   0.5593     C
C       0.4897   0.5974   0.7689     C
C       0.5103   0.4026   0.2311     C
C       0.5297   0.3596   0.4407     C
H       0.5481   0.4196   0.1383     H
H       0.5808   0.3489   0.4933     H
C       0.5883   0.3867    0.305     C
C       0.6048   0.6516   0.5022     C
C       0.6232   0.6068   0.7045     C
H        0.644   0.6735   0.4098     H
O       0.6768   0.5648   0.8962     O
N       0.6809   0.6326   0.5728     N
C       0.7182   0.5862   0.7756     C
C        0.733   0.4022   0.2404     C
O       0.7748    0.458   0.2972     O
O       0.7981   0.3589   0.1375     O
H        0.815   0.8733    0.592     H
O       0.8384   0.5944   0.6996     O
H       0.8582   0.0745    0.497     H
C       0.8597   0.8928      0.5     C
H       0.8732   0.5239   0.9219     H
C       0.8855   0.0126   0.4442     C
Co     0.89106  0.61139  0.50123    Co
N       0.8952   0.8033   0.4293     N
O       0.9183   0.4257   0.4903     O
O       0.9494   0.5289   0.9059     O
O       0.9511   0.6245   0.2997     O
C       0.9519   0.0416     0.31     C
C        0.955   0.8323   0.2987     C
O       0.9607   0.8084   0.8764     O
O       0.9635    0.244   0.3224     O
O       0.9647    0.254   0.8957     O
Co     0.97109  0.43127  0.28995    Co
H       0.9722   0.0325   0.8573     H
C        0.985   0.7265   0.2266     C
C       0.9853   0.9498   0.2351     C
C       0.9878   0.1707   0.2463     C
Co     0.99917  0.64226  0.99109    Co
