data_I
_chemical_name_common  '/home/zhangsd/repos/MofS-CGCNN/ML/data/TSD/clean_cifs/QITYOI_clean'
_cell_length_a  7.85380
_cell_length_b 11.02190
_cell_length_c 11.66930
_cell_angle_alpha 108.67400
_cell_angle_beta  105.81200
_cell_angle_gamma 104.10800
_space_group_name_H-M_alt      'P 1'


loop_
_space_group_symop_operation_xyz
  'x, y, z' 

loop_
_atom_site_label
_atom_site_fract_x
_atom_site_fract_y
_atom_site_fract_z
_atom_site_type_symbol
C       0.0037   0.0134    0.568     C
H       0.0121   0.5772   0.1176     H
C       0.0144   0.2186   0.9559     C
C        0.018   0.0811   0.2656     C
C       0.0299   0.1149   0.4038     C
H       0.0643   0.8455   0.5825     H
H       0.0666   0.3459   0.7829     H
O       0.0682   0.1493   0.0183     O
H       0.0916    0.948   0.4186     H
C       0.1004   0.4062   0.8735     C
H       0.1033   0.6468   0.8339     H
H        0.127   0.0813   0.6302     H
O       0.1468   0.9601   0.8235     O
H       0.1543   0.1827   0.4642     H
O       0.1561   0.8085   0.1044     O
O       0.1654   0.0895   0.2431     O
H       0.1678   0.5565   0.7321     H
C       0.1682   0.3366   0.9617     C
C        0.207   0.6175   0.8233     C
H       0.2308   0.4052   0.0514     H
C       0.2553   0.5427   0.9095     C
H       0.2622   0.3027   0.9379     H
Pr     0.27462  0.02108  0.06542    Pr
H       0.2839   0.6031   0.9992     H
H       0.3695   0.5254   0.9062     H
C        0.381    0.741   0.8625     C
O       0.4101    0.856   0.9522     O
O       0.4999   0.7284   0.8112     O
O       0.5001   0.2716   0.1888     O
O       0.5899    0.144   0.0478     O
C        0.619    0.259   0.1375     C
H       0.6305   0.4746   0.0938     H
H       0.7161   0.3969   0.0008     H
Pr     0.72538  0.97892  0.93458    Pr
H       0.7378   0.6973   0.0621     H
C       0.7447   0.4573   0.0905     C
H       0.7692   0.5948   0.9486     H
C        0.793   0.3825   0.1767     C
C       0.8318   0.6634   0.0383     C
H       0.8322   0.4435   0.2679     H
O       0.8346   0.9105   0.7569     O
O       0.8439   0.1915   0.8956     O
H       0.8457   0.8173   0.5358     H
O       0.8532   0.0399   0.1765     O
H        0.873   0.9187   0.3698     H
H       0.8967   0.3532   0.1661     H
C       0.8996   0.5938   0.1265     C
H       0.9084    0.052   0.5814     H
O       0.9318   0.8507   0.9817     O
H       0.9334   0.6541   0.2171     H
H       0.9357   0.1545   0.4175     H
C       0.9701   0.8851   0.5962     C
C        0.982   0.9189   0.7344     C
C       0.9856   0.7814   0.0441     C
H       0.9879   0.4228   0.8824     H
C       0.9963   0.9866    0.432     C
