data_I
_chemical_name_common  '/home/zhangsd/repos/MofS-CGCNN/ML/data/TSD/clean_cifs/QIVYUR_clean'
_cell_length_a 22.21900
_cell_length_b  5.52430
_cell_length_c 18.47190
_cell_angle_alpha 90.00000
_cell_angle_beta  115.96200
_cell_angle_gamma 90.00000
_space_group_name_H-M_alt      'P 1'


loop_
_space_group_symop_operation_xyz
  'x, y, z' 

loop_
_atom_site_label
_atom_site_fract_x
_atom_site_fract_y
_atom_site_fract_z
_atom_site_type_symbol
Zn         0.0  0.46319     0.75    Zn
Zn         0.0  0.53681     0.25    Zn
C      0.00035    0.067  0.46642     C
C      0.00035    0.933  0.96642     C
O      0.00169  0.31802  0.33506     O
O      0.00169  0.68198  0.83506     O
H       0.0297    0.012   0.4446     H
H       0.0297    0.988   0.9446     H
C      0.03356   0.4035  0.13172     C
C      0.03356   0.5965  0.63172     C
C      0.03677   0.2627  0.06509     C
C      0.03677   0.7373  0.56509     C
O      0.06339   0.4007  0.65187     O
O      0.06339   0.5993  0.15187     O
H       0.0656    0.322    0.044     H
H       0.0656    0.678    0.544     H
H       0.0718   0.0311   0.7303     H
H       0.0718   0.9689   0.2303     H
N      0.07894  0.24578  0.81851     N
N      0.07894  0.75422  0.31851     N
C      0.09504   0.0551  0.78554     C
C      0.09504   0.9449  0.28554     C
H       0.1034   0.4122   0.9221     H
H       0.1034   0.5878   0.4221     H
C       0.1138   0.2795  0.89869     C
C       0.1138   0.7205  0.39869     C
C       0.1449   0.1073  0.33038     C
C       0.1449   0.8927  0.83038     C
H       0.1546   0.2372   0.3052     H
H       0.1546   0.7628   0.8052     H
C      0.16403   0.1255  0.94723     C
C      0.16403   0.8745  0.44723     C
C      0.18058   0.0756  0.41339     C
C      0.18058   0.9244  0.91339     C
H       0.1869    0.155   0.0022     H
H       0.1869    0.845   0.5022     H
C      0.23244   0.2518  0.45995     C
C      0.23244   0.7482  0.95995     C
H       0.2404    0.375   0.4308     H
H       0.2404    0.625   0.9308     H
H       0.2596    0.125   0.5692     H
H       0.2596    0.875   0.0692     H
C      0.26756   0.2482  0.54005     C
C      0.26756   0.7518  0.04005     C
H       0.3131    0.345   0.9978     H
H       0.3131    0.655   0.4978     H
C      0.31942   0.4244  0.58661     C
C      0.31942   0.5756  0.08661     C
C      0.33597   0.3745  0.05277     C
C      0.33597   0.6255  0.55277     C
H       0.3454   0.2628   0.6948     H
H       0.3454   0.7372   0.1948     H
C       0.3551   0.3927  0.66962     C
C       0.3551   0.6073  0.16962     C
C       0.3862   0.2205  0.10131     C
C       0.3862   0.7795  0.60131     C
H       0.3966   0.0878   0.0779     H
H       0.3966   0.9122   0.5779     H
C      0.40496   0.4449  0.21446     C
C      0.40496   0.5551  0.71446     C
N      0.42106  0.25422  0.18149     N
N      0.42106  0.74578  0.68149     N
H       0.4282   0.4689   0.2697     H
H       0.4282   0.5311   0.7697     H
H       0.4344    0.178    0.956     H
H       0.4344    0.822    0.456     H
O      0.43661   0.0993  0.34813     O
O      0.43661   0.9007  0.84813     O
C      0.46323   0.2373  0.93491     C
C      0.46323   0.7627  0.43491     C
C      0.46644   0.0965  0.86828     C
C      0.46644   0.9035  0.36828     C
H       0.4703    0.488   0.5554     H
H       0.4703    0.512   0.0554     H
O      0.49831  0.18198  0.66494     O
O      0.49831  0.81802  0.16494     O
C      0.49965    0.433  0.53358     C
C      0.49965    0.567  0.03358     C
Zn         0.5  0.03681     0.25    Zn
Zn         0.5  0.96319     0.75    Zn
C      0.50035    0.433  0.96642     C
C      0.50035    0.567  0.46642     C
O      0.50169  0.18198  0.83506     O
O      0.50169  0.81802  0.33506     O
H       0.5297    0.488   0.9446     H
H       0.5297    0.512   0.4446     H
C      0.53356   0.0965  0.63172     C
C      0.53356   0.9035  0.13172     C
C      0.53677   0.2373  0.56509     C
C      0.53677   0.7627  0.06509     C
O      0.56339   0.0993  0.15187     O
O      0.56339   0.9007  0.65187     O
H       0.5656    0.178    0.544     H
H       0.5656    0.822    0.044     H
H       0.5718   0.4689   0.2303     H
H       0.5718   0.5311   0.7303     H
N      0.57894  0.25422  0.31851     N
N      0.57894  0.74578  0.81851     N
C      0.59504   0.4449  0.28554     C
C      0.59504   0.5551  0.78554     C
H       0.6034   0.0878   0.4221     H
H       0.6034   0.9122   0.9221     H
C       0.6138   0.2205  0.39869     C
C       0.6138   0.7795  0.89869     C
C       0.6449   0.3927  0.83038     C
C       0.6449   0.6073  0.33038     C
H       0.6546   0.2628   0.8052     H
H       0.6546   0.7372   0.3052     H
C      0.66403   0.3745  0.44723     C
C      0.66403   0.6255  0.94723     C
C      0.68058   0.4244  0.91339     C
C      0.68058   0.5756  0.41339     C
H       0.6869    0.345   0.5022     H
H       0.6869    0.655   0.0022     H
C      0.73244   0.2482  0.95995     C
C      0.73244   0.7518  0.45995     C
H       0.7404    0.125   0.9308     H
H       0.7404    0.875   0.4308     H
H       0.7596    0.375   0.0692     H
H       0.7596    0.625   0.5692     H
C      0.76756   0.2518  0.04005     C
C      0.76756   0.7482  0.54005     C
H       0.8131    0.155   0.4978     H
H       0.8131    0.845   0.9978     H
C      0.81942   0.0756  0.08661     C
C      0.81942   0.9244  0.58661     C
C      0.83597   0.1255  0.55277     C
C      0.83597   0.8745  0.05277     C
H       0.8454   0.2372   0.1948     H
H       0.8454   0.7628   0.6948     H
C       0.8551   0.1073  0.16962     C
C       0.8551   0.8927  0.66962     C
C       0.8862   0.2795  0.60131     C
C       0.8862   0.7205  0.10131     C
H       0.8966   0.4122   0.5779     H
H       0.8966   0.5878   0.0779     H
C      0.90496   0.0551  0.71446     C
C      0.90496   0.9449  0.21446     C
N      0.92106  0.24578  0.68149     N
N      0.92106  0.75422  0.18149     N
H       0.9282   0.0311   0.7697     H
H       0.9282   0.9689   0.2697     H
H       0.9344    0.322    0.456     H
H       0.9344    0.678    0.956     H
O      0.93661   0.4007  0.84813     O
O      0.93661   0.5993  0.34813     O
C      0.96323   0.2627  0.43491     C
C      0.96323   0.7373  0.93491     C
C      0.96644   0.4035  0.36828     C
C      0.96644   0.5965  0.86828     C
H       0.9703    0.012   0.0554     H
H       0.9703    0.988   0.5554     H
O      0.99831  0.31802  0.16494     O
O      0.99831  0.68198  0.66494     O
C      0.99965    0.067  0.03358     C
C      0.99965    0.933  0.53358     C
