data_I
_chemical_name_common  '/home/zhangsd/repos/MofS-CGCNN/ML/data/TSD/clean_cifs/QIVZEC_clean'
_cell_length_a 10.75750
_cell_length_b 15.31800
_cell_length_c 29.39060
_cell_angle_alpha 81.11200
_cell_angle_beta  87.71100
_cell_angle_gamma 84.53600
_space_group_name_H-M_alt      'P 1'


loop_
_space_group_symop_operation_xyz
  'x, y, z' 

loop_
_atom_site_label
_atom_site_fract_x
_atom_site_fract_y
_atom_site_fract_z
_atom_site_type_symbol
H       0.0001   0.7551    0.092     H
H       0.0018   0.2793   0.8306     H
H       0.0051   0.8529   0.1011     H
H       0.0091   0.1112   0.3502     H
H       0.0228   0.4589   0.0867     H
H       0.0304   0.9698   0.4606     H
C       0.0323   0.0077  0.43133     C
H       0.0346   0.3543   0.7585     H
H        0.037   0.6586   0.4017     H
C       0.0373   0.5551  0.68861     C
H       0.0402   0.0675   0.4361     H
H       0.0413   0.4948   0.9588     H
H       0.0416     0.17   0.2746     H
C       0.0421   0.1862  0.91242     C
C       0.0426   0.0017  0.18548     C
H       0.0436   0.9944   0.5844     H
H       0.0463   0.7608   0.3993     H
H       0.0498   0.1654   0.9448     H
O      0.05136  0.08478  0.17797     O
C       0.0538   0.5315  0.92972     C
H        0.055   0.2212   0.1032     H
H       0.0582   0.7438   0.3197     H
H       0.0672   0.6397   0.8494     H
C       0.0765   0.0882  0.33355     C
H       0.0768    0.289   0.0289     H
H       0.0791   0.5875   0.9349     H
O       0.0814  0.47568  0.69245     O
C       0.0826   0.2817  0.81818     C
C       0.0845   0.0287  0.80904     C
C       0.0856   0.7028  0.41014     C
H       0.0909   0.6951   0.4431     H
H       0.0917   0.0892    0.807     H
C       0.0966   0.1233  0.28782     C
H       0.0971   0.8085    0.246     H
O      0.09825  0.62212   0.6811     O
C       0.0999   0.4264  0.30882     C
C       0.1034   0.3267  0.77488     C
H       0.1062   0.4316   0.1973     H
O       0.1072  0.26647  0.19679     O
H       0.1093   0.7446   0.6114     H
H        0.118   0.6944   0.7752     H
H       0.1193    0.812   0.5368     H
H       0.1236   0.1238   0.6676     H
C       0.1274    0.608  0.83328     C
H       0.1314   0.5413   0.6065     H
O       0.1314  0.94335   0.1875     O
H       0.1322   0.3682    0.308     H
C       0.1351    0.228  0.09088     C
C       0.1389   0.7567  0.31031     C
C       0.1406   0.9771  0.40309     C
C       0.1474   0.2685  0.04601     C
H       0.1479   0.5464   0.3063     H
O        0.148  0.28671  0.66787     O
C       0.1525    0.487  0.90219     C
C       0.1567    0.019  0.35455     C
H       0.1574   0.5923   0.5301     H
C       0.1591    0.641  0.78866     C
C       0.1632   0.7959  0.26614     C
C       0.1686   0.1883  0.89007     C
H       0.1742   0.9635   0.6829     H
H       0.1751   0.5786   0.1812     H
H       0.1766   0.0794   0.0338     H
H       0.1777   0.0223   0.1097     H
C       0.1801   0.4875  0.30764     C
H       0.1817   0.9158   0.8062     H
C       0.1842   0.5281  0.85444     C
C       0.1847   0.2392  0.84347     C
C       0.1864    0.744  0.59597     C
C        0.187   0.4051  0.19446     C
C       0.1884   0.9757  0.80688     C
O       0.1899  0.79567   0.6977     O
N       0.1901  0.09368  0.26199     N
C       0.1916   0.7842  0.55093     C
N       0.1921   0.3755   0.9611     N
C       0.1921   0.5116  0.58963     C
C        0.203   0.3063   0.1991     C
Zn     0.20491   0.1431  0.19025    Zn
C       0.2055   0.1334  0.67288     C
C       0.2065   0.5424  0.54349     C
O        0.209  0.74303  0.16594     O
C       0.2144   0.6931  0.38896     C
N       0.2148   0.8768  0.46307     N
N       0.2169   0.3334  0.75476     N
N       0.2183   0.4152  0.91632     N
N       0.2281   0.9169  0.41711     N
C       0.2288   0.0286  0.04372     C
C       0.2294   0.9934   0.0895     C
N       0.2322  0.19785  0.11788     N
Zn     0.23574  0.39167  0.68358    Zn
C       0.2368   0.7363  0.34121     C
C       0.2371   0.2264  0.67032     C
N       0.2456  0.60058  0.76373     N
C       0.2552   0.9886  0.32751     C
N       0.2563  0.10749  0.95382     N
C       0.2568    0.973  0.68702     C
C       0.2574    0.554  0.17994     C
N         0.26  0.44175  0.61158     N
C       0.2655   0.2788  0.02624     C
N       0.2677  0.14849  0.90886     N
C       0.2684   0.0268  0.28254     C
Zn     0.27361  0.64965   0.6918    Zn
C       0.2745   0.4866  0.82856     C
N       0.2761  0.81712  0.25016     N
C       0.2773   0.4578  0.18673     C
H       0.2839   0.4388   0.4278     H
C       0.2846   0.3228  0.97832     C
N       0.2867  0.61496  0.45531     N
N       0.2872  0.70377  0.61896     N
C       0.2873   0.0639  0.68221     C
C        0.293   0.4997  0.51708     C
N       0.2987  0.92099  0.10685     N
C       0.3008   0.8107  0.70023     C
Zn     0.30113  0.87076  0.17906    Zn
C       0.3026    0.524  0.78443     C
C       0.3028    0.246  0.82284     C
C       0.3041   0.7836  0.52647     C
C       0.3045   0.9898  0.01242     C
N       0.3085  0.64938  0.40952     N
C       0.3087   0.0291   0.9631     C
O       0.3099  0.26608  0.20332     O
C       0.3107   0.5319  0.46731     C
C       0.3118    0.006  0.80549     C
H       0.3122   0.9424   0.3399     H
C       0.3128   0.8273  0.47765     C
C       0.3148   0.2933  0.77937     C
C       0.3148   0.4685  0.30837     C
H       0.3164    0.433   0.8411     H
H       0.3177   0.0669   0.8022     H
C       0.3179    0.707  0.16803     C
H       0.3191   0.9376   0.9196     H
H       0.3353   0.0053   0.2652     H
C       0.3368   0.9024  0.69681     C
C       0.3441   0.6092  0.17226     C
C       0.3448   0.4016  0.58655     C
H        0.345    0.406   0.3088     H
C       0.3459   0.2081  0.09906     C
O       0.3481  0.24194  0.67309     O
C       0.3532    0.469   0.4349     C
C        0.355   0.7579  0.32472     C
H        0.359    0.432   0.1855     H
H        0.362    0.594   0.3055     H
C       0.3641   0.4273  0.54006     C
H       0.3644   0.4946   0.7679     H
C       0.3662   0.2461  0.05419     C
O       0.3672  0.06957  0.18156     O
H         0.37   0.0739   0.6859     H
C       0.3706  0.79775  0.27955     C
C       0.3717   0.8823  0.07702     C
H       0.3732   0.2187   0.8384     H
C       0.3736   0.9783  0.92798     C
C       0.3761   0.9137  0.03045     C
H       0.3861   0.5011   0.4071     H
O       0.3879  0.74778  0.70463     O
H       0.3917   0.3106    0.921     H
C       0.3926   0.5313  0.30754     C
H       0.3945   0.3531   0.6011     H
H       0.3946   0.2978   0.7663     H
H        0.395   0.0188   0.9012     H
C       0.3956   0.7031  0.59548     C
C       0.4056   0.3047  0.95345     C
C       0.4082    0.741  0.54997     C
O      0.41003  0.41831  0.69598     O
O       0.4108   0.7512  0.16935     O
H       0.4136    0.893   0.8089     H
H       0.4149   0.1886   0.1172     H
H       0.4168   0.8314   0.4183     H
H       0.4171   0.4264   0.4489     H
C       0.4173   0.9534  0.80861     C
H       0.4195   0.9106   0.7018     H
H       0.4225   0.8315    0.088     H
H        0.423   0.7456    0.344     H
O      0.42351  0.56508  0.68172     O
H       0.4249    0.396    0.524     H
H       0.4265    0.586   0.1693     H
H       0.4279   0.8832    0.011     H
C       0.4314   0.8118  0.45039     C
H       0.4406   0.2456   0.9644     H
H       0.4474     0.25   0.0425     H
H       0.4482   0.9459   0.9407     H
H       0.4501   0.8117   0.2691     H
O      0.45327  0.93063   0.1917     O
C       0.4587   0.0128  0.18828     C
H       0.4588   0.7496   0.4551     H
H       0.4625   0.3464   0.9589     H
H       0.4666   0.6756   0.6105     H
C       0.4689   0.4862  0.68973     C
H        0.486   0.7381    0.535     H
H       0.4946   0.8443   0.4603     H
H       0.5054   0.1557   0.5397     H
H        0.514   0.2619    0.465     H
C       0.5311   0.5138  0.31027     C
H       0.5334   0.3244   0.3895     H
H       0.5375   0.6536   0.0411     H
H       0.5412   0.2504   0.5449     H
C       0.5413   0.9872  0.81172     C
O      0.54673  0.06937   0.8083     O
H       0.5499   0.1883   0.7309     H
H       0.5518   0.0541   0.0593     H
H       0.5526     0.75   0.9575     H
H       0.5594   0.7544   0.0356     H
C       0.5686   0.1882  0.54961     C
H       0.5721   0.1168    0.989     H
H       0.5735    0.414   0.8307     H
H       0.5751    0.604    0.476     H
O      0.57649  0.43492  0.31828     O
H        0.577   0.2544    0.656     H
H       0.5775   0.1685    0.912     H
H       0.5805   0.0894   0.2982     H
C       0.5827   0.0466  0.19139     C
H       0.5829   0.5736   0.5511     H
H       0.5832   0.1686   0.5817     H
H       0.5851   0.8114   0.8828     H
H       0.5864    0.107   0.1911     H
O       0.5892   0.2488  0.83065     O
O      0.58997  0.58169  0.30402     O
C       0.5918    0.259  0.45003     C
C       0.5944   0.6953  0.04655     C
C       0.6044   0.2969  0.40452     C
H        0.605   0.9812   0.0988     H
H       0.6054   0.7022   0.2337     H
H       0.6055   0.6469   0.3989     H
C       0.6074   0.4687  0.69246     C
H       0.6083   0.6894    0.079     H
O       0.6121  0.25222  0.29537     O
H       0.6139   0.4989   0.5929     H
C       0.6239   0.0863  0.96955     C
C       0.6264   0.0217  0.07202     C
H       0.6268   0.7813   0.1616     H
C       0.6283   0.1177  0.92298     C
C       0.6294  0.20225  0.72045     C
H         0.63   0.9261   0.3141     H
O       0.6328  0.93043  0.81844     O
C       0.6338   0.7539  0.94581     C
H       0.6356   0.5054   0.2321     H
C       0.6359   0.5727  0.45994     C
H        0.638    0.406   0.6945     H
H        0.641    0.568   0.8145     H
C        0.645   0.2421  0.67528     C
C       0.6468    0.531   0.5651     C
O       0.6519  0.75806  0.32691     O
C       0.6541   0.7919  0.90094     C
H        0.655    0.594   0.6912     H
C       0.6552   0.5984  0.41345     C
C       0.6559   0.3908  0.82774     C
C       0.6632   0.0976  0.30319     C
H       0.6647   0.9947   0.7348     H
H       0.6809   0.0624   0.0804     H
C       0.6821    0.293  0.83197     C
H       0.6823   0.9331   0.1978     H
H       0.6836    0.567   0.1589     H
C       0.6852   0.5315  0.69163     C
C       0.6852   0.7067  0.22063     C
C       0.6872   0.1727  0.52235     C
H       0.6878   0.0576   0.6601     H
C       0.6882    0.994  0.19451     C
C       0.6893   0.4681  0.53269     C
O       0.6901  0.73392  0.79668     O
C       0.6913   0.9709   0.0369     C
N       0.6915  0.35062  0.59048     N
C       0.6955   0.0102  0.98758     C
C       0.6959   0.2164  0.47353     C
C       0.6972    0.754  0.17716     C
C       0.6974    0.476  0.21557     C
Zn     0.69887  0.12924  0.82094    Zn
C       0.6992   0.1893  0.29977     C
N       0.7013  0.07901  0.89315     N
C        0.707   0.5003  0.48292     C
C       0.7127   0.9361  0.31779     C
N       0.7128  0.29623  0.38104     N
N       0.7133  0.38504  0.54469     N
C       0.7154   0.6772  0.02168     C
H       0.7161   0.5612   0.5722     H
C       0.7227   0.5422  0.81327     C
N       0.7239  0.18288  0.74984     N
C       0.7255   0.5134  0.17144     C
Zn     0.72639  0.35035   0.3082    Zn
C       0.7316   0.9732  0.71746     C
N       0.7323  0.85151  0.09114     N
C       0.7345   0.7212  0.97376     C
N         0.74  0.55825  0.38842     N
C       0.7426    0.446  0.82006     C
C       0.7432    0.027  0.31298     C
N       0.7437  0.89251  0.04618     N
C       0.7448   0.0114  0.67249     C
N       0.7544  0.39942  0.23627     N
C       0.7629   0.7736  0.32968     C
C       0.7632   0.2637  0.65879     C
Zn     0.76426  0.60833  0.31642    Zn
N       0.7678  0.80215  0.88212     N
C       0.7706   0.0066   0.9105     C
C       0.7712   0.9714  0.95628     C
N       0.7719   0.0831  0.58289     N
N       0.7817   0.5848  0.08368     N
N       0.7831   0.6666  0.24524     N
N       0.7852   0.1232  0.53693     N
C       0.7856   0.3069  0.61104     C
O        0.791  0.25697  0.83406     O
C       0.7935   0.4576  0.45651     C
C       0.7945   0.8666  0.32712     C
Zn     0.79509   0.8569  0.80975    Zn
C        0.797   0.6937   0.8009     C
C       0.8079   0.4884  0.41037     C
N       0.8079   0.6245   0.0389     N
C       0.8084   0.2158  0.44907     C
N       0.8099  0.90632  0.73801     N
O       0.8101  0.20433   0.3023     O
C       0.8116   0.0243  0.19312     C
C        0.813   0.5949  0.80554     C
C       0.8136    0.256  0.40403     C
C       0.8153   0.7608  0.15653     C
C       0.8158   0.4719  0.14556     C
H       0.8183   0.0842   0.1938     H
C       0.8199   0.5125  0.69236     C
H       0.8223   0.9777   0.8903     H
H       0.8234   0.9206   0.9662     H
H       0.8249   0.4214   0.8188     H
H       0.8258   0.0365   0.3171     H
C       0.8314   0.8117  0.10993     C
C       0.8368   0.2041  0.73386     C
C       0.8409    0.359  0.21134     C
H       0.8426   0.4077   0.4699     H
C       0.8433    0.981  0.64545     C
C       0.8475    0.513  0.09781     C
O        0.852  0.71329  0.33213     O
H       0.8521   0.4536   0.6937     H
C       0.8526   0.7315  0.95399     C
C       0.8594   0.0229  0.59691     C
C       0.8611   0.2433  0.68969     C
C       0.8649    0.772  0.90912     C
H       0.8678   0.6318    0.692     H
O       0.8686  0.05665   0.8125     O
H       0.8686   0.4587   0.3935     H
C       0.8726    0.392  0.16672     C
H       0.8764   0.8762   0.3324     H
H       0.8807    0.188   0.4632     H
H        0.882   0.3056   0.2248     H
H       0.8907   0.2554   0.3886     H
O       0.8928  0.73353  0.80321     O
H       0.8938   0.5684   0.8027     H
C       0.8966   0.6733  0.22512     C
C       0.9001   0.5736  0.69118     C
O      0.90175  0.37788   0.3189     O
H       0.9029   0.1915    0.754     H
C       0.9034   0.8767  0.71218     C
H       0.9083   0.9108    0.193     H
H       0.9091   0.3049   0.5569     H
C       0.9144   0.2972  0.58986     C
C       0.9155   0.9713  0.19096     C
C       0.9174   0.7183  0.18182     C
O       0.9186  0.52432  0.30755     O
H       0.9209   0.4125   0.0651     H
H       0.9232    0.711   0.9711     H
C       0.9235   0.9118  0.66645     C
H       0.9328   0.3603   0.1506     H
H       0.9418   0.2562   0.6803     H
H        0.945   0.7788   0.8968     H
C       0.9462   0.4685  0.07028     C
O      0.94864  0.91522  0.82203     O
H       0.9502   0.8346   0.0552     H
H       0.9537   0.2392   0.6007     H
H       0.9564   0.0056   0.4156     H
C       0.9574   0.9983  0.81452     C
C       0.9579   0.8138  0.08758     C
H       0.9584     0.83   0.7254     H
H       0.9587   0.5052   0.0412     H
H       0.9598   0.9325   0.5639     H
C       0.9627   0.4449  0.31139     C
H        0.963   0.3414   0.5983     H
H       0.9654   0.6457   0.2415     H
C       0.9677   0.9923  0.56867     C
H       0.9696   0.0302   0.5394     H
H       0.9772   0.5411   0.9133     H
H       0.9909   0.8888   0.6498     H
H       0.9949   0.1471   0.8989     H
H       0.9982   0.7207   0.1694     H
H       0.9999   0.2449    0.908     H
