data_I
_chemical_name_common  '/home/zhangsd/repos/MofS-CGCNN/ML/data/TSD/clean_cifs/QOBPEE_clean'
_cell_length_a 25.09860
_cell_length_b  4.86660
_cell_length_c 24.03590
_cell_angle_alpha 90.00000
_cell_angle_beta  117.20000
_cell_angle_gamma 90.00000
_space_group_name_H-M_alt      'P 1'


loop_
_space_group_symop_operation_xyz
  'x, y, z' 

loop_
_atom_site_label
_atom_site_fract_x
_atom_site_fract_y
_atom_site_fract_z
_atom_site_type_symbol
O      0.00344   0.4641  0.67115     O
O      0.00344   0.5359  0.17115     O
H       0.0239   0.0455   0.3328     H
H       0.0239   0.9545   0.8328     H
O      0.05807   0.0125  0.85356     O
O      0.05807   0.9875  0.35356     O
Be      0.0599   0.3468   0.8405    Be
Be      0.0599   0.6532   0.3405    Be
P      0.06565  0.48725  0.22332     P
P      0.06565  0.51275  0.72332     P
O      0.06975    0.167   0.2261     O
O      0.06975    0.833   0.7261     O
O      0.07611    0.401  0.78534     O
O      0.07611    0.599  0.28534     O
H        0.105   0.1201   0.2409     H
H        0.105   0.8799   0.7409     H
O      0.11057    0.465  0.90523     O
O      0.11057    0.535  0.40523     O
O      0.11258   0.4055  0.70528     O
O      0.11258   0.5945  0.20528     O
P      0.17659  0.47397  0.43645     P
P      0.17659  0.52603  0.93645     P
Be     0.18285   0.3294  0.74933    Be
Be     0.18285   0.6706  0.24933    Be
O      0.18351   0.0168  0.77404     O
O      0.18351   0.9832  0.27404     O
O       0.1866   0.1765  0.42668     O
O       0.1866   0.8235  0.92668     O
O      0.20338   0.4414  0.00384     O
O      0.20338   0.5586  0.50384     O
O      0.20911   0.3428  0.90555     O
O      0.20911   0.6572  0.40555     O
O      0.21413   0.4628  0.31077     O
O      0.21413   0.5372  0.81077     O
O      0.21459   0.3528  0.70585     O
O      0.21459   0.6472  0.20585     O
O      0.23539   0.4272  0.61708     O
O      0.23539   0.5728  0.11708     O
P      0.23747  0.16266  0.31487     P
P      0.23747  0.83734  0.81487     P
Be      0.2394   0.0175  0.92929    Be
Be      0.2394   0.9825  0.42929    Be
Be      0.2606   0.4825  0.07071    Be
Be      0.2606   0.5175  0.57071    Be
P      0.26253  0.33734  0.68513     P
P      0.26253  0.66266  0.18513     P
O      0.26461   0.0728  0.38292     O
O      0.26461   0.9272  0.88292     O
O      0.28541   0.1472  0.29415     O
O      0.28541   0.8528  0.79415     O
O      0.28587   0.0372  0.68923     O
O      0.28587   0.9628  0.18923     O
O      0.29089   0.1572  0.09445     O
O      0.29089   0.8428  0.59445     O
O      0.29662   0.0586  0.99616     O
O      0.29662   0.9414  0.49616     O
O       0.3134   0.3235  0.57332     O
O       0.3134   0.6765  0.07332     O
O      0.31649   0.4832  0.22596     O
O      0.31649   0.5168  0.72596     O
Be     0.31715   0.1706  0.25067    Be
Be     0.31715   0.8294  0.75067    Be
P      0.32341  0.02603  0.56355     P
P      0.32341  0.97397  0.06355     P
O      0.38742   0.0945  0.29472     O
O      0.38742   0.9055  0.79472     O
O      0.38943    0.035  0.09477     O
O      0.38943    0.965  0.59477     O
H        0.395   0.3799   0.7591     H
H        0.395   0.6201   0.2591     H
O      0.42389    0.099  0.21466     O
O      0.42389    0.901  0.71466     O
O      0.43025    0.333   0.7739     O
O      0.43025    0.667   0.2739     O
P      0.43435  0.01275  0.77668     P
P      0.43435  0.98725  0.27668     P
Be      0.4401   0.1532   0.1595    Be
Be      0.4401   0.8468   0.6595    Be
O      0.44193   0.4875  0.14644     O
O      0.44193   0.5125  0.64644     O
H       0.4761   0.4545   0.6672     H
H       0.4761   0.5455   0.1672     H
O      0.49656   0.0359  0.32885     O
O      0.49656   0.9641  0.82885     O
O      0.50344   0.0359  0.17115     O
O      0.50344   0.9641  0.67115     O
H       0.5239   0.4545   0.8328     H
H       0.5239   0.5455   0.3328     H
O      0.55807   0.4875  0.35356     O
O      0.55807   0.5125  0.85356     O
Be      0.5599   0.1532   0.3405    Be
Be      0.5599   0.8468   0.8405    Be
P      0.56565  0.01275  0.72332     P
P      0.56565  0.98725  0.22332     P
O      0.56975    0.333   0.7261     O
O      0.56975    0.667   0.2261     O
O      0.57611    0.099  0.28534     O
O      0.57611    0.901  0.78534     O
H        0.605   0.3799   0.7409     H
H        0.605   0.6201   0.2409     H
O      0.61057    0.035  0.40523     O
O      0.61057    0.965  0.90523     O
O      0.61258   0.0945  0.20528     O
O      0.61258   0.9055  0.70528     O
P      0.67659  0.02603  0.93645     P
P      0.67659  0.97397  0.43645     P
Be     0.68285   0.1706  0.24933    Be
Be     0.68285   0.8294  0.74933    Be
O      0.68351   0.4832  0.27404     O
O      0.68351   0.5168  0.77404     O
O       0.6866   0.3235  0.92668     O
O       0.6866   0.6765  0.42668     O
O      0.70338   0.0586  0.50384     O
O      0.70338   0.9414  0.00384     O
O      0.70911   0.1572  0.40555     O
O      0.70911   0.8428  0.90555     O
O      0.71413   0.0372  0.81077     O
O      0.71413   0.9628  0.31077     O
O      0.71459   0.1472  0.20585     O
O      0.71459   0.8528  0.70585     O
O      0.73539   0.0728  0.11708     O
O      0.73539   0.9272  0.61708     O
P      0.73747  0.33734  0.81487     P
P      0.73747  0.66266  0.31487     P
Be      0.7394   0.4825  0.42929    Be
Be      0.7394   0.5175  0.92929    Be
Be      0.7606   0.0175  0.57071    Be
Be      0.7606   0.9825  0.07071    Be
P      0.76253  0.16266  0.18513     P
P      0.76253  0.83734  0.68513     P
O      0.76461   0.4272  0.88292     O
O      0.76461   0.5728  0.38292     O
O      0.78541   0.3528  0.79415     O
O      0.78541   0.6472  0.29415     O
O      0.78587   0.4628  0.18923     O
O      0.78587   0.5372  0.68923     O
O      0.79089   0.3428  0.59445     O
O      0.79089   0.6572  0.09445     O
O      0.79662   0.4414  0.49616     O
O      0.79662   0.5586  0.99616     O
O       0.8134   0.1765  0.07332     O
O       0.8134   0.8235  0.57332     O
O      0.81649   0.0168  0.72596     O
O      0.81649   0.9832  0.22596     O
Be     0.81715   0.3294  0.75067    Be
Be     0.81715   0.6706  0.25067    Be
P      0.82341  0.47397  0.06355     P
P      0.82341  0.52603  0.56355     P
O      0.88742   0.4055  0.79472     O
O      0.88742   0.5945  0.29472     O
O      0.88943    0.465  0.59477     O
O      0.88943    0.535  0.09477     O
H        0.895   0.1201   0.2591     H
H        0.895   0.8799   0.7591     H
O      0.92389    0.401  0.71466     O
O      0.92389    0.599  0.21466     O
O      0.93025    0.167   0.2739     O
O      0.93025    0.833   0.7739     O
P      0.93435  0.48725  0.27668     P
P      0.93435  0.51275  0.77668     P
Be      0.9401   0.3468   0.6595    Be
Be      0.9401   0.6532   0.1595    Be
O      0.94193   0.0125  0.64644     O
O      0.94193   0.9875  0.14644     O
H       0.9761   0.0455   0.1672     H
H       0.9761   0.9545   0.6672     H
O      0.99656   0.4641  0.82885     O
O      0.99656   0.5359  0.32885     O
