data_I
_chemical_name_common  '/home/zhangsd/repos/MofS-CGCNN/ML/data/TSD/clean_cifs/QOHTUD_clean'
_cell_length_a  9.40440
_cell_length_b 13.12570
_cell_length_c 19.88990
_cell_angle_alpha 109.26600
_cell_angle_beta  102.46600
_cell_angle_gamma 90.00000
_space_group_name_H-M_alt      'P 1'


loop_
_space_group_symop_operation_xyz
  'x, y, z' 

loop_
_atom_site_label
_atom_site_fract_x
_atom_site_fract_y
_atom_site_fract_z
_atom_site_type_symbol
C       0.0041  0.97208  0.96656     C
H       0.0103   0.0268   0.5696     H
H       0.0191   0.1031   0.0492     H
C       0.0208  0.51154  0.53588     C
H       0.0213   0.8723   0.8318     H
O       0.0402   0.2751  0.28526     O
N       0.0418  0.89408  0.33724     N
C       0.0459  0.01562  0.91364     C
C        0.046  0.94665   0.8445     C
H       0.0532   0.4819   0.4382     H
H       0.0585   0.7281   0.4184     H
H       0.0598   0.2122   0.3946     H
O       0.0615  0.58946   0.2948     O
C       0.0694  0.95154  0.40888     C
H       0.0786   0.9373   0.7468     H
C       0.0819  0.98616  0.79392     C
C       0.0857  0.12323  0.92826     C
H       0.0876   0.1739   0.9746     H
N       0.1211  0.09006   0.8081     N
C       0.1226  0.15651  0.87522     C
H       0.1235   0.5436   0.6758     H
H       0.1407   0.8246   0.2576     H
C       0.1462   0.6938  0.41888     C
C       0.1468  0.24897  0.39614     C
H       0.1504   0.2303    0.887     H
H       0.1541   0.8448    0.547     H
C       0.1565  0.28292  0.33284     C
C       0.1576  0.86466  0.30772     C
H       0.1606    0.212   0.5208     H
C       0.1608  0.60475  0.35194     C
C       0.1712  0.52774  0.57814     C
Co     0.17572   0.1429  0.72502    Co
C       0.2008  0.54293  0.65266     C
C       0.2069  0.98034  0.45228     C
H       0.2202   0.0205   0.5022     H
O       0.2206  0.98877  0.66736     O
O       0.2312  0.19241  0.64374     O
C       0.2438  0.81368   0.5454     C
C       0.2473  0.24738  0.52052     C
C       0.2527  0.72686  0.47948     C
C       0.2562  0.26828   0.4546     C
O       0.2688  0.54867  0.35626     O
O       0.2794  0.32141  0.33264     O
H       0.2798   0.5183   0.4978     H
C       0.2931  0.52806  0.54772     C
C       0.2992  0.89027  0.34734     C
Co     0.32428  0.41788  0.27498    Co
C       0.3288   0.9496  0.42186     C
C       0.3392  0.25281  0.64806     C
H       0.3394   0.6912   0.4792     H
C       0.3424  0.55694  0.69228     C
C       0.3435  0.95008  0.66716     C
H       0.3459   0.2978    0.453     H
H       0.3496   0.3433    0.113     H
C       0.3532  0.85283  0.60386     C
C       0.3538  0.27492  0.58112     C
H       0.3593    0.567   0.7424     H
H       0.3765   0.8678   0.3242     H
C       0.3774  0.28129  0.12478     C
N       0.3789  0.28196   0.1919     N
H       0.4124   0.1993   0.0254     H
C       0.4143  0.19497  0.07174     C
C       0.4181  0.19224  0.20608     C
H       0.4214   0.1905   0.2532     H
C       0.4306  0.54266  0.59112     C
O       0.4385  0.29466   0.7052     O
H       0.4402   0.8176   0.6054     H
H       0.4415   0.3097   0.5816     H
H       0.4468   0.0437   0.5618     H
C        0.454  0.10215   0.1555     C
C       0.4541  0.10198  0.08636     C
N       0.4582  0.55684  0.66276     N
O       0.4598  0.98984  0.71474     O
H       0.4787   0.0405   0.1682     H
C       0.4792  0.97566  0.46412     C
H       0.4809   0.0539   0.9508     H
H       0.4897   0.4572   0.4304     H
C       0.4959  0.00552  0.03344     C
C       0.5041  0.99448  0.96656     C
H       0.5103   0.5428   0.5696     H
H       0.5191   0.9461   0.0492     H
C       0.5208  0.02434  0.53588     C
H       0.5213   0.9595   0.8318     H
O       0.5402  0.01016  0.28526     O
N       0.5418  0.44316  0.33724     N
C       0.5459  0.89802  0.91364     C
C        0.546  0.89785   0.8445     C
H       0.5532   0.9563   0.4382     H
H       0.5585   0.6903   0.4184     H
H       0.5598   0.1824   0.3946     H
O       0.5615  0.70534   0.2948     O
C       0.5694  0.45734  0.40888     C
H       0.5786   0.8095   0.7468     H
C       0.5819  0.80776  0.79392     C
C       0.5857  0.80503  0.92826     C
H       0.5876   0.8007   0.9746     H
N       0.6211  0.71804   0.8081     N
C       0.6226  0.71871  0.87522     C
H       0.6235   0.1322   0.6758     H
H       0.6407    0.433   0.2576     H
C       0.6462  0.72508  0.41888     C
C       0.6468  0.14717  0.39614     C
H       0.6504   0.6567    0.887     H
H       0.6541   0.7022    0.547     H
C       0.6565  0.04992  0.33284     C
C       0.6576  0.44306  0.30772     C
H       0.6606   0.3088   0.5208     H
C       0.6608  0.74719  0.35194     C
C       0.6712   0.0504  0.57814     C
Co     0.67572  0.58212  0.72502    Co
C       0.7008  0.10973  0.65266     C
C       0.7069  0.47194  0.45228     C
H       0.7202   0.4817   0.5022     H
O       0.7206  0.67859  0.66736     O
O       0.7312  0.45133  0.64374     O
C       0.7438  0.73172   0.5454     C
C       0.7473  0.27314  0.52052     C
C       0.7527  0.75262  0.47948     C
C       0.7562  0.18632   0.4546     C
O       0.7688  0.80759  0.35626     O
O       0.7794  0.01123  0.33264     O
H       0.7798   0.9795   0.4978     H
C       0.7931  0.01966  0.54772     C
C       0.7992  0.45707  0.34734     C
Co     0.82428   0.8571  0.27498    Co
C       0.8288  0.47226  0.42186     C
C       0.8392  0.39525  0.64806     C
H       0.8394    0.788   0.4792     H
C       0.8424  0.13534  0.69228     C
C       0.8435  0.71708  0.66716     C
H       0.8459   0.1552    0.453     H
H       0.8496   0.7697    0.113     H
C       0.8532  0.75103  0.60386     C
C       0.8538   0.3062  0.58112     C
H       0.8593   0.1754   0.7424     H
H       0.8765   0.4564   0.3242     H
C       0.8774  0.84349  0.12478     C
N       0.8789  0.90994   0.1919     N
H       0.9124   0.8261   0.0254     H
C       0.9143  0.87677  0.07174     C
C       0.9181  0.01384  0.20608     C
H       0.9214   0.0627   0.2532     H
C       0.9306  0.04846  0.59112     C
O       0.9385  0.41054   0.7052     O
H       0.9402   0.7878   0.6054     H
H       0.9415   0.2719   0.5816     H
H       0.9468   0.5181   0.5618     H
C        0.954  0.05335   0.1555     C
C       0.9541  0.98438  0.08636     C
N       0.9582  0.10592  0.66276     N
O       0.9598   0.7249  0.71474     O
H       0.9787   0.1277   0.1682     H
C       0.9792  0.48846  0.46412     C
H       0.9809   0.8969   0.9508     H
H       0.9897   0.9732   0.4304     H
C       0.9959  0.02792  0.03344     C
