data_I
_chemical_name_common  '/home/zhangsd/repos/MofS-CGCNN/ML/data/TSD/clean_cifs/QOHYET_clean'
_cell_length_a 12.48180
_cell_length_b 21.76300
_cell_length_c 16.50900
_cell_angle_alpha 90.00000
_cell_angle_beta  103.57700
_cell_angle_gamma 90.00000
_space_group_name_H-M_alt      'P 1'


loop_
_space_group_symop_operation_xyz
  'x, y, z' 

loop_
_atom_site_label
_atom_site_fract_x
_atom_site_fract_y
_atom_site_fract_z
_atom_site_type_symbol
O          0.0   0.0043     0.25     O
O          0.0   0.9957     0.75     O
C       0.0102   0.4508   0.6407     C
C       0.0102   0.5492   0.1407     C
C       0.0131   0.3927   0.1419     C
C       0.0131   0.6073   0.6419     C
Ce     0.02894  0.04738  0.90021    Ce
Ce     0.02894  0.95262  0.40021    Ce
H       0.0324   0.3909   0.4114     H
H       0.0324   0.6091   0.9114     H
C       0.0341   0.3925   0.2894     C
C       0.0341   0.6075   0.7894     C
C       0.0413   0.4512   0.7273     C
C       0.0413   0.5488   0.2273     C
H       0.0575   0.0262   0.2658     H
H       0.0575   0.9738   0.7658     H
H       0.0642     0.45   0.6104     H
H       0.0642     0.55   0.1104     H
O       0.0745   0.0621   0.4918     O
O       0.0745   0.9379   0.9918     O
C       0.0986   0.4515   0.9007     C
C       0.0986   0.5485   0.4007     C
H       0.1182   0.4507   0.9586     H
H       0.1182   0.5493   0.4586     H
O       0.1209   0.1066   0.6897     O
O       0.1209   0.8934   0.1897     O
C       0.1243   0.3956   0.1515     C
C       0.1243   0.6044   0.6515     C
O       0.1307   0.0234   0.1375     O
O       0.1307   0.9766   0.6375     O
C       0.1363    0.079   0.4444     C
C       0.1363    0.921   0.9444     C
H       0.1368   0.1657   0.5581     H
H       0.1368   0.8343   0.0581     H
C       0.1494    0.393   0.2978     C
C       0.1494    0.607   0.7978     C
O       0.1533   0.0879   0.8247     O
C       0.1533   0.4526   0.7717     C
C       0.1533   0.5474   0.2717     C
O       0.1533   0.9121   0.3247     O
H       0.1539    0.398    0.105     H
H       0.1539    0.602    0.605     H
O       0.1569   0.0445   0.3911     O
O       0.1569   0.9555   0.8911     O
H       0.1696   0.2659   0.6323     H
H       0.1696   0.7341   0.1323     H
C       0.1756   0.1798   0.5201     C
C       0.1756   0.8202   0.0201     C
O       0.1782   0.0584    0.023     O
O       0.1782   0.9416    0.523     O
C       0.1809   0.4535   0.8549     C
C       0.1809   0.5465   0.3549     C
C       0.1839   0.0994   0.7592     C
C       0.1839   0.9006   0.2592     C
C       0.1862   0.1425   0.4565     C
C       0.1862   0.8575   0.9565     C
C       0.1938   0.3949   0.2311     C
C       0.1938   0.6051   0.7311     C
H       0.1957    0.392   0.3509     H
H       0.1957    0.608   0.8509     H
C       0.2002   0.0433   0.0981     C
C       0.2002   0.9567   0.5981     C
H       0.2085   0.4528   0.7423     H
H       0.2085   0.5472   0.2423     H
C       0.2093    0.279   0.5943     C
C       0.2093    0.721   0.0943     C
C       0.2212   0.2387   0.5299     C
C       0.2212   0.7613   0.0299     C
C       0.2457   0.1631   0.3974     C
C       0.2457   0.8369   0.8974     C
H       0.2462   0.3623    0.646     H
H       0.2462   0.6377    0.146     H
H       0.2538   0.1377    0.354     H
H       0.2538   0.8623    0.854     H
C       0.2543   0.3369   0.6026     C
C       0.2543   0.6631   0.1026     C
C       0.2788   0.2613   0.4701     C
C       0.2788   0.7387   0.9701     C
C       0.2907    0.221   0.4057     C
C       0.2907    0.779   0.9057     C
H       0.2915   0.0472   0.2577     H
H       0.2915   0.9528   0.7577     H
C       0.2998   0.4567   0.9019     C
C       0.2998   0.5433   0.4019     C
H       0.3043    0.108   0.6491     H
H       0.3043    0.892   0.1491     H
C       0.3062   0.1051   0.7689     C
C       0.3062   0.8949   0.2689     C
C       0.3138   0.3575   0.5435     C
C       0.3138   0.6425   0.0435     C
C       0.3161   0.4006   0.2408     C
C       0.3161   0.5994   0.7408     C
C       0.3191   0.0465   0.1451     C
C       0.3191   0.9535   0.6451     C
O       0.3218   0.4416    0.977     O
O       0.3218   0.5584    0.477     O
C       0.3244   0.3202   0.4799     C
C       0.3244   0.6798   0.9799     C
H       0.3304   0.2341   0.3677     H
H       0.3304   0.7659   0.8677     H
O       0.3431   0.4555   0.6089     O
O       0.3431   0.5445   0.1089     O
H       0.3461    0.102    0.895     H
H       0.3461    0.898    0.395     H
C       0.3467   0.0474   0.2283     C
O       0.3467   0.4121   0.1753     O
O       0.3467   0.5879   0.6753     O
C       0.3467   0.9526   0.7283     C
C       0.3506    0.107   0.7022     C
C       0.3506    0.893   0.2022     C
H       0.3632   0.3343   0.4419     H
H       0.3632   0.6657   0.9419     H
C       0.3637    0.421   0.5556     C
C       0.3637    0.579   0.0556     C
O       0.3693   0.4766   0.8625     O
O       0.3693   0.5234   0.3625     O
C       0.3757   0.1044   0.8485     C
C       0.3757   0.8956   0.3485     C
O       0.3791   0.3934   0.3103     O
O       0.3791   0.6066   0.8103     O
H       0.3818   0.0493   0.0414     H
H       0.3818   0.9507   0.5414     H
C       0.4014   0.0485   0.0993     C
C       0.4014   0.9515   0.5993     C
O       0.4255   0.4379   0.5082     O
O       0.4255   0.5621   0.0082     O
H       0.4358     0.05   0.3896     H
H       0.4358     0.95   0.8896     H
H       0.4425   0.4738   0.7342     H
H       0.4425   0.5262   0.2342     H
C       0.4587   0.0488   0.2727     C
C       0.4587   0.9512   0.7727     C
C       0.4659   0.1075   0.7106     C
C       0.4659   0.8925   0.2106     C
H       0.4676   0.1091   0.5886     H
H       0.4676   0.8909   0.0886     H
Ce     0.47106  0.45262  0.09979    Ce
Ce     0.47106  0.54738  0.59979    Ce
C       0.4869   0.1073   0.8581     C
C       0.4869   0.8927   0.3581     C
C       0.4898   0.0492   0.3593     C
C       0.4898   0.9508   0.8593     C
O          0.5   0.4957     0.75     O
O          0.5   0.5043     0.25     O
C       0.5102   0.0492   0.1407     C
C       0.5102   0.9508   0.6407     C
C       0.5131   0.1073   0.6419     C
C       0.5131   0.8927   0.1419     C
Ce     0.52894  0.45262  0.40021    Ce
Ce     0.52894  0.54738  0.90021    Ce
H       0.5324   0.1091   0.9114     H
H       0.5324   0.8909   0.4114     H
C       0.5341   0.1075   0.7894     C
C       0.5341   0.8925   0.2894     C
C       0.5413   0.0488   0.2273     C
C       0.5413   0.9512   0.7273     C
H       0.5575   0.4738   0.7658     H
H       0.5575   0.5262   0.2658     H
H       0.5642     0.05   0.1104     H
H       0.5642     0.95   0.6104     H
O       0.5745   0.4379   0.9918     O
O       0.5745   0.5621   0.4918     O
C       0.5986   0.0485   0.4007     C
C       0.5986   0.9515   0.9007     C
H       0.6182   0.0493   0.4586     H
H       0.6182   0.9507   0.9586     H
O       0.6209   0.3934   0.1897     O
O       0.6209   0.6066   0.6897     O
C       0.6243   0.1044   0.6515     C
C       0.6243   0.8956   0.1515     C
O       0.6307   0.4766   0.6375     O
O       0.6307   0.5234   0.1375     O
C       0.6363    0.421   0.9444     C
C       0.6363    0.579   0.4444     C
H       0.6368   0.3343   0.0581     H
H       0.6368   0.6657   0.5581     H
C       0.6494    0.107   0.7978     C
C       0.6494    0.893   0.2978     C
C       0.6533   0.0474   0.2717     C
O       0.6533   0.4121   0.3247     O
O       0.6533   0.5879   0.8247     O
C       0.6533   0.9526   0.7717     C
H       0.6539    0.102    0.605     H
H       0.6539    0.898    0.105     H
O       0.6569   0.4555   0.8911     O
O       0.6569   0.5445   0.3911     O
H       0.6696   0.2341   0.1323     H
H       0.6696   0.7659   0.6323     H
C       0.6756   0.3202   0.0201     C
C       0.6756   0.6798   0.5201     C
O       0.6782   0.4416    0.523     O
O       0.6782   0.5584    0.023     O
C       0.6809   0.0465   0.3549     C
C       0.6809   0.9535   0.8549     C
C       0.6839   0.4006   0.2592     C
C       0.6839   0.5994   0.7592     C
C       0.6862   0.3575   0.9565     C
C       0.6862   0.6425   0.4565     C
C       0.6938   0.1051   0.7311     C
C       0.6938   0.8949   0.2311     C
H       0.6957    0.108   0.8509     H
H       0.6957    0.892   0.3509     H
C       0.7002   0.4567   0.5981     C
C       0.7002   0.5433   0.0981     C
H       0.7085   0.0472   0.2423     H
H       0.7085   0.9528   0.7423     H
C       0.7093    0.221   0.0943     C
C       0.7093    0.779   0.5943     C
C       0.7212   0.2613   0.0299     C
C       0.7212   0.7387   0.5299     C
C       0.7457   0.3369   0.8974     C
C       0.7457   0.6631   0.3974     C
H       0.7462   0.1377    0.146     H
H       0.7462   0.8623    0.646     H
H       0.7538   0.3623    0.854     H
H       0.7538   0.6377    0.354     H
C       0.7543   0.1631   0.1026     C
C       0.7543   0.8369   0.6026     C
C       0.7788   0.2387   0.9701     C
C       0.7788   0.7613   0.4701     C
C       0.7907    0.279   0.9057     C
C       0.7907    0.721   0.4057     C
H       0.7915   0.4528   0.7577     H
H       0.7915   0.5472   0.2577     H
C       0.7998   0.0433   0.4019     C
C       0.7998   0.9567   0.9019     C
H       0.8043    0.392   0.1491     H
H       0.8043    0.608   0.6491     H
C       0.8062   0.3949   0.2689     C
C       0.8062   0.6051   0.7689     C
C       0.8138   0.1425   0.0435     C
C       0.8138   0.8575   0.5435     C
C       0.8161   0.0994   0.7408     C
C       0.8161   0.9006   0.2408     C
C       0.8191   0.4535   0.6451     C
C       0.8191   0.5465   0.1451     C
O       0.8218   0.0584    0.477     O
O       0.8218   0.9416    0.977     O
C       0.8244   0.1798   0.9799     C
C       0.8244   0.8202   0.4799     C
H       0.8304   0.2659   0.8677     H
H       0.8304   0.7341   0.3677     H
O       0.8431   0.0445   0.1089     O
O       0.8431   0.9555   0.6089     O
H       0.8461    0.398    0.395     H
H       0.8461    0.602    0.895     H
O       0.8467   0.0879   0.6753     O
C       0.8467   0.4526   0.7283     C
C       0.8467   0.5474   0.2283     C
O       0.8467   0.9121   0.1753     O
C       0.8506    0.393   0.2022     C
C       0.8506    0.607   0.7022     C
H       0.8632   0.1657   0.9419     H
H       0.8632   0.8343   0.4419     H
C       0.8637    0.079   0.0556     C
C       0.8637    0.921   0.5556     C
O       0.8693   0.0234   0.3625     O
O       0.8693   0.9766   0.8625     O
C       0.8757   0.3956   0.3485     C
C       0.8757   0.6044   0.8485     C
O       0.8791   0.1066   0.8103     O
O       0.8791   0.8934   0.3103     O
H       0.8818   0.4507   0.5414     H
H       0.8818   0.5493   0.0414     H
C       0.9014   0.4515   0.5993     C
C       0.9014   0.5485   0.0993     C
O       0.9255   0.0621   0.0082     O
O       0.9255   0.9379   0.5082     O
H       0.9358     0.45   0.8896     H
H       0.9358     0.55   0.3896     H
H       0.9425   0.0262   0.2342     H
H       0.9425   0.9738   0.7342     H
C       0.9587   0.4512   0.7727     C
C       0.9587   0.5488   0.2727     C
C       0.9659   0.3925   0.2106     C
C       0.9659   0.6075   0.7106     C
H       0.9676   0.3909   0.0886     H
H       0.9676   0.6091   0.5886     H
Ce     0.97106  0.04738  0.59979    Ce
Ce     0.97106  0.95262  0.09979    Ce
C       0.9869   0.3927   0.3581     C
C       0.9869   0.6073   0.8581     C
C       0.9898   0.4508   0.8593     C
C       0.9898   0.5492   0.3593     C
