data_I
_chemical_name_common  '/home/zhangsd/repos/MofS-CGCNN/ML/data/TSD/clean_cifs/QOPDEE_clean'
_cell_length_a 14.31960
_cell_length_b 16.25500
_cell_length_c  8.85520
_cell_angle_alpha 90.00000
_cell_angle_beta  90.13400
_cell_angle_gamma 90.00000
_space_group_name_H-M_alt      'P 1'


loop_
_space_group_symop_operation_xyz
  'x, y, z' 

loop_
_atom_site_label
_atom_site_fract_x
_atom_site_fract_y
_atom_site_fract_z
_atom_site_type_symbol
P      0.02529  0.21227  0.88804     P
P      0.02529  0.28773  0.38804     P
Ga     0.02682  0.62912  0.91321    Ga
Ga     0.02682  0.87088  0.41321    Ga
O       0.0284   0.7141   0.0515     O
O       0.0284   0.7859   0.5515     O
O       0.0414   0.6655   0.7162     O
O       0.0414   0.8345   0.2162     O
O       0.0532   0.1532   0.0141     O
O       0.0532   0.3468   0.5141     O
O       0.0823   0.0666   0.5814     O
O       0.0823   0.4334   0.0814     O
O       0.0979   0.0632   0.2988     O
O       0.0979   0.4368   0.7988     O
O       0.1124   0.2398   0.8015     O
O       0.1124   0.2602   0.3015     O
O       0.1306   0.5632   0.9524     O
O       0.1306   0.9368   0.4524     O
Zn     0.13163  0.16146  0.19065    Zn
Zn     0.13163  0.33854  0.69065    Zn
P       0.1376  0.03131  0.44737     P
P       0.1376  0.46869  0.94737     P
O       0.2385   0.0567   0.4735     O
O       0.2385   0.4433   0.9735     O
O        0.253   0.1457    0.107     O
O        0.253   0.3543    0.607     O
P      0.35484  0.15297  0.14662     P
P      0.35484  0.34703  0.64662     P
Zn     0.36469   0.0382  0.42192    Zn
Zn     0.36469   0.4618  0.92192    Zn
O        0.369   0.2283   0.2447     O
O        0.369   0.2717   0.7447     O
O       0.3922   0.0762   0.2261     O
O       0.3922   0.4238   0.7261     O
O       0.3944    0.572   0.9407     O
O       0.3944    0.928   0.4407     O
O       0.4099   0.1566   0.9982     O
O       0.4099   0.3434   0.4982     O
O       0.4309   0.0928   0.5802     O
O       0.4309   0.4072   0.0802     O
O       0.4576   0.6677   0.7551     O
O       0.4576   0.8323   0.2551     O
O       0.4618   0.6982    0.031     O
O       0.4618   0.8018    0.531     O
Ga     0.46346  0.22976  0.86563    Ga
Ga     0.46346  0.27024  0.36563    Ga
P      0.47243  0.63143    0.912     P
P      0.47243  0.86857    0.412     P
P      0.52757  0.13143    0.588     P
P      0.52757  0.36857    0.088     P
Ga     0.53654  0.72976  0.63437    Ga
Ga     0.53654  0.77024  0.13437    Ga
O       0.5382   0.1982    0.469     O
O       0.5382   0.3018    0.969     O
O       0.5424   0.1677   0.7449     O
O       0.5424   0.3323   0.2449     O
O       0.5691   0.5928   0.9198     O
O       0.5691   0.9072   0.4198     O
O       0.5901   0.6566   0.5018     O
O       0.5901   0.8434   0.0018     O
O       0.6056    0.072   0.5593     O
O       0.6056    0.428   0.0593     O
O       0.6078   0.5762   0.2739     O
O       0.6078   0.9238   0.7739     O
O        0.631   0.7283   0.2553     O
O        0.631   0.7717   0.7553     O
Zn     0.63531   0.5382  0.07808    Zn
Zn     0.63531   0.9618  0.57808    Zn
P      0.64516  0.65297  0.35338     P
P      0.64516  0.84703  0.85338     P
O        0.747   0.6457    0.393     O
O        0.747   0.8543    0.893     O
O       0.7615   0.5567   0.0265     O
O       0.7615   0.9433   0.5265     O
P       0.8624  0.53131  0.05263     P
P       0.8624  0.96869  0.55263     P
Zn     0.86837  0.66146  0.30935    Zn
Zn     0.86837  0.83854  0.80935    Zn
O       0.8694   0.0632   0.5476     O
O       0.8694   0.4368   0.0476     O
O       0.8876   0.7398   0.6985     O
O       0.8876   0.7602   0.1985     O
O       0.9021   0.5632   0.2012     O
O       0.9021   0.9368   0.7012     O
O       0.9177   0.5666   0.9186     O
O       0.9177   0.9334   0.4186     O
O       0.9468   0.6532   0.4859     O
O       0.9468   0.8468   0.9859     O
O       0.9586   0.1655   0.7838     O
O       0.9586   0.3345   0.2838     O
O       0.9716   0.2141   0.4485     O
O       0.9716   0.2859   0.9485     O
Ga     0.97318  0.12912  0.58679    Ga
Ga     0.97318  0.37088  0.08679    Ga
P      0.97471  0.71227  0.61196     P
P      0.97471  0.78773  0.11196     P
