data_I
_chemical_name_common  '/home/zhangsd/repos/MofS-CGCNN/ML/data/TSD/clean_cifs/QOSJUF_clean'
_cell_length_a 10.79200
_cell_length_b 13.88900
_cell_length_c 19.73900
_cell_angle_alpha 90.00000
_cell_angle_beta  100.91000
_cell_angle_gamma 90.00000
_space_group_name_H-M_alt      'P 1'


loop_
_space_group_symop_operation_xyz
  'x, y, z' 

loop_
_atom_site_label
_atom_site_fract_x
_atom_site_fract_y
_atom_site_fract_z
_atom_site_type_symbol
O       0.0007   0.6912   0.0698     O
O       0.0007   0.8088   0.5698     O
C       0.0172   0.6522    0.773     C
C       0.0172   0.8478    0.273     C
H       0.0265   0.1298   0.2863     H
H       0.0265   0.3702   0.7863     H
C       0.0388   0.7353   0.7374     C
C       0.0388   0.7647   0.2374     C
C       0.0392   0.1841    0.261     C
C       0.0392   0.3159    0.761     C
O       0.0578   0.5091    0.151     O
O       0.0578   0.9909    0.651     O
O       0.0801   0.0609   0.4821     O
O       0.0801   0.4391   0.9821     O
C       0.0836   0.1517   0.6923     C
C       0.0836   0.3483   0.1923     C
C       0.0968   0.1445   0.4596     C
C       0.0968   0.3555   0.9596     C
O       0.0992   0.5202   0.7192     O
O       0.0992   0.9798   0.2192     O
H       0.1042   0.7374   0.7128     H
H       0.1042   0.7626   0.2128     H
C       0.1099   0.5691   0.7741     C
C       0.1099   0.9309   0.2741     C
C       0.1193   0.0675   0.6521     C
C       0.1193   0.4325   0.1521     C
N       0.1322    0.183   0.2238     N
N       0.1322    0.317   0.7238     N
C       0.1514   0.2368     0.69     C
C       0.1514   0.2632     0.19     C
Ho     0.15432  0.56839  0.05714    Ho
Ho     0.15432  0.93161  0.55714    Ho
O       0.1923   0.5591   0.8254     O
O       0.1923   0.9409   0.3254     O
O       0.2121   0.0764    0.623     O
O       0.2121   0.4236    0.123     O
H       0.2138   0.2376   0.6632     H
H       0.2138   0.2624   0.1632     H
H       0.2179   0.2472   0.9536     H
H       0.2179   0.2528   0.4536     H
C       0.2244   0.1854   0.4646     C
C       0.2244   0.3146   0.9646     C
H       0.2335   0.6129   0.6401     H
H       0.2335   0.8871   0.1401     H
Cu     0.24238  0.06994  0.21499    Cu
Cu     0.24238  0.43006  0.71499    Cu
O       0.2649   0.7256   0.0684     O
O       0.2649   0.7744   0.5684     O
H       0.2671   0.1529   0.4327     H
H       0.2671   0.3471   0.9327     H
H       0.2711   0.1772   0.5107     H
H       0.2711   0.3228   0.0107     H
O       0.2855   0.6337   0.1611     O
O       0.2855   0.8663   0.6611     O
C       0.3065   0.7124   0.1309     C
C       0.3065   0.7876   0.6309     C
C       0.3096   0.6197   0.6709     C
C       0.3096   0.8803   0.1709     C
N       0.3549   0.5438   0.7108     N
N       0.3549   0.9562   0.2108     N
C       0.3723   0.7075   0.6741     C
C       0.3723   0.7925   0.1741     C
H       0.3858   0.1411   0.7127     H
H       0.3858   0.3589   0.2127     H
O       0.3869   0.1595   0.2208     O
O       0.3869   0.3405   0.7208     O
O       0.4157     0.16   0.3363     O
O       0.4157     0.34   0.8363     O
C       0.4325   0.1934   0.2817     C
C       0.4325   0.3066   0.7817     C
C       0.4636   0.1377   0.7424     C
C       0.4636   0.3623   0.2424     C
C       0.4672   0.5532   0.7529     C
C       0.4672   0.9468   0.2529     C
C       0.4904   0.7174   0.7181     C
C       0.4904   0.7826   0.2181     C
H          0.5    0.001     0.72     H
H          0.5    0.499     0.22     H
H          0.5    0.501     0.78     H
H          0.5    0.999     0.28     H
C       0.5096   0.2174   0.7819     C
C       0.5096   0.2826   0.2819     C
C       0.5328   0.0532   0.7471     C
C       0.5328   0.4468   0.2471     C
C       0.5364   0.6377   0.7576     C
C       0.5364   0.8623   0.2576     C
C       0.5675   0.6934   0.2183     C
C       0.5675   0.8066   0.7183     C
O       0.5843     0.66   0.1637     O
O       0.5843     0.84   0.6637     O
O       0.6131   0.6595   0.2792     O
O       0.6131   0.8405   0.7792     O
H       0.6142   0.6411   0.7873     H
H       0.6142   0.8589   0.2873     H
C       0.6277   0.2075   0.8259     C
C       0.6277   0.2925   0.3259     C
N       0.6451   0.0438   0.7892     N
N       0.6451   0.4562   0.2892     N
C       0.6904   0.1197   0.8291     C
C       0.6904   0.3803   0.3291     C
C       0.6935   0.2124   0.3691     C
C       0.6935   0.2876   0.8691     C
O       0.7145   0.1337   0.3389     O
O       0.7145   0.3663   0.8389     O
H       0.7289   0.6772   0.9893     H
H       0.7289   0.8228   0.4893     H
H       0.7329   0.6529   0.0673     H
H       0.7329   0.8471   0.5673     H
O       0.7351   0.2256   0.4316     O
O       0.7351   0.2744   0.9316     O
Cu     0.75762  0.56994  0.28501    Cu
Cu     0.75762  0.93006  0.78501    Cu
H       0.7665   0.1129   0.8599     H
H       0.7665   0.3871   0.3599     H
C       0.7756   0.6854   0.0354     C
C       0.7756   0.8146   0.5354     C
H       0.7821   0.7472   0.5464     H
H       0.7821   0.7528   0.0464     H
H       0.7862   0.7376   0.8368     H
H       0.7862   0.7624   0.3368     H
O       0.7879   0.5764    0.877     O
O       0.7879   0.9236    0.377     O
O       0.8077   0.0591   0.6746     O
O       0.8077   0.4409   0.1746     O
Ho     0.84568  0.06839  0.44285    Ho
Ho     0.84568  0.43161  0.94285    Ho
C       0.8486   0.7368     0.81     C
C       0.8486   0.7632     0.31     C
N       0.8678    0.683   0.2762     N
N       0.8678    0.817   0.7762     N
C       0.8807   0.5675   0.8479     C
C       0.8807   0.9325   0.3479     C
C       0.8901   0.0691   0.7259     C
C       0.8901   0.4309   0.2259     C
H       0.8958   0.2374   0.7872     H
H       0.8958   0.2626   0.2872     H
O       0.9008   0.0202   0.7808     O
O       0.9008   0.4798   0.2808     O
C       0.9032   0.6445   0.0404     C
C       0.9032   0.8555   0.5404     C
C       0.9164   0.6517   0.8077     C
C       0.9164   0.8483   0.3077     C
O       0.9199   0.5609   0.0179     O
O       0.9199   0.9391   0.5179     O
O       0.9422   0.0091    0.349     O
O       0.9422   0.4909    0.849     O
C       0.9608   0.6841    0.239     C
C       0.9608   0.8159    0.739     C
C       0.9612   0.2353   0.7626     C
C       0.9612   0.2647   0.2626     C
H       0.9735   0.6298   0.2137     H
H       0.9735   0.8702   0.7137     H
C       0.9828   0.1522    0.727     C
C       0.9828   0.3478    0.227     C
O       0.9993   0.1912   0.4302     O
O       0.9993   0.3088   0.9302     O
