data_I
_chemical_name_common  '/home/zhangsd/repos/MofS-CGCNN/ML/data/TSD/clean_cifs/QOSJIT_clean'
_cell_length_a 13.94500
_cell_length_b 20.58500
_cell_length_c 30.63300
_cell_angle_alpha 90.00000
_cell_angle_beta  90.00000
_cell_angle_gamma 98.79000
_space_group_name_H-M_alt      'P 1'


loop_
_space_group_symop_operation_xyz
  'x, y, z' 

loop_
_atom_site_label
_atom_site_fract_x
_atom_site_fract_y
_atom_site_fract_z
_atom_site_type_symbol
Cu     0.00428  0.74137  0.65744    Cu
Cu     0.00815  0.28061  0.02215    Cu
Eu      0.0239  0.37486  0.55125    Eu
Cu     0.02689  0.88903   0.3154    Cu
O       0.0311  0.56047   0.7497     O
O      0.03825  0.65444  0.12011     O
Eu     0.03894  0.39492  0.80977    Eu
H       0.0423   0.6113   0.9162     H
H        0.053   0.1883   0.6066     H
H        0.059   0.7412   0.5609     H
O      0.06805  0.74089  0.44912     O
H       0.0693   0.7945   0.2468     H
O      0.07246  0.12303  0.73335     O
H       0.0746    0.295    0.927     H
O      0.08069  0.32164  0.48304     O
O      0.08135  0.73194  0.02833     O
O      0.08316  0.28103   0.8086     O
O      0.08352  0.24604  0.39204     O
O      0.08405  0.70674  0.70303     O
N      0.08584  0.11657  0.64372     N
O      0.09134  0.22969  0.71595     O
H       0.0931   0.3661   0.2818     H
O      0.09711  0.42877  0.14359     O
O      0.09929  0.62612  0.02806     O
O      0.09964   0.7841  0.35393     O
C       0.1007  0.64172  0.91802     C
O      0.10157  0.29958  0.07107     O
C       0.1016  0.16177  0.61247     C
N      0.10243  0.69691  0.94146     N
C       0.1099  0.54105  0.75702     C
O       0.1114  0.62098  0.66252     O
N      0.11282  0.27895   0.3049     N
C       0.1167  0.18197  0.73505     C
N      0.11719  0.26055  0.98325     N
C       0.1176  0.67055  0.13966     C
C       0.1186  0.75775  0.57487     C
O      0.12044  0.48451  0.76939     O
N      0.12053  0.76359   0.6185     N
C       0.1223  0.68308  0.04039     C
O      0.12349  0.66738  0.18091     O
C       0.1236  0.27427  0.94024     C
O      0.12456  0.89274   0.3639     O
C       0.1265  0.65778  0.69488     C
C       0.1285  0.82428   0.2484     C
O      0.13196  0.40188  0.04548     O
N      0.13337  0.87777  0.27433     N
C       0.1375  0.33544  0.28241     C
C       0.1403   0.7229  0.43096     C
O      0.14185  0.66359  0.42048     O
H       0.1424   0.0461   0.6733     H
C       0.1436  0.83534  0.37043     C
C       0.1508  0.35699  0.06923     C
C        0.151  0.29126  0.40393     C
C       0.1543  0.07909  0.65142     C
C       0.1566  0.31273   0.5019     C
H       0.1584   0.1951     0.32     H
O      0.16142   0.3492  0.39093     O
C       0.1651  0.30049  0.79146     C
O      0.17151  0.32649   0.5421     O
C       0.1761  0.23578  0.30535     C
H       0.1799   0.5887     0.88     H
H       0.1826   0.2196   0.0312     H
C       0.1827   0.6282  0.89633     C
C       0.1834  0.45615  0.14278     C
C       0.1853  0.17148  0.58851     C
C       0.1856  0.73927   0.9438     C
H       0.1865   0.7785   0.9602     H
C       0.1874  0.23094  0.00109     C
O      0.19236  0.35961  0.78166     O
H        0.194   0.2042   0.5664     H
H       0.1963   0.7705   0.5189     H
C       0.1984  0.25931  0.91489     C
H       0.2003   0.2693   0.8846     H
C       0.2005  0.77499  0.54969     C
C       0.2017  0.58988  0.75187     C
H       0.2018   0.7732   0.2064     H
C       0.2052   0.7882  0.63701     C
H        0.206   0.7945   0.6677     H
C       0.2067  0.64549   0.7254     C
C       0.2071  0.81157  0.22405     C
C       0.2079   0.6948  0.11463     C
C       0.2094  0.19328  0.76174     C
C       0.2108  0.70114  0.06902     C
O       0.2137  0.51476  0.15328     O
C       0.2176  0.91963  0.27548     C
H       0.2215   0.9575   0.2935     H
C       0.2244  0.35073  0.26022     C
C       0.2285  0.27047  0.43355     C
C         0.23  0.77174  0.42343     C
C       0.2316  0.82813  0.39837     C
C       0.2333  0.25173  0.78521     C
C       0.2336  0.28388  0.47763     C
H       0.2386   0.3906   0.2442     H
C       0.2414  0.36702  0.09667     C
C        0.242  0.08584  0.62908     C
C        0.258  0.41416  0.12908     C
C       0.2586  0.13298  0.59667     C
H       0.2614   0.1094   0.7442     H
C       0.2664  0.21612  0.97763     C
C       0.2667  0.24827  0.28521     C
C       0.2684  0.67187  0.89837     C
C         0.27  0.72826  0.92343     C
C       0.2715  0.22953  0.93355     C
C       0.2756  0.14927  0.76022     C
H       0.2785   0.5425   0.7935     H
C       0.2824  0.58037  0.77548     C
O       0.2863  0.98524  0.65328     O
C       0.2892  0.79886  0.56902     C
C       0.2906  0.30672  0.26174     C
C       0.2921   0.8052  0.61463     C
C       0.2929  0.68843  0.72405     C
C       0.2933  0.85451   0.2254     C
H        0.294   0.7055   0.1677     H
C       0.2948   0.7118  0.13701     C
H       0.2982   0.7268   0.7064     H
C       0.2983  0.91012  0.25187     C
C       0.2995  0.72501  0.04969     C
H       0.2997   0.2307   0.3846     H
C       0.3016  0.24069  0.41489     C
H       0.3037   0.7295   0.0189     H
H        0.306   0.2958   0.0664     H
O      0.30764  0.14039  0.28166     O
C       0.3126  0.26906  0.50109     C
H       0.3135   0.7215   0.4602     H
C       0.3144  0.76073   0.4438     C
C       0.3147  0.32852  0.08851     C
C       0.3166  0.04385  0.64278     C
C       0.3173   0.8718  0.39633     C
H       0.3174   0.2804   0.5312     H
H       0.3201   0.9113     0.38     H
C       0.3239  0.26422  0.80535     C
O      0.32849  0.17351   0.0421     O
C       0.3349  0.19951  0.29146     C
O      0.33858   0.1508  0.89093     O
H       0.3416   0.3049     0.82     H
C       0.3434  0.18727   0.0019     C
C       0.3457  0.42091  0.15142     C
C        0.349  0.20874  0.90393     C
C       0.3492  0.14301  0.56923     C
C       0.3564  0.66466  0.87043     C
H       0.3576   0.4539   0.1733     H
O      0.35815  0.83641  0.92048     O
C       0.3597   0.7771  0.93096     C
C       0.3625  0.16456  0.78241     C
N      0.36663  0.62223  0.77433     N
O      0.36804  0.09812  0.54548     O
C       0.3715  0.67572   0.7484     C
C       0.3735  0.84222  0.19488     C
O      0.37544  0.60726   0.8639     O
C       0.3764  0.22573  0.44024     C
O      0.37651  0.83262  0.68091     O
C       0.3777  0.81692  0.54039     C
N      0.37947  0.73641   0.1185     N
O      0.37956  0.01549  0.26939     O
C       0.3814  0.74225  0.07487     C
C       0.3824  0.82945  0.63966     C
N      0.38281  0.23945  0.48325     N
C       0.3833  0.31803  0.23505     C
N      0.38718  0.22105   0.8049     N
O       0.3886  0.87902  0.16252     O
C       0.3901  0.95895  0.25702     C
N      0.39757  0.80309  0.44146     N
C       0.3984  0.33823  0.11247     C
O      0.39843  0.20042  0.57107     O
C       0.3993  0.85828  0.41802     C
O      0.40036   0.7159  0.85393     O
O      0.40071  0.87388  0.52806     O
O      0.40289  0.07123  0.64359     O
H       0.4069   0.1339   0.7818     H
O      0.40866  0.27031  0.21595     O
N      0.41416  0.38343  0.14372     N
O      0.41595  0.79326  0.20303     O
O      0.41648  0.25396  0.89204     O
O      0.41684  0.21897   0.3086     O
O      0.41865  0.76806  0.52833     O
O      0.41931  0.17836  0.98304     O
H       0.4254    0.205    0.427     H
O      0.42754  0.37697  0.23335     O
H       0.4307   0.7055   0.7468     H
O      0.43195  0.75911  0.94912     O
H        0.441   0.7588   0.0609     H
H        0.447   0.3117   0.1066     H
H       0.4577   0.8887   0.4162     H
Eu     0.46106  0.10508  0.30977    Eu
O      0.46175  0.84556  0.62011     O
O       0.4689  0.93953   0.2497     O
Cu     0.47311  0.61097   0.8154    Cu
Eu      0.4761  0.12514  0.05125    Eu
Cu     0.49185  0.21939  0.52215    Cu
Cu     0.49572  0.75863  0.15744    Cu
Cu     0.50428  0.24137  0.84256    Cu
Cu     0.50815  0.78061  0.47785    Cu
Eu      0.5239  0.87486  0.94875    Eu
Cu     0.52689  0.38903   0.1846    Cu
O       0.5311  0.06047   0.7503     O
O      0.53825  0.15444  0.37989     O
Eu     0.53894  0.89492  0.69023    Eu
H       0.5423   0.1113   0.5838     H
H        0.553   0.6883   0.8934     H
H        0.559   0.2412   0.9391     H
O      0.56805  0.24089  0.05088     O
H       0.5693   0.2945   0.2532     H
O      0.57246  0.62303  0.76665     O
H       0.5746    0.795    0.573     H
O      0.58069  0.82164  0.01696     O
O      0.58135  0.23194  0.47167     O
O      0.58316  0.78103   0.6914     O
O      0.58352  0.74604  0.10796     O
O      0.58405  0.20674  0.79697     O
N      0.58584  0.61657  0.85628     N
O      0.59134  0.72969  0.78405     O
H       0.5931   0.8661   0.2182     H
O      0.59711  0.92877  0.35641     O
O      0.59929  0.12612  0.47194     O
O      0.59964   0.2841  0.14607     O
C       0.6007  0.14172  0.58198     C
O      0.60157  0.79958  0.42893     O
C       0.6016  0.66177  0.88753     C
N      0.60243  0.19691  0.55854     N
C       0.6099  0.04105  0.74298     C
O       0.6114  0.12098  0.83748     O
N      0.61282  0.77895   0.1951     N
C       0.6167  0.68197  0.76495     C
N      0.61719  0.76055  0.51675     N
C       0.6176  0.17055  0.36034     C
C       0.6186  0.25775  0.92513     C
O      0.62044  0.98451  0.73061     O
N      0.62053  0.26359   0.8815     N
C       0.6223  0.18308  0.45961     C
O      0.62349  0.16738  0.31909     O
C       0.6236  0.77427  0.55976     C
O      0.62456  0.39274   0.1361     O
C       0.6265  0.15778  0.80512     C
C       0.6285  0.32428   0.2516     C
O      0.63196  0.90188  0.45452     O
N      0.63337  0.37777  0.22567     N
C       0.6375  0.83544  0.21759     C
C       0.6403   0.2229  0.06904     C
O      0.64185  0.16359  0.07952     O
H       0.6424   0.5461   0.8267     H
C       0.6436  0.33534  0.12957     C
C       0.6508  0.85699  0.43077     C
C        0.651  0.79126  0.09607     C
C       0.6543  0.57909  0.84858     C
C       0.6566  0.81273   0.9981     C
H       0.6584   0.6951     0.18     H
O      0.66142   0.8492  0.10907     O
C       0.6651  0.80049  0.70854     C
O      0.67151  0.82649   0.9579     O
C       0.6761  0.73578  0.19465     C
H       0.6799   0.0887     0.62     H
H       0.6826   0.7196   0.4688     H
C       0.6827   0.1282  0.60367     C
C       0.6834  0.95615  0.35722     C
C       0.6853  0.67148  0.91149     C
C       0.6856  0.23927   0.5562     C
H       0.6865   0.2785   0.5398     H
C       0.6874  0.73094  0.49891     C
O      0.69236  0.85961  0.71834     O
H        0.694   0.7042   0.9336     H
H       0.6963   0.2705   0.9811     H
C       0.6984  0.75931  0.58511     C
H       0.7003   0.7693   0.6154     H
C       0.7005  0.27499  0.95031     C
C       0.7017  0.08988  0.74813     C
H       0.7018   0.2732   0.2936     H
C       0.7052   0.2882  0.86299     C
H        0.706   0.2945   0.8323     H
C       0.7067  0.14549   0.7746     C
C       0.7071  0.31157  0.27595     C
C       0.7079   0.1948  0.38537     C
C       0.7094  0.69328  0.73826     C
C       0.7108  0.20114  0.43098     C
O       0.7137  0.01476  0.34672     O
C       0.7176  0.41963  0.22452     C
H       0.7215   0.4575   0.2065     H
C       0.7244  0.85073  0.23978     C
C       0.7285  0.77047  0.06645     C
C         0.73  0.27174  0.07657     C
C       0.7316  0.32813  0.10163     C
C       0.7333  0.75173  0.71479     C
C       0.7336  0.78388  0.02237     C
H       0.7386   0.8906   0.2558     H
C       0.7414  0.86702  0.40333     C
C        0.742  0.58584  0.87092     C
C        0.758  0.91416  0.37092     C
C       0.7586  0.63298  0.90333     C
H       0.7614   0.6094   0.7558     H
C       0.7664  0.71612  0.52237     C
C       0.7667  0.74827  0.21479     C
C       0.7684  0.17187  0.60163     C
C         0.77  0.22826  0.57657     C
C       0.7715  0.72953  0.56645     C
C       0.7756  0.64927  0.73978     C
H       0.7785   0.0425   0.7065     H
C       0.7824  0.08037  0.72452     C
O       0.7863  0.48524  0.84672     O
C       0.7892  0.29886  0.93098     C
C       0.7906  0.80672  0.23826     C
C       0.7921   0.3052  0.88537     C
C       0.7929  0.18843  0.77595     C
C       0.7933  0.35451   0.2746     C
H        0.794   0.2055   0.3323     H
C       0.7948   0.2118  0.36299     C
H       0.7982   0.2268   0.7936     H
C       0.7983  0.41012  0.24813     C
C       0.7995  0.22501  0.45031     C
H       0.7997   0.7307   0.1154     H
C       0.8016  0.74069  0.08511     C
H       0.8037   0.2295   0.4811     H
H        0.806   0.7958   0.4336     H
O      0.80764  0.64039  0.21834     O
C       0.8126  0.76906  0.99891     C
H       0.8135   0.2215   0.0398     H
C       0.8144  0.26073   0.0562     C
C       0.8147  0.82852  0.41149     C
C       0.8166  0.54385  0.85722     C
C       0.8173   0.3718  0.10367     C
H       0.8174   0.7804   0.9688     H
H       0.8201   0.4113     0.12     H
C       0.8239  0.76422  0.69465     C
O      0.82849  0.67351   0.4579     O
C       0.8349  0.69951  0.20854     C
O      0.83858   0.6508  0.60907     O
H       0.8416   0.8049     0.68     H
C       0.8434  0.68727   0.4981     C
C       0.8457  0.92091  0.34858     C
C        0.849  0.70874  0.59607     C
C       0.8492  0.64301  0.93077     C
C       0.8564  0.16466  0.62957     C
H       0.8576   0.9539   0.3267     H
O      0.85815  0.33641  0.57952     O
C       0.8597   0.2771  0.56904     C
C       0.8625  0.66456  0.71759     C
N      0.86663  0.12223  0.72567     N
O      0.86804  0.59812  0.95452     O
C       0.8715  0.17572   0.7516     C
C       0.8735  0.34222  0.30512     C
O      0.87544  0.10726   0.6361     O
C       0.8764  0.72573  0.05976     C
O      0.87651  0.33262  0.81909     O
C       0.8777  0.31692  0.95961     C
N      0.87947  0.23641   0.3815     N
O      0.87956  0.51549  0.23061     O
C       0.8814  0.24225  0.42513     C
C       0.8824  0.32945  0.86034     C
N      0.88281  0.73945  0.01675     N
C       0.8833  0.81803  0.26495     C
N      0.88718  0.72105   0.6951     N
O       0.8886  0.37902  0.33748     O
C       0.8901  0.45895  0.24298     C
N      0.89757  0.30309  0.05854     N
C       0.8984  0.83823  0.38753     C
O      0.89843  0.70042  0.92893     O
C       0.8993  0.35828  0.08198     C
O      0.90036   0.2159  0.64607     O
O      0.90071  0.37388  0.97194     O
O      0.90289  0.57123  0.85641     O
H       0.9069   0.6339   0.7182     H
O      0.90866  0.77031  0.28405     O
N      0.91416  0.88343  0.35628     N
O      0.91595  0.29326  0.29697     O
O      0.91648  0.75396  0.60796     O
O      0.91684  0.71897   0.1914     O
O      0.91865  0.26806  0.97167     O
O      0.91931  0.67836  0.51696     O
H       0.9254    0.705    0.073     H
O      0.92754  0.87697  0.26665     O
H       0.9307   0.2055   0.7532     H
O      0.93195  0.25911  0.55088     O
H        0.941   0.2588   0.4391     H
H        0.947   0.8117   0.3934     H
H       0.9577   0.3887   0.0838     H
Eu     0.96106  0.60508  0.19023    Eu
O      0.96175  0.34556  0.87989     O
O       0.9689  0.43953   0.2503     O
Cu     0.97311  0.11097   0.6846    Cu
Eu      0.9761  0.62514  0.44875    Eu
Cu     0.99185  0.71939  0.97785    Cu
Cu     0.99572  0.25863  0.34256    Cu
