data_I
_chemical_name_common  '/home/zhangsd/repos/MofS-CGCNN/ML/data/TSD/clean_cifs/QOSKAM_clean'
_cell_length_a 13.93400
_cell_length_b 20.49400
_cell_length_c 30.72200
_cell_angle_alpha 90.00000
_cell_angle_beta  90.00000
_cell_angle_gamma 98.71000
_space_group_name_H-M_alt      'P 1'


loop_
_space_group_symop_operation_xyz
  'x, y, z' 

loop_
_atom_site_label
_atom_site_fract_x
_atom_site_fract_y
_atom_site_fract_z
_atom_site_type_symbol
Cu     0.00473  0.24205  0.15768    Cu
H        0.006    0.202    0.869     H
Cu     0.00838  0.77997  0.52191    Cu
H        0.012    0.036    0.909     H
Tb     0.02372  0.87476   0.0507    Tb
Cu     0.02659  0.38826  0.81556    Cu
O       0.0305   0.0604   0.2501     O
O       0.0377   0.1543  0.61999     O
O       0.0382   0.8275  0.12167     O
Tb     0.03898  0.89555  0.31033    Tb
H       0.0423   0.1121    0.416     H
H       0.0525   0.6888   0.1063     H
O       0.0564   0.0345   0.9273     O
H       0.0601   0.2404   0.0613     H
O       0.0673   0.2402  0.94968     O
H       0.0701   0.2944   0.7473     H
O       0.0723    0.624  0.23319     O
H       0.0747   0.7947   0.4273     H
O       0.0789   0.8219  0.98266     O
O       0.0813   0.2323  0.52868     O
O        0.082   0.7822  0.30887     O
O       0.0827   0.7459  0.89221     O
O       0.0845   0.2074  0.20336     O
N       0.0857   0.6174  0.14374     N
O       0.0914   0.7311  0.21636     O
H       0.0917   0.8649   0.7815     H
O       0.0968   0.9282   0.6437     O
O       0.0986   0.1268  0.52795     O
O          0.1   0.2826  0.85418     O
C       0.1009   0.1424   0.4179     C
O        0.101   0.7987  0.57074     O
C       0.1015   0.6625   0.1125     C
N       0.1023   0.1977  0.44194     N
C       0.1098   0.0414   0.2583     C
O       0.1101   0.1208   0.1633     O
N       0.1129   0.7781  0.80488     N
H        0.114    0.047    0.919     H
C       0.1161   0.1704   0.6399     C
C        0.117   0.6829   0.2353     C
N       0.1178   0.7599   0.4833     N
C       0.1195   0.2573   0.0752     C
O       0.1207   0.9847   0.2713     O
N       0.1211   0.2637  0.11888     N
O        0.122   0.1671  0.68084     O
C       0.1221   0.1841   0.5405     C
C        0.124    0.774   0.4404     C
O       0.1242   0.3917  0.86407     O
C        0.125    0.158   0.1955     C
C       0.1292   0.3242   0.7487     C
O       0.1312   0.9009   0.5459     O
N       0.1334   0.3776  0.77459     N
C       0.1366   0.8344   0.7824     C
C       0.1396   0.2218   0.9315     C
O        0.141   0.1625   0.9216     O
C       0.1439   0.3345   0.8705     C
H       0.1439   0.5477   0.1741     H
C       0.1498   0.7911   0.9039     C
C       0.1506    0.856   0.5692     C
C       0.1549   0.8126   0.0017     C
C        0.155   0.5801   0.1519     C
H       0.1599   0.6944    0.821     H
O       0.1605   0.8491   0.8909     O
C       0.1641   0.8016   0.2919     C
O       0.1682   0.8258  0.04152     O
C        0.177   0.7349   0.8059     C
H       0.1792   0.0891   0.3794     H
C       0.1825   0.1284    0.396     C
C       0.1834   0.9557   0.6429     C
H       0.1843   0.7199   0.5309     H
C       0.1854     0.24   0.4445     C
H       0.1861   0.2794   0.4609     H
C       0.1867   0.6726   0.0887     C
C       0.1885   0.7309   0.5008     C
O       0.1916    0.861   0.2825     O
H       0.1957   0.7055   0.0667     H
H       0.1978     0.27   0.0191     H
C       0.1993   0.7594    0.415     C
H       0.2007   0.2726    0.706     H
H        0.201     0.77   0.3848     H
C       0.2014   0.0903   0.2524     C
C       0.2019   0.2746   0.0499     C
C       0.2062   0.1456   0.2257     C
C       0.2062   0.2886   0.1379     C
C       0.2067   0.1943   0.6145     C
C       0.2067   0.3108   0.7239     C
H       0.2074    0.295   0.1685     H
C       0.2093   0.6944   0.2618     C
C       0.2096   0.2015   0.5692     C
O        0.213   0.0141   0.6537     O
C       0.2169   0.4196   0.7762     C
H       0.2206   0.4575   0.7942     H
C       0.2241   0.8498   0.7603     C
C       0.2274   0.7705   0.9331     C
C       0.2294   0.2712   0.9242     C
C       0.2306   0.3278   0.8984     C
C       0.2325   0.7841   0.9774     C
C       0.2329   0.7523   0.2858     C
H       0.2382   0.8898   0.7443     H
C       0.2409   0.8654   0.5969     C
C       0.2419   0.5868   0.1293     C
C       0.2581   0.9132   0.6293     C
C       0.2591   0.6346   0.0969     C
H       0.2618   0.6102   0.2443     H
C       0.2671   0.7477   0.7858     C
C       0.2675   0.7159   0.4774     C
C       0.2694   0.1722   0.3984     C
C       0.2706   0.2288   0.4242     C
C       0.2726   0.7295   0.4331     C
C       0.2759   0.6502   0.2603     C
H       0.2794   0.0425   0.2942     H
C       0.2831   0.0804   0.2762     C
O        0.287   0.4859   0.1537     O
C       0.2904   0.2985   0.0692     C
C       0.2907   0.8056   0.7618     C
H       0.2926    0.205   0.6685     H
C       0.2933   0.1892   0.2239     C
C       0.2933   0.3057   0.1145     C
C       0.2938   0.2114   0.6379     C
C       0.2938   0.3544   0.7257     C
C       0.2981   0.2254   0.5499     C
C       0.2986   0.4097   0.7524     C
H        0.299     0.73   0.8848     H
H       0.2993   0.2274    0.206     H
C       0.3007   0.7406    0.915     C
H       0.3022     0.23   0.5191     H
H       0.3043   0.7945   0.5667     H
O       0.3084    0.639   0.7825     O
C       0.3115   0.7691   0.0008     C
C       0.3133   0.8274   0.5887     C
H       0.3139   0.2206   0.9609     H
C       0.3146     0.26   0.9445     C
H       0.3157   0.7801   0.0309     H
C       0.3166   0.5443   0.1429     C
C       0.3175   0.3716    0.896     C
H       0.3208   0.4109   0.8794     H
C        0.323   0.7651   0.3059     C
O       0.3318   0.6742  0.54152     O
C       0.3359   0.6984   0.7919     C
O       0.3395   0.6509   0.3909     O
H       0.3401   0.8056    0.321     H
C        0.345   0.9199   0.6519     C
C       0.3451   0.6874   0.5017     C
C       0.3494    0.644   0.0692     C
C       0.3502   0.7089   0.4039     C
C       0.3561   0.1655   0.3705     C
H       0.3561   0.9523   0.6741     H
O        0.359   0.3375   0.4216     O
C       0.3604   0.2782   0.4315     C
C       0.3634   0.6656   0.2824     C
N       0.3666   0.1224  0.27459     N
O       0.3688   0.5991   0.0459     O
C       0.3708   0.1758   0.2487     C
C        0.375    0.342   0.6955     C
O       0.3758   0.1083  0.36407     O
C        0.376    0.726   0.9404     C
C       0.3779   0.3159   0.0405     C
O        0.378   0.3329  0.18084     O
N       0.3789   0.2363  0.61888     N
O       0.3793   0.5153   0.7713     O
C       0.3805   0.2427   0.5752     C
N       0.3822   0.7401   0.9833     N
C        0.383   0.8171   0.7353     C
C       0.3839   0.3296   0.1399     C
H        0.386    0.453    0.419     H
N       0.3871   0.7219  0.30488     N
O       0.3899   0.3792   0.6633     O
C       0.3902   0.4586   0.7583     C
N       0.3977   0.3023  0.94194     N
C       0.3985   0.8375   0.6125     C
O        0.399   0.7013  0.07074     O
C       0.3991   0.3576   0.9179     C
O          0.4   0.2174  0.35418     O
O       0.4014   0.3732  0.02795     O
O       0.4032   0.5718   0.1437     O
H       0.4083   0.6351   0.2815     H
O       0.4086   0.7689  0.71636     O
N       0.4143   0.8826  0.64374     N
O       0.4155   0.2926  0.70336     O
O       0.4173   0.7541  0.39221     O
O        0.418   0.7178  0.80887     O
O       0.4187   0.2677  0.02868     O
O       0.4211   0.6781  0.48266     O
H       0.4253   0.7053   0.9273     H
O       0.4277    0.876  0.73319     O
H       0.4299   0.2056   0.2473     H
O       0.4327   0.2598  0.44968     O
H       0.4399   0.2596   0.5613     H
O       0.4436   0.4655   0.4273     O
H       0.4475   0.8112   0.6063     H
H       0.4577   0.3879    0.916     H
Tb     0.46102  0.60445  0.81033    Tb
O       0.4618   0.6725  0.62167     O
O       0.4623   0.3457  0.11999     O
O       0.4695   0.4396   0.7501     O
Cu     0.47341  0.11174  0.31556    Cu
Tb     0.47628  0.62524   0.5507    Tb
H        0.488    0.464    0.409     H
Cu     0.49162  0.72003  0.02191    Cu
H        0.494    0.298    0.369     H
Cu     0.49527  0.25795  0.65768    Cu
Cu     0.50473  0.74205  0.34232    Cu
H        0.506    0.702    0.631     H
Cu     0.50838  0.27997  0.97809    Cu
H        0.512    0.536    0.591     H
Tb     0.52372  0.37476   0.4493    Tb
Cu     0.52659  0.88826  0.68444    Cu
O       0.5305   0.5604   0.2499     O
O       0.5377   0.6543  0.88001     O
O       0.5382   0.3275  0.37833     O
Tb     0.53898  0.39555  0.18967    Tb
H       0.5423   0.6121    0.084     H
H       0.5525   0.1888   0.3937     H
O       0.5564   0.5345   0.5727     O
H       0.5601   0.7404   0.4387     H
O       0.5673   0.7402  0.55032     O
H       0.5701   0.7944   0.7527     H
O       0.5723    0.124  0.26681     O
H       0.5747   0.2947   0.0727     H
O       0.5789   0.3219  0.51734     O
O       0.5813   0.7323  0.97132     O
O        0.582   0.2822  0.19113     O
O       0.5827   0.2459  0.60779     O
O       0.5845   0.7074  0.29664     O
N       0.5857   0.1174  0.35626     N
O       0.5914   0.2311  0.28364     O
H       0.5917   0.3649   0.7185     H
O       0.5968   0.4282   0.8563     O
O       0.5986   0.6268  0.97205     O
O          0.6   0.7826  0.64582     O
C       0.6009   0.6424   0.0821     C
O        0.601   0.2987  0.92926     O
C       0.6015   0.1625   0.3875     C
N       0.6023   0.6977  0.05806     N
C       0.6098   0.5414   0.2417     C
O       0.6101   0.6208   0.3367     O
N       0.6129   0.2781  0.69512     N
H        0.614    0.547    0.581     H
C       0.6161   0.6704   0.8601     C
C        0.617   0.1829   0.2647     C
N       0.6178   0.2599   0.0167     N
C       0.6195   0.7573   0.4248     C
O       0.6207   0.4847   0.2287     O
N       0.6211   0.7637  0.38112     N
O        0.622   0.6671  0.81916     O
C       0.6221   0.6841   0.9595     C
C        0.624    0.274   0.0596     C
O       0.6242   0.8917  0.63593     O
C        0.625    0.658   0.3045     C
C       0.6292   0.8242   0.7513     C
O       0.6312   0.4009   0.9541     O
N       0.6334   0.8776  0.72541     N
C       0.6366   0.3344   0.7176     C
C       0.6396   0.7218   0.5685     C
O        0.641   0.6625   0.5784     O
H       0.6439   0.0477   0.3259     H
C       0.6439   0.8345   0.6295     C
C       0.6498   0.2911   0.5961     C
C       0.6506    0.356   0.9308     C
C       0.6549   0.3126   0.4983     C
C        0.655   0.0801   0.3481     C
H       0.6599   0.1944    0.679     H
O       0.6605   0.3491   0.6091     O
C       0.6641   0.3016   0.2081     C
O       0.6682   0.3258  0.45848     O
C        0.677   0.2349   0.6941     C
H       0.6792   0.5891   0.1206     H
C       0.6825   0.6284    0.104     C
C       0.6834   0.4557   0.8571     C
H       0.6843   0.2199   0.9691     H
C       0.6854     0.74   0.0555     C
H       0.6861   0.7794   0.0391     H
C       0.6867   0.1726   0.4113     C
C       0.6885   0.2309   0.9992     C
O       0.6916    0.361   0.2175     O
H       0.6957   0.2055   0.4333     H
H       0.6978     0.77   0.4809     H
C       0.6993   0.2594    0.085     C
H       0.7007   0.7726    0.794     H
H        0.701     0.27   0.1152     H
C       0.7014   0.5903   0.2476     C
C       0.7019   0.7746   0.4501     C
C       0.7062   0.6456   0.2743     C
C       0.7062   0.7886   0.3621     C
C       0.7067   0.6943   0.8855     C
C       0.7067   0.8108   0.7761     C
H       0.7074    0.795   0.3315     H
C       0.7093   0.1944   0.2382     C
C       0.7096   0.7015   0.9308     C
O        0.713   0.5141   0.8463     O
C       0.7169   0.9196   0.7238     C
H       0.7206   0.9575   0.7058     H
C       0.7241   0.3498   0.7397     C
C       0.7274   0.2705   0.5669     C
C       0.7294   0.7712   0.5758     C
C       0.7306   0.8278   0.6016     C
C       0.7325   0.2841   0.5226     C
C       0.7329   0.2523   0.2142     C
H       0.7382   0.3898   0.7557     H
C       0.7409   0.3654   0.9031     C
C       0.7419   0.0868   0.3707     C
C       0.7581   0.4132   0.8707     C
C       0.7591   0.1346   0.4031     C
H       0.7618   0.1102   0.2557     H
C       0.7671   0.2477   0.7142     C
C       0.7675   0.2159   0.0226     C
C       0.7694   0.6722   0.1016     C
C       0.7706   0.7288   0.0758     C
C       0.7726   0.2295   0.0669     C
C       0.7759   0.1502   0.2397     C
H       0.7794   0.5425   0.2058     H
C       0.7831   0.5804   0.2238     C
O        0.787   0.9859   0.3463     O
C       0.7904   0.7985   0.4308     C
C       0.7907   0.3056   0.7382     C
H       0.7926    0.705   0.8315     H
C       0.7933   0.6892   0.2761     C
C       0.7933   0.8057   0.3855     C
C       0.7938   0.7114   0.8621     C
C       0.7938   0.8544   0.7743     C
C       0.7981   0.7254   0.9501     C
C       0.7986   0.9097   0.7476     C
H        0.799     0.23   0.6152     H
H       0.7993   0.7274    0.294     H
C       0.8007   0.2406    0.585     C
H       0.8022     0.73   0.9809     H
H       0.8043   0.2945   0.9333     H
O       0.8084    0.139   0.7175     O
C       0.8115   0.2691   0.4992     C
C       0.8133   0.3274   0.9113     C
H       0.8139   0.7206   0.5391     H
C       0.8146     0.76   0.5555     C
H       0.8157   0.2801   0.4691     H
C       0.8166   0.0443   0.3571     C
C       0.8175   0.8716    0.604     C
H       0.8208   0.9109   0.6206     H
C        0.823   0.2651   0.1941     C
O       0.8318   0.1742  0.95848     O
C       0.8359   0.1984   0.7081     C
O       0.8395   0.1509   0.1091     O
H       0.8401   0.3056    0.179     H
C        0.845   0.4199   0.8481     C
C       0.8451   0.1874   0.9983     C
C       0.8494    0.144   0.4308     C
C       0.8502   0.2089   0.0961     C
H       0.8561   0.4523   0.8259     H
C       0.8561   0.6655   0.1295     C
O        0.859   0.8375   0.0784     O
C       0.8604   0.7782   0.0685     C
C       0.8634   0.1656   0.2176     C
N       0.8666   0.6224  0.22541     N
O       0.8688   0.0991   0.4541     O
C       0.8708   0.6758   0.2513     C
C        0.875    0.842   0.8045     C
O       0.8758   0.6083  0.13593     O
C        0.876    0.226   0.5596     C
C       0.8779   0.8159   0.4595     C
O        0.878   0.8329  0.31916     O
N       0.8789   0.7363  0.88112     N
O       0.8793   0.0153   0.7287     O
C       0.8805   0.7427   0.9248     C
N       0.8822   0.2401   0.5167     N
C        0.883   0.3171   0.7647     C
C       0.8839   0.8296   0.3601     C
H        0.886    0.953    0.081     H
N       0.8871   0.2219  0.19512     N
O       0.8899   0.8792   0.8367     O
C       0.8902   0.9586   0.7417     C
N       0.8977   0.8023  0.55806     N
C       0.8985   0.3375   0.8875     C
O        0.899   0.2013  0.42926     O
C       0.8991   0.8576   0.5821     C
O          0.9   0.7174  0.14582     O
O       0.9014   0.8732  0.47205     O
O       0.9032   0.0718   0.3563     O
H       0.9083   0.1351   0.2185     H
O       0.9086   0.2689  0.78364     O
N       0.9143   0.3826  0.85626     N
O       0.9155   0.7926  0.79664     O
O       0.9173   0.2541  0.10779     O
O        0.918   0.2178  0.69113     O
O       0.9187   0.7677  0.47132     O
O       0.9211   0.1781  0.01734     O
H       0.9253   0.2053   0.5727     H
O       0.9277    0.376  0.76681     O
H       0.9299   0.7056   0.2527     H
O       0.9327   0.7598  0.05032     O
H       0.9399   0.7596   0.9387     H
O       0.9436   0.9655   0.0727     O
H       0.9475   0.3112   0.8937     H
H       0.9577   0.8879    0.584     H
Tb     0.96102  0.10445  0.68967    Tb
O       0.9618   0.1725  0.87833     O
O       0.9623   0.8457  0.38001     O
O       0.9695   0.9396   0.7499     O
Cu     0.97341  0.61174  0.18444    Cu
Tb     0.97628  0.12524   0.9493    Tb
H        0.988    0.964    0.091     H
Cu     0.99162  0.22003  0.47809    Cu
H        0.994    0.798    0.131     H
Cu     0.99527  0.75795  0.84232    Cu
