data_I
_chemical_name_common  '/home/zhangsd/repos/MofS-CGCNN/ML/data/TSD/clean_cifs/QOVDEL_clean'
_cell_length_a 27.91440
_cell_length_b 27.91440
_cell_length_c  6.16550
_cell_angle_alpha 90.00000
_cell_angle_beta  90.00000
_cell_angle_gamma 120.00000
_space_group_name_H-M_alt      'P 1'


loop_
_space_group_symop_operation_xyz
  'x, y, z' 

loop_
_atom_site_label
_atom_site_fract_x
_atom_site_fract_y
_atom_site_fract_z
_atom_site_type_symbol
O       0.0012  0.72087  0.59943     O
N       0.0074   0.5525   0.0535     N
O      0.01154  0.62149   0.6254     O
C       0.0156   0.4531   0.7161     C
Ni     0.02848  0.63804  0.94751    Ni
Ni     0.02863  0.72378  0.28084    Ni
P        0.039  0.61503     0.43     P
C       0.0419   0.4883   0.0973     C
O      0.04518  0.72338  0.95873     O
P      0.05164   0.7573  0.76333     P
O      0.05197  0.81211  0.83153     O
O      0.05301  0.66547   0.2661     O
O      0.05421  0.38634  0.06723     O
C       0.0562   0.5453   0.0152     C
O      0.05672  0.34487  0.70793     O
Ni     0.05711  0.36182  0.38583    Ni
P      0.09064  0.37233  0.90333     P
O      0.09348   0.6147   0.4982     O
C      0.10417  0.31773  0.04943     C
C      0.11307  0.29143  0.43063     C
N      0.11417  0.78823  0.38683     N
C      0.11977  0.77083  0.61723     C
C      0.12137  0.84423  0.34853     C
N      0.12157  0.34073  0.27983     N
O      0.14545  0.42681  0.83513     O
C      0.15497  0.77973  0.23603     C
C      0.15577  0.27713  0.34853     C
C      0.17757  0.38953  0.31813     C
C      0.17837  0.88693  0.43063     C
O      0.18789  0.23985  0.83153     O
N      0.21177  0.32593  0.38683     N
C      0.21197  0.82243  0.31813     C
C      0.21357  0.89583  0.04943     C
N      0.21917  0.87843  0.27983     N
C      0.22027  0.37523  0.23603     C
C      0.22917  0.34893  0.61723     C
O      0.23985  0.05197  0.16847     O
P       0.2427  0.29433  0.76333     P
Ni     0.27622  0.30485  0.28084    Ni
O      0.27662  0.32179  0.95873     O
C      0.27713  0.12137  0.65147     C
O      0.27913  0.28032  0.59943     O
O      0.28032   0.0012  0.40057     O
O      0.28137  0.85455  0.83513     O
P       0.2817  0.90936  0.90333     P
O      0.28816  0.94328  0.70793     O
C      0.29143  0.17837  0.56937     C
P      0.29433  0.05164  0.23667     P
Ni      0.3047  0.94289  0.38583    Ni
Ni     0.30485  0.02863  0.71916    Ni
C      0.31773  0.21357  0.95057     C
O      0.32179  0.04518  0.04127     O
N      0.32593  0.11417  0.61317     N
O      0.33214  0.94579  0.06723     O
O      0.33453  0.38754   0.2661     O
N      0.34073  0.21917  0.72017     N
O      0.34487  0.28816  0.29207     O
C      0.34893  0.11977  0.38277     C
Ni     0.36182   0.3047  0.61417    Ni
Ni     0.36196  0.39045  0.94751    Ni
P      0.37233   0.2817  0.09667     P
C      0.37523  0.15497  0.76397     C
O      0.37851  0.39005   0.6254     O
P      0.38497  0.42397     0.43     P
O       0.3853  0.47878   0.4982     O
O      0.38634  0.33214  0.93277     O
O      0.38754  0.05301   0.7339     O
C      0.38953  0.21197  0.68187     C
O      0.39005  0.01154   0.3746     O
Ni     0.39045  0.02848  0.05249    Ni
P      0.42397    0.039     0.57     P
O      0.42681  0.28137  0.16487     O
C       0.4375   0.9844   0.7161     C
C       0.4464   0.9581   0.0973     C
N       0.4475   0.4549   0.0535     N
C       0.4531   0.4375   0.2839     C
C       0.4547   0.5109   0.0152     C
N       0.4549   0.0074   0.9465     N
O      0.47878  0.09348   0.5018     O
C       0.4883   0.4464   0.9027     C
C       0.4891   0.9438   0.0152     C
C       0.5109   0.0562   0.9848     C
C       0.5117   0.5536   0.0973     C
O      0.52122  0.90652   0.4982     O
N       0.5451   0.9926   0.0535     N
C       0.5453   0.4891   0.9848     C
C       0.5469   0.5625   0.7161     C
N       0.5525   0.5451   0.9465     N
C       0.5536   0.0419   0.9027     C
C       0.5625   0.0156   0.2839     C
O      0.57319  0.71863  0.83513     O
P      0.57603    0.961     0.43     P
Ni     0.60955  0.97152  0.94751    Ni
O      0.60995  0.98846   0.6254     O
C      0.61047  0.78803  0.31813     C
O      0.61246  0.94699   0.2661     O
O      0.61366  0.66786  0.06723     O
O       0.6147  0.52122   0.5018     O
P      0.61503  0.57603     0.57     P
O      0.62149  0.60995   0.3746     O
C      0.62477  0.84503  0.23603     C
P      0.62767   0.7183  0.90333     P
Ni     0.63804  0.60955  0.05249    Ni
Ni     0.63818   0.6953  0.38583    Ni
C      0.65107  0.88023  0.61723     C
O      0.65513  0.71184  0.70793     O
N      0.65927  0.78083  0.27983     N
O      0.66547  0.61246   0.7339     O
O      0.66786  0.05421  0.93277     O
N      0.67407  0.88583  0.38683     N
O      0.67821  0.95482  0.95873     O
C      0.68227  0.78643  0.04943     C
Ni     0.69515  0.97137  0.28084    Ni
Ni      0.6953  0.05711  0.61417    Ni
P      0.70567  0.94836  0.76333     P
C      0.70857  0.82163  0.43063     C
O      0.71184  0.05672  0.29207     O
P       0.7183  0.09064  0.09667     P
O      0.71863  0.14545  0.16487     O
O      0.71968   0.9988  0.59943     O
O      0.72087  0.71968  0.40057     O
C      0.72287  0.87863  0.34853     C
O      0.72338  0.67821  0.04127     O
Ni     0.72378  0.69515  0.71916    Ni
P       0.7573  0.70567  0.23667     P
O      0.76015  0.94803  0.83153     O
C      0.77083  0.65107  0.38277     C
C      0.77973  0.62477  0.76397     C
N      0.78083  0.12157  0.72017     N
C      0.78643  0.10417  0.95057     C
C      0.78803  0.17757  0.68187     C
N      0.78823  0.67407  0.61317     N
O      0.81211  0.76015  0.16847     O
C      0.82163  0.11307  0.56937     C
C      0.82243  0.61047  0.68187     C
C      0.84423  0.72287  0.65147     C
C      0.84503  0.22027  0.76397     C
O      0.85455  0.57319  0.16487     O
N      0.87843  0.65927  0.72017     N
C      0.87863  0.15577  0.65147     C
C      0.88023  0.22917  0.38277     C
N      0.88583  0.21177  0.61317     N
C      0.88693  0.70857  0.56937     C
C      0.89583  0.68227  0.95057     C
O      0.90652   0.3853   0.5018     O
P      0.90936  0.62767  0.09667     P
Ni     0.94289  0.63818  0.61417    Ni
O      0.94328  0.65513  0.29207     O
C       0.9438   0.4547   0.9848     C
O      0.94579  0.61366  0.93277     O
O      0.94699  0.33453   0.7339     O
O      0.94803  0.18789  0.16847     O
P      0.94836   0.2427  0.23667     P
O      0.95482  0.27662  0.04127     O
C       0.9581   0.5117   0.9027     C
P        0.961  0.38497     0.57     P
Ni     0.97137  0.27622  0.71916    Ni
Ni     0.97152  0.36196  0.05249    Ni
C       0.9844   0.5469   0.2839     C
O      0.98846  0.37851   0.3746     O
N       0.9926   0.4475   0.9465     N
O       0.9988  0.27913  0.40057     O
