data_I
_chemical_name_common  '/home/zhangsd/repos/MofS-CGCNN/ML/data/TSD/clean_cifs/QOVWOP_clean'
_cell_length_a 11.14140
_cell_length_b 11.14140
_cell_length_c 18.66200
_cell_angle_alpha 93.48580
_cell_angle_beta  93.48580
_cell_angle_gamma 114.96100
_space_group_name_H-M_alt      'P 1'


loop_
_space_group_symop_operation_xyz
  'x, y, z' 

loop_
_atom_site_label
_atom_site_fract_x
_atom_site_fract_y
_atom_site_fract_z
_atom_site_type_symbol
C       0.0068   0.4666   0.8192     C
H       0.0115   0.8417   0.5732     H
C       0.0148    0.844   0.9765     C
C       0.0168    0.436   0.5578     C
O      0.01946  0.65314  0.19709     O
N      0.02317  0.75683  0.02291     N
C       0.0244   0.3316   0.2077     C
H       0.0263   0.3905   0.5963     H
H       0.0367   0.7151   0.8316     H
C        0.055   0.4646  0.22624     C
C       0.0584   0.6348   0.5046     C
H       0.0626   0.1792   0.2362     H
H       0.0635   0.1511   0.0397     H
C       0.0783   0.8633   0.5422     C
C       0.0791   0.5747   0.5644     C
O      0.08062  0.52998  0.87439     O
C        0.085    0.269   0.2479     C
N      0.11842  0.77778  0.50611     N
H       0.1196   0.6968   0.6565     H
Cd       0.135  0.36918  0.91017    Cd
C       0.1367   0.9217   0.9578     C
C      0.14658  0.53302  0.28454     C
C       0.1494   0.7832   0.0318     C
H       0.1511   0.0635   0.5397     H
C        0.156   0.9852   0.5235     C
H       0.1583   0.9885   0.9268     H
C       0.1637   0.6517   0.6315     C
O      0.16428  0.18232  0.87063     O
H       0.1659   0.6217   0.2973     H
H       0.1664   0.4374   0.0767     H
H       0.1783   0.5919    0.662     H
C      0.17888  0.33772  0.30532     C
H       0.1792   0.0626   0.7362     H
O      0.18232  0.16428  0.37063     O
H       0.1842   0.7386    0.061     H
C       0.2108   0.4716  0.32466     C
C       0.2168   0.8506   0.4682     C
N      0.22222  0.88158  0.99389     N
N      0.24317  0.97683  0.47709     N
H       0.2447   0.4277   0.4644     H
H       0.2476   0.7158   0.6189     H
C       0.2488   0.5028   0.0683     C
C      0.24967  0.26633  0.34251     C
H       0.2614   0.8158    0.439     H
C      0.26633  0.24967  0.84251     C
C        0.269    0.085   0.7479     C
H       0.2842   0.7524   0.8811     H
H       0.2849   0.9633   0.6684     H
N      0.28579  0.50501  0.00187     N
H       0.2945   0.5855   0.1707     H
H       0.3032   0.8804   0.8435     H
C       0.3081   0.5101   0.4547     C
O      0.30993  0.37247  0.84348     O
C      0.31028  0.55092   0.3852     C
C       0.3255   0.5915   0.1252     C
C       0.3316   0.0244   0.7077     C
C      0.33772  0.17888  0.80532     C
O      0.34686  0.98054  0.30291     O
C       0.3483   0.8363   0.8685     C
C       0.3652   0.9416   0.9954     C
Cd     0.36918    0.135  0.41017    Cd
O      0.37247  0.30993  0.34348     O
H       0.3783   0.8341   0.2027     H
H       0.3905   0.0263   0.0963     H
H       0.3986   0.5654   0.5543     H
C        0.401   0.5938   0.5084     C
C       0.4062    0.599   0.9916     C
H       0.4081   0.8217    0.838     H
C       0.4085   0.6745   0.3748     C
H       0.4145   0.7055   0.3293     H
C       0.4253   0.9209   0.9356     C
H       0.4277   0.2447   0.9644     H
H       0.4346   0.6014   0.9457     H
C        0.436   0.0168   0.0578     C
H       0.4374   0.1664   0.5767     H
C      0.44908  0.68972   0.1148     C
C       0.4646    0.055  0.72624     C
C       0.4666   0.0068   0.3192     C
C      0.46698  0.85342  0.21546     C
O      0.47002  0.91938  0.62561     O
C       0.4716   0.2108  0.82466     C
C       0.4899   0.6919   0.0453     C
N      0.49499  0.71421  0.49813     N
C       0.4972   0.7512   0.4317     C
C       0.5028   0.2488   0.5683     C
N      0.50501  0.28579  0.50187     N
C       0.5101   0.3081   0.9547     C
C       0.5284   0.7892  0.17534     C
O      0.52998  0.08062  0.37439     O
C      0.53302  0.14658  0.78454     C
C       0.5334   0.9932   0.6808     C
C       0.5354    0.945  0.27376     C
C      0.55092  0.31028   0.8852     C
H       0.5626   0.8336   0.4233     H
C        0.564   0.9832   0.9422     C
H       0.5654   0.3986   0.0543     H
H       0.5723   0.7553   0.0356     H
C       0.5747   0.0791   0.0644     C
H       0.5855   0.2945   0.6707     H
C       0.5915   0.3255   0.6252     C
H       0.5919   0.1783    0.162     H
C       0.5938    0.401   0.0084     C
C        0.599   0.4062   0.4916     C
H       0.6014   0.4346   0.4457     H
H       0.6095   0.9737   0.9037     H
H       0.6217   0.1659   0.7973     H
O      0.62753  0.69007  0.65652     O
Cd     0.63082    0.865  0.58983    Cd
C       0.6348   0.0584   0.0046     C
C       0.6517   0.1637   0.1315     C
O      0.65314  0.01946  0.69709     O
C      0.66228  0.82112  0.19468     C
C       0.6684   0.9756   0.2923     C
C       0.6745   0.4085   0.8748     C
C      0.68972  0.44908   0.6148     C
O      0.69007  0.62753  0.15652     O
C       0.6919   0.4899   0.5453     C
H       0.6968   0.1196   0.1565     H
H       0.7055   0.4145   0.8293     H
N      0.71421  0.49499  0.99813     N
H       0.7151   0.0367   0.3316     H
H       0.7158   0.2476   0.1189     H
C        0.731    0.915   0.2521     C
C      0.73367  0.75033  0.15749     C
H       0.7386   0.1842    0.561     H
C      0.75033  0.73367  0.65749     C
C       0.7512   0.4972   0.9317     C
H       0.7524   0.2842   0.3811     H
H       0.7553   0.5723   0.5356     H
N      0.75683  0.02317  0.52291     N
N      0.77778  0.11842  0.00611     N
C       0.7832   0.1494   0.5318     C
C       0.7892   0.5284  0.67534     C
H       0.8158   0.2614    0.939     H
O      0.81768  0.83572  0.62937     O
H       0.8208   0.9374   0.2638     H
C      0.82112  0.66228  0.69468     C
H       0.8217   0.4081    0.338     H
H       0.8336   0.5626   0.9233     H
H       0.8341   0.3783   0.7027     H
O      0.83572  0.81768  0.12937     O
C       0.8363   0.3483   0.3685     C
H       0.8417   0.0115   0.0732     H
C        0.844   0.0148   0.4765     C
H       0.8489   0.9365   0.4603     H
C       0.8506   0.2168   0.9682     C
C      0.85342  0.46698  0.71546     C
C       0.8633   0.0783   0.0422     C
Cd       0.865  0.63082  0.08983    Cd
H       0.8804   0.3032   0.3435     H
N      0.88158  0.22222  0.49389     N
C        0.915    0.731   0.7521     C
O      0.91938  0.47002  0.12561     O
C       0.9209   0.4253   0.4356     C
C       0.9217   0.1367   0.4578     C
H       0.9365   0.8489   0.9603     H
H       0.9374   0.8208   0.7638     H
C       0.9416   0.3652   0.4954     C
C        0.945   0.5354  0.77376     C
H       0.9633   0.2849   0.1684     H
H       0.9737   0.6095   0.4037     H
C       0.9756   0.6684   0.7923     C
N      0.97683  0.24317  0.97709     N
O      0.98054  0.34686  0.80291     O
C       0.9832    0.564   0.4422     C
C       0.9852    0.156   0.0235     C
H       0.9885   0.1583   0.4268     H
C       0.9932   0.5334   0.1808     C
