data_I
_chemical_name_common  '/home/zhangsd/repos/MofS-CGCNN/ML/data/TSD/clean_cifs/QUHMOX_clean'
_cell_length_a 19.43900
_cell_length_b 12.99100
_cell_length_c  9.71630
_cell_angle_alpha 90.00000
_cell_angle_beta  93.31000
_cell_angle_gamma 90.00000
_space_group_name_H-M_alt      'P 1'


loop_
_space_group_symop_operation_xyz
  'x, y, z' 

loop_
_atom_site_label
_atom_site_fract_x
_atom_site_fract_y
_atom_site_fract_z
_atom_site_type_symbol
S          0.0    0.253     0.75     S
S          0.0    0.747     0.25     S
O       0.0379   0.3199   0.6571     O
O       0.0379   0.6801   0.1571     O
O       0.0488   0.1865   0.8308     O
O       0.0488   0.8135   0.3308     O
O       0.1188    0.491   0.1284     O
O       0.1188    0.509   0.6284     O
Gd     0.12294  0.35261  0.49648    Gd
Gd     0.12294  0.64739  0.99648    Gd
O       0.1269   0.3307    0.253     O
O       0.1269   0.6693    0.753     O
O       0.1283     0.33   0.0057     O
O       0.1283     0.67   0.5057     O
S      0.15098  0.38716  0.13216     S
S      0.15098  0.61284  0.63216     S
O       0.1601   0.0867   0.6715     O
O       0.1601   0.9133   0.1715     O
O       0.1607   0.0092   0.4477     O
O       0.1607   0.9908   0.9477     O
Gd     0.16745  0.16908  0.90206    Gd
Gd     0.16745  0.83092  0.40206    Gd
O       0.1699   0.1919   0.4669     O
O       0.1699   0.8081   0.9669     O
O       0.1827   0.3097   0.7183     O
O       0.1827   0.6903   0.2183     O
S      0.18956  0.09311  0.53473     S
S      0.18956  0.90689  0.03473     S
O       0.2255   0.3992   0.1446     O
O       0.2255   0.6008   0.6446     O
C       0.2327    0.354   0.7831     C
C       0.2327    0.646   0.2831     C
O       0.2346    0.415   0.4545     O
O       0.2346    0.585   0.9545     O
O        0.242   0.1855   0.1079     O
O        0.242   0.8145   0.6079     O
H       0.2493   0.0892   0.2563     H
H       0.2493   0.9108   0.7563     H
H       0.2507   0.4108   0.7437     H
H       0.2507   0.5892   0.2437     H
O        0.258   0.3145   0.8921     O
O        0.258   0.6855   0.3921     O
O       0.2654    0.085   0.5455     O
O       0.2654    0.915   0.0455     O
C       0.2673    0.146   0.2169     C
C       0.2673    0.854   0.7169     C
O       0.2745   0.1008   0.8554     O
O       0.2745   0.8992   0.3554     O
S      0.31044  0.40689  0.46527     S
S      0.31044  0.59311  0.96527     S
O       0.3173   0.1903   0.2817     O
O       0.3173   0.8097   0.7817     O
O       0.3301   0.3081   0.5331     O
O       0.3301   0.6919   0.0331     O
Gd     0.33255  0.33092  0.09794    Gd
Gd     0.33255  0.66908  0.59794    Gd
O       0.3393   0.4908   0.5523     O
O       0.3393   0.5092   0.0523     O
O       0.3399   0.4133   0.3285     O
O       0.3399   0.5867   0.8285     O
S      0.34902  0.11284  0.86784     S
S      0.34902  0.88716  0.36784     S
O       0.3717     0.17   0.9943     O
O       0.3717     0.83   0.4943     O
O       0.3731   0.1693    0.747     O
O       0.3731   0.8307    0.247     O
Gd     0.37706  0.14739  0.50352    Gd
Gd     0.37706  0.85261  0.00352    Gd
O       0.3812    0.009   0.8716     O
O       0.3812    0.991   0.3716     O
O       0.4512   0.3135   0.1692     O
O       0.4512   0.6865   0.6692     O
O       0.4621   0.1801   0.3429     O
O       0.4621   0.8199   0.8429     O
S          0.5    0.247     0.25     S
S          0.5    0.753     0.75     S
O       0.5379   0.1801   0.1571     O
O       0.5379   0.8199   0.6571     O
O       0.5488   0.3135   0.3308     O
O       0.5488   0.6865   0.8308     O
O       0.6188    0.009   0.6284     O
O       0.6188    0.991   0.1284     O
Gd     0.62294  0.14739  0.99648    Gd
Gd     0.62294  0.85261  0.49648    Gd
O       0.6269   0.1693    0.753     O
O       0.6269   0.8307    0.253     O
O       0.6283     0.17   0.5057     O
O       0.6283     0.83   0.0057     O
S      0.65098  0.11284  0.63216     S
S      0.65098  0.88716  0.13216     S
O       0.6601   0.4133   0.1715     O
O       0.6601   0.5867   0.6715     O
O       0.6607   0.4908   0.9477     O
O       0.6607   0.5092   0.4477     O
Gd     0.66745  0.33092  0.40206    Gd
Gd     0.66745  0.66908  0.90206    Gd
O       0.6699   0.3081   0.9669     O
O       0.6699   0.6919   0.4669     O
O       0.6827   0.1903   0.2183     O
O       0.6827   0.8097   0.7183     O
S      0.68956  0.40689  0.03473     S
S      0.68956  0.59311  0.53473     S
O       0.7255   0.1008   0.6446     O
O       0.7255   0.8992   0.1446     O
C       0.7327    0.146   0.2831     C
C       0.7327    0.854   0.7831     C
O       0.7346    0.085   0.9545     O
O       0.7346    0.915   0.4545     O
O        0.742   0.3145   0.6079     O
O        0.742   0.6855   0.1079     O
H       0.7493   0.4108   0.7563     H
H       0.7493   0.5892   0.2563     H
H       0.7507   0.0892   0.2437     H
H       0.7507   0.9108   0.7437     H
O        0.758   0.1855   0.3921     O
O        0.758   0.8145   0.8921     O
O       0.7654    0.415   0.0455     O
O       0.7654    0.585   0.5455     O
C       0.7673    0.354   0.7169     C
C       0.7673    0.646   0.2169     C
O       0.7745   0.3992   0.3554     O
O       0.7745   0.6008   0.8554     O
S      0.81044  0.09311  0.96527     S
S      0.81044  0.90689  0.46527     S
O       0.8173   0.3097   0.7817     O
O       0.8173   0.6903   0.2817     O
O       0.8301   0.1919   0.0331     O
O       0.8301   0.8081   0.5331     O
Gd     0.83255  0.16908  0.59794    Gd
Gd     0.83255  0.83092  0.09794    Gd
O       0.8393   0.0092   0.0523     O
O       0.8393   0.9908   0.5523     O
O       0.8399   0.0867   0.8285     O
O       0.8399   0.9133   0.3285     O
S      0.84902  0.38716  0.36784     S
S      0.84902  0.61284  0.86784     S
O       0.8717     0.33   0.4943     O
O       0.8717     0.67   0.9943     O
O       0.8731   0.3307    0.247     O
O       0.8731   0.6693    0.747     O
Gd     0.87706  0.35261  0.00352    Gd
Gd     0.87706  0.64739  0.50352    Gd
O       0.8812    0.491   0.3716     O
O       0.8812    0.509   0.8716     O
O       0.9512   0.1865   0.6692     O
O       0.9512   0.8135   0.1692     O
O       0.9621   0.3199   0.8429     O
O       0.9621   0.6801   0.3429     O
