data_I
_chemical_name_common  '/home/zhangsd/repos/MofS-CGCNN/ML/data/TSD/clean_cifs/QUJFUX_clean'
_cell_length_a  9.16830
_cell_length_b  9.16830
_cell_length_c 16.02390
_cell_angle_alpha 73.89790
_cell_angle_beta  73.89790
_cell_angle_gamma 72.32300
_space_group_name_H-M_alt      'P 1'


loop_
_space_group_symop_operation_xyz
  'x, y, z' 

loop_
_atom_site_label
_atom_site_fract_x
_atom_site_fract_y
_atom_site_fract_z
_atom_site_type_symbol
C       0.0093   0.8081   0.6375     C
Cd     0.01399  0.98601     0.25    Cd
H       0.0289   0.1151   0.5231     H
C       0.0299   0.7817   0.4871     C
C       0.0637   0.7079   0.5693     C
N       0.0707   0.7405   0.3319     N
C       0.0866   0.6972   0.4192     C
O       0.1054   0.5172   0.7427     O
O       0.1117   0.8467   0.6602     O
H       0.1151   0.0289   0.0231     H
O       0.1348   0.1432   0.3328     O
O       0.1432   0.1348   0.8328     O
C       0.1462   0.6112      0.3     C
O       0.1533   0.8883   0.8398     O
H       0.1534   0.6066   0.2417     H
C       0.1559   0.5525   0.5856     C
C       0.1735   0.5425   0.4349     C
C       0.1919   0.9907   0.8625     C
C       0.1944   0.4722   0.6744     C
C       0.2096   0.4694   0.5175     C
N       0.2103   0.4893   0.3575     N
C       0.2183   0.9701   0.0129     C
Cd     0.24801  0.33137  0.84061    Cd
N       0.2595   0.9293   0.1681     N
H       0.2688   0.3664   0.5274     H
C       0.2921   0.9363   0.9307     C
C       0.3028   0.9134   0.0808     C
O       0.3132    0.358   0.6788     O
Cd     0.33137  0.24801  0.34061    Cd
O        0.358   0.3132   0.1788     O
H       0.3664   0.2688   0.0274     H
C       0.3888   0.8538      0.2     C
H       0.3934   0.8466   0.2583     H
C       0.4475   0.8441   0.9144     C
C       0.4575   0.8265   0.0651     C
C       0.4694   0.2096   0.0175     C
C       0.4722   0.1944   0.1744     C
O       0.4828   0.8946   0.7573     O
N       0.4893   0.2103   0.8575     N
N       0.5107   0.7897   0.1425     N
O       0.5172   0.1054   0.2427     O
C       0.5278   0.8056   0.8256     C
C       0.5306   0.7904   0.9825     C
C       0.5425   0.1735   0.9349     C
C       0.5525   0.1559   0.0856     C
H       0.6066   0.1534   0.7417     H
C       0.6112   0.1462      0.8     C
H       0.6336   0.7312   0.9726     H
O        0.642   0.6868   0.8212     O
Cd     0.66863  0.75199  0.65939    Cd
O       0.6868    0.642   0.3212     O
C       0.6972   0.0866   0.9192     C
C       0.7079   0.0637   0.0693     C
H       0.7312   0.6336   0.4726     H
N       0.7405   0.0707   0.8319     N
Cd     0.75199  0.66863  0.15939    Cd
C       0.7817   0.0299   0.9871     C
N       0.7897   0.5107   0.6425     N
C       0.7904   0.5306   0.4825     C
C       0.8056   0.5278   0.3256     C
C       0.8081   0.0093   0.1375     C
C       0.8265   0.4575   0.5651     C
C       0.8441   0.4475   0.4144     C
H       0.8466   0.3934   0.7583     H
O       0.8467   0.1117   0.1602     O
C       0.8538   0.3888      0.7     C
O       0.8568   0.8652   0.1672     O
O       0.8652   0.8568   0.6672     O
H       0.8849   0.9711   0.9769     H
O       0.8883   0.1533   0.3398     O
O       0.8946   0.4828   0.2573     O
C       0.9134   0.3028   0.5808     C
N       0.9293   0.2595   0.6681     N
C       0.9363   0.2921   0.4307     C
C       0.9701   0.2183   0.5129     C
H       0.9711   0.8849   0.4769     H
Cd     0.98601  0.01399     0.75    Cd
C       0.9907   0.1919   0.3625     C
