data_I
_chemical_name_common  '/home/zhangsd/repos/MofS-CGCNN/ML/data/TSD/clean_cifs/QUPHIT_clean'
_cell_length_a  9.40920
_cell_length_b 10.33760
_cell_length_c 24.35300
_cell_angle_alpha 93.97800
_cell_angle_beta  90.00000
_cell_angle_gamma 90.00000
_space_group_name_H-M_alt      'P 1'


loop_
_space_group_symop_operation_xyz
  'x, y, z' 

loop_
_atom_site_label
_atom_site_fract_x
_atom_site_fract_y
_atom_site_fract_z
_atom_site_type_symbol
O       0.0152   0.1431   0.6915     O
O       0.0152   0.8569   0.8085     O
H        0.017   0.3858   0.2097     H
H        0.017   0.6142   0.2903     H
C        0.027   0.0327  0.67248     C
C        0.027   0.9673  0.82752     C
O       0.0362   0.4366  0.31453     O
O       0.0362   0.5634  0.18547     O
C       0.0453    0.456  0.70052     C
C       0.0453    0.544  0.79948     C
O       0.0607    0.054  0.31751     O
O       0.0607    0.946  0.18249     O
H       0.0967   0.3536   0.1206     H
H       0.0967   0.6464   0.3794     H
H       0.1057   0.4249   0.6701     H
H       0.1057   0.5751   0.8299     H
H       0.1132   0.2004   0.8686     H
H       0.1132   0.7996   0.6314     H
C        0.133   0.4586   0.3549     C
C        0.133   0.5414   0.1451     C
C       0.1355      0.5     0.75     C
C       0.1514   0.0073  0.86342     C
C       0.1514   0.9927  0.63658     C
C       0.1534   0.4252  0.11499     C
C       0.1534   0.5748  0.38501     C
Co     0.16351      0.0     0.25    Co
H       0.1701   0.3079   0.7659     H
H       0.1701   0.6921   0.7341     H
C       0.1751   0.1371  0.87974     C
C       0.1751   0.8629  0.62026     C
H        0.198   0.2735   0.3505     H
H        0.198   0.7265   0.1495     H
C       0.2139   0.3551   0.3679     C
C       0.2139   0.6449   0.1321     C
C       0.2274   0.3856  0.76477     C
C       0.2274   0.6144  0.73523     C
H       0.2337   0.1718   0.6332     H
H       0.2337   0.8282   0.8668     H
C       0.2474   0.0852  0.62139     C
C       0.2474   0.9148  0.87861     C
H       0.2502   0.2219   0.1801     H
H       0.2502   0.7781   0.3199     H
O       0.2572   0.3966  0.90581     O
O       0.2572   0.6034  0.59419     O
C       0.2603   0.4182  0.07625     C
C       0.2603   0.5818  0.42375     C
H       0.2712   0.4037   0.8005     H
H       0.2712   0.5963   0.6995     H
H       0.2744    0.339   0.0565     H
H       0.2744    0.661   0.4435     H
C       0.2901   0.1716  0.91234     C
C       0.2901   0.8284  0.58766     C
N        0.316    0.141  0.24554     N
N        0.316    0.859  0.25446     N
C       0.3184    0.373   0.4066     C
C       0.3184    0.627   0.0934     C
C        0.319   0.3121  0.93069     C
C        0.319   0.6879  0.56931     C
C       0.3259   0.2188  0.20451     C
C       0.3259   0.7812  0.29549     C
O       0.3349   0.3685  0.72252     O
O       0.3349   0.6315  0.77748     O
N       0.3438   0.4856  0.43503     N
N       0.3438   0.5144  0.06497     N
C       0.3625   0.0505   0.5891     C
C       0.3625   0.9495   0.9109     C
H       0.3753   0.3024   0.4135     H
H       0.3753   0.6976   0.0865     H
H       0.3831   0.2145   0.8025     H
H       0.3831   0.7855   0.6975     H
C       0.3834   0.0783  0.92836     C
C       0.3834   0.9217  0.57164     C
O       0.4071   0.3327  0.96802     O
O       0.4071   0.6673  0.53198     O
H       0.4185   0.0905   0.3102     H
H       0.4185   0.9095   0.1898     H
H       0.4244   0.1719   0.5382     H
H       0.4244   0.8281   0.9618     H
C       0.4246    0.143  0.28077     C
C       0.4246    0.857  0.21923     C
C        0.442   0.2943  0.19659     C
C        0.442   0.7057  0.30341     C
H       0.4456   0.3455   0.1667     H
H       0.4456   0.6545   0.3333     H
C       0.4466   0.2944   0.7328     C
C       0.4466   0.7056   0.7672     C
C       0.4558   0.2166   0.7767     C
C       0.4558   0.7834   0.7233     C
O       0.4573   0.1343   0.5708     O
O       0.4573   0.8657   0.9292     O
H       0.4603    0.102   0.9509     H
H       0.4603    0.898   0.5491     H
Co         0.5      0.5      0.0    Co
Co         0.5      0.5      0.5    Co
H       0.5397    0.102   0.4509     H
H       0.5397    0.898   0.0491     H
O       0.5427   0.1343   0.0708     O
O       0.5427   0.8657   0.4292     O
C       0.5442   0.2166   0.2767     C
C       0.5442   0.7834   0.2233     C
C       0.5534   0.2944   0.2328     C
C       0.5534   0.7056   0.2672     C
H       0.5544   0.3455   0.6667     H
H       0.5544   0.6545   0.8333     H
C        0.558   0.2943  0.69659     C
C        0.558   0.7057  0.80341     C
C       0.5754    0.143  0.78077     C
C       0.5754    0.857  0.71923     C
H       0.5756   0.1719   0.0382     H
H       0.5756   0.8281   0.4618     H
H       0.5815   0.0905   0.8102     H
H       0.5815   0.9095   0.6898     H
O       0.5929   0.3327  0.46802     O
O       0.5929   0.6673  0.03198     O
C       0.6166   0.0783  0.42836     C
C       0.6166   0.9217  0.07164     C
H       0.6169   0.2145   0.3025     H
H       0.6169   0.7855   0.1975     H
H       0.6247   0.3024   0.9135     H
H       0.6247   0.6976   0.5865     H
C       0.6375   0.0505   0.0891     C
C       0.6375   0.9495   0.4109     C
N       0.6562   0.4856  0.93503     N
N       0.6562   0.5144  0.56497     N
O       0.6651   0.3685  0.22252     O
O       0.6651   0.6315  0.27748     O
C       0.6741   0.2188  0.70451     C
C       0.6741   0.7812  0.79549     C
C        0.681   0.3121  0.43069     C
C        0.681   0.6879  0.06931     C
C       0.6816    0.373   0.9066     C
C       0.6816    0.627   0.5934     C
N        0.684    0.141  0.74554     N
N        0.684    0.859  0.75446     N
C       0.7099   0.1716  0.41234     C
C       0.7099   0.8284  0.08766     C
H       0.7256    0.339   0.5565     H
H       0.7256    0.661   0.9435     H
H       0.7288   0.4037   0.3005     H
H       0.7288   0.5963   0.1995     H
C       0.7397   0.4182  0.57625     C
C       0.7397   0.5818  0.92375     C
O       0.7428   0.3966  0.40581     O
O       0.7428   0.6034  0.09419     O
H       0.7498   0.2219   0.6801     H
H       0.7498   0.7781   0.8199     H
C       0.7526   0.0852  0.12139     C
C       0.7526   0.9148  0.37861     C
H       0.7663   0.1718   0.1332     H
H       0.7663   0.8282   0.3668     H
C       0.7726   0.3856  0.26477     C
C       0.7726   0.6144  0.23523     C
C       0.7861   0.3551   0.8679     C
C       0.7861   0.6449   0.6321     C
H        0.802   0.2735   0.8505     H
H        0.802   0.7265   0.6495     H
C       0.8249   0.1371  0.37974     C
C       0.8249   0.8629  0.12026     C
H       0.8299   0.3079   0.2659     H
H       0.8299   0.6921   0.2341     H
Co     0.83649      0.0     0.75    Co
C       0.8466   0.4252  0.61499     C
C       0.8466   0.5748  0.88501     C
C       0.8486   0.0073  0.36342     C
C       0.8486   0.9927  0.13658     C
C       0.8645      0.5     0.25     C
C        0.867   0.4586   0.8549     C
C        0.867   0.5414   0.6451     C
H       0.8868   0.2004   0.3686     H
H       0.8868   0.7996   0.1314     H
H       0.8943   0.4249   0.1701     H
H       0.8943   0.5751   0.3299     H
H       0.9033   0.3536   0.6206     H
H       0.9033   0.6464   0.8794     H
O       0.9393    0.054  0.81751     O
O       0.9393    0.946  0.68249     O
C       0.9547    0.456  0.20052     C
C       0.9547    0.544  0.29948     C
O       0.9638   0.4366  0.81453     O
O       0.9638   0.5634  0.68547     O
C        0.973   0.0327  0.17248     C
C        0.973   0.9673  0.32752     C
H        0.983   0.3858   0.7097     H
H        0.983   0.6142   0.7903     H
O       0.9848   0.1431   0.1915     O
O       0.9848   0.8569   0.3085     O
