data_I
_chemical_name_common  '/home/zhangsd/repos/MofS-CGCNN/ML/data/TSD/clean_cifs/QUQFOY_clean'
_cell_length_a 18.16300
_cell_length_b 19.93690
_cell_length_c 19.93690
_cell_angle_alpha 109.07000
_cell_angle_beta  108.00300
_cell_angle_gamma 71.99690
_space_group_name_H-M_alt      'P 1'


loop_
_space_group_symop_operation_xyz
  'x, y, z' 

loop_
_atom_site_label
_atom_site_fract_x
_atom_site_fract_y
_atom_site_fract_z
_atom_site_type_symbol
C       0.0037   0.2384   0.2688     C
C        0.011   0.7669   0.8025     C
O       0.0216   0.2716   0.9588     O
H       0.0266   0.2021   0.1715     H
O       0.0397   0.1816   0.8608     O
H       0.0496   0.7172   0.6458     H
O        0.051   0.7885   0.9541     O
C       0.0566   0.7183   0.6943     C
C       0.0614   0.2302   0.9206     C
Cd     0.06511  0.84254  0.22914    Cd
C       0.0786   0.7284    0.838     C
C       0.0787   0.1989   0.3093     C
C       0.0897    0.732   0.9176     C
H       0.0931   0.1071   0.2261     H
H        0.095   0.2728   0.4034     H
Cd     0.10032  0.73751  0.05485    Cd
O       0.1066   0.8555   0.1385     O
C       0.1185   0.1286    0.273     C
C        0.119   0.2273   0.3779     C
C       0.1259   0.6777   0.7285     C
O       0.1286   0.7237   0.1921     O
H       0.1358   0.9807   0.2199     H
O        0.138    0.679    0.943     O
C       0.1388   0.6819   0.8011     C
C       0.1525    0.225    0.937     C
C       0.1569   0.6611   0.1639     C
H       0.1574   0.2932   0.0384     H
O       0.1601   0.6374   0.0996     O
H       0.1634   0.6774   0.3002     H
Cd     0.16522  0.65321  0.53167    Cd
O       0.1698   0.6036   0.6192     O
H       0.1745   0.1572   0.8406     H
C       0.1805   0.8449   0.1339     C
O       0.1826     0.67   0.4294     O
H       0.1852   0.6554   0.8254     H
C       0.1879   0.2647   0.0047     C
C       0.1884   0.6285   0.6885     C
C       0.1889   0.6296   0.2812     C
C       0.1895     0.97   0.2202     C
C       0.1916   0.0911   0.3031     C
C       0.1944   0.1925   0.4127     C
C        0.195   0.6074   0.2096     C
C       0.1987   0.1827   0.8861     C
C       0.2097   0.6037   0.4045     C
O       0.2108   0.7886   0.0952     O
H       0.2149   0.3288   0.4764     H
C       0.2208   0.5807   0.3261     C
C       0.2221   0.9019   0.1785     C
H       0.2237   0.3974   0.1012     H
O       0.2255   0.5583   0.4379     O
C       0.2272   0.1258   0.3748     C
C       0.2311   0.0217   0.2615     C
C        0.233   0.5358    0.182     C
C       0.2352   0.2248   0.4864     C
H       0.2372   0.5205   0.1337     H
C       0.2386   0.2989   0.5083     C
O       0.2401   0.7287   0.6089     O
O       0.2599   0.6089   0.7287     O
C       0.2614   0.5083   0.2989     C
H       0.2628   0.1337   0.5205     H
C       0.2648   0.4864   0.2248     C
C        0.267    0.182   0.5358     C
C       0.2689   0.2615   0.0217     C
C       0.2728   0.3748   0.1258     C
O       0.2745   0.4379   0.5583     O
H       0.2763   0.1012   0.3974     H
C       0.2779   0.1785   0.9019     C
C       0.2792   0.3261   0.5807     C
H       0.2851   0.4764   0.3288     H
O       0.2892   0.0952   0.7886     O
C       0.2903   0.4045   0.6037     C
C       0.3013   0.8861   0.1827     C
C        0.305   0.2096   0.6074     C
C       0.3056   0.4127   0.1925     C
C       0.3084   0.3031   0.0911     C
C       0.3105   0.2202     0.97     C
C       0.3111   0.2812   0.6296     C
C       0.3116   0.6885   0.6285     C
C       0.3121   0.0047   0.2647     C
H       0.3148   0.8254   0.6554     H
O       0.3174   0.4294     0.67     O
C       0.3195   0.1339   0.8449     C
H       0.3255   0.8406   0.1572     H
O       0.3302   0.6192   0.6036     O
Cd     0.33478  0.53167  0.65321    Cd
H       0.3366   0.3002   0.6774     H
O       0.3399   0.0996   0.6374     O
H       0.3426   0.0384   0.2932     H
C       0.3431   0.1639   0.6611     C
C       0.3475    0.937    0.225     C
C       0.3612   0.8011   0.6819     C
O        0.362    0.943    0.679     O
H       0.3642   0.2199   0.9807     H
O       0.3714   0.1921   0.7237     O
C       0.3741   0.7285   0.6777     C
C        0.381   0.3779   0.2273     C
C       0.3815    0.273   0.1286     C
O       0.3934   0.1385   0.8555     O
Cd     0.39968  0.05485  0.73751    Cd
H        0.405   0.4034   0.2728     H
H       0.4069   0.2261   0.1071     H
C       0.4103   0.9176    0.732     C
C       0.4213   0.3093   0.1989     C
C       0.4214    0.838   0.7284     C
Cd     0.43489  0.22914  0.84254    Cd
C       0.4386   0.9206   0.2302     C
C       0.4434   0.6943   0.7183     C
O        0.449   0.9541   0.7885     O
H       0.4504   0.6458   0.7172     H
O       0.4603   0.8608   0.1816     O
H       0.4734   0.1715   0.2021     H
O       0.4784   0.9588   0.2716     O
C        0.489   0.8025   0.7669     C
C       0.4963   0.2688   0.2384     C
C       0.5037   0.7312   0.7616     C
C        0.511   0.1975   0.2331     C
O       0.5216   0.0412   0.7284     O
H       0.5266   0.8285   0.7979     H
O       0.5397   0.1392   0.8184     O
H       0.5496   0.3542   0.2828     H
O        0.551   0.0459   0.2115     O
C       0.5566   0.3057   0.2817     C
C       0.5614   0.0794   0.7698     C
Cd     0.56511  0.77086  0.15746    Cd
C       0.5786    0.162   0.2716     C
C       0.5787   0.6907   0.8011     C
C       0.5897   0.0824    0.268     C
H       0.5931   0.7739   0.8929     H
H        0.595   0.5966   0.7272     H
Cd     0.60032  0.94515  0.26249    Cd
O       0.6066   0.8615   0.1445     O
C       0.6185    0.727   0.8714     C
C        0.619   0.6221   0.7727     C
C       0.6259   0.2715   0.3223     C
O       0.6286   0.8079   0.2763     O
H       0.6358   0.7801   0.0193     H
O        0.638    0.057    0.321     O
C       0.6388   0.1989   0.3181     C
C       0.6525    0.063    0.775     C
C       0.6569   0.8361   0.3389     C
H       0.6574   0.9616   0.7068     H
O       0.6601   0.9004   0.3626     O
H       0.6634   0.6998   0.3226     H
Cd     0.66522  0.46833  0.34679    Cd
O       0.6698   0.3808   0.3964     O
H       0.6745   0.1594   0.8428     H
C       0.6805   0.8661   0.1551     C
O       0.6826   0.5706     0.33     O
H       0.6852   0.1746   0.3446     H
C       0.6879   0.9953   0.7353     C
C       0.6884   0.3115   0.3715     C
C       0.6889   0.7188   0.3704     C
C       0.6895   0.7798     0.03     C
C       0.6916   0.6969   0.9089     C
C       0.6944   0.5873   0.8075     C
C        0.695   0.7904   0.3926     C
C       0.6987   0.1139   0.8173     C
C       0.7097   0.5955   0.3963     C
O       0.7108   0.9048   0.2114     O
H       0.7149   0.5236   0.6712     H
C       0.7208   0.6739   0.4193     C
C       0.7221   0.8215   0.0981     C
H       0.7237   0.8988   0.6026     H
O       0.7255   0.5621   0.4417     O
C       0.7272   0.6252   0.8742     C
C       0.7311   0.7385   0.9783     C
C        0.733    0.818   0.4642     C
C       0.7352   0.5136   0.7752     C
H       0.7372   0.8663   0.4795     H
C       0.7386   0.4917   0.7011     C
O       0.7401   0.3911   0.2713     O
O       0.7599   0.2713   0.3911     O
C       0.7614   0.7011   0.4917     C
H       0.7628   0.4795   0.8663     H
C       0.7648   0.7752   0.5136     C
C        0.767   0.4642    0.818     C
C       0.7689   0.9783   0.7385     C
C       0.7728   0.8742   0.6252     C
O       0.7745   0.4417   0.5621     O
H       0.7763   0.6026   0.8988     H
C       0.7779   0.0981   0.8215     C
C       0.7792   0.4193   0.6739     C
H       0.7851   0.6712   0.5236     H
O       0.7892   0.2114   0.9048     O
C       0.7903   0.3963   0.5955     C
C       0.8013   0.8173   0.1139     C
C        0.805   0.3926   0.7904     C
C       0.8056   0.8075   0.5873     C
C       0.8084   0.9089   0.6969     C
C       0.8105     0.03   0.7798     C
C       0.8111   0.3704   0.7188     C
C       0.8116   0.3715   0.3115     C
C       0.8121   0.7353   0.9953     C
H       0.8148   0.3446   0.1746     H
O       0.8174     0.33   0.5706     O
C       0.8195   0.1551   0.8661     C
H       0.8255   0.8428   0.1594     H
O       0.8302   0.3964   0.3808     O
Cd     0.83478  0.34679  0.46833    Cd
H       0.8366   0.3226   0.6998     H
O       0.8399   0.3626   0.9004     O
H       0.8426   0.7068   0.9616     H
C       0.8431   0.3389   0.8361     C
C       0.8475    0.775    0.063     C
C       0.8612   0.3181   0.1989     C
O        0.862    0.321    0.057     O
H       0.8642   0.0193   0.7801     H
O       0.8714   0.2763   0.8079     O
C       0.8741   0.3223   0.2715     C
C        0.881   0.7727   0.6221     C
C       0.8815   0.8714    0.727     C
O       0.8934   0.1445   0.8615     O
Cd     0.89968  0.26249  0.94515    Cd
H        0.905   0.7272   0.5966     H
H       0.9069   0.8929   0.7739     H
C       0.9103    0.268   0.0824     C
C       0.9213   0.8011   0.6907     C
C       0.9214   0.2716    0.162     C
Cd     0.93489  0.15746  0.77086    Cd
C       0.9386   0.7698   0.0794     C
C       0.9434   0.2817   0.3057     C
O        0.949   0.2115   0.0459     O
H       0.9504   0.2828   0.3542     H
O       0.9603   0.8184   0.1392     O
H       0.9734   0.7979   0.8285     H
O       0.9784   0.7284   0.0412     O
C        0.989   0.2331   0.1975     C
C       0.9963   0.7616   0.7312     C
