data_I
_chemical_name_common  '/home/zhangsd/repos/MofS-CGCNN/ML/data/TSD/clean_cifs/QUQGAL_clean'
_cell_length_a  8.59580
_cell_length_b 15.80000
_cell_length_c 18.46000
_cell_angle_alpha 90.00000
_cell_angle_beta  90.00000
_cell_angle_gamma 90.00000
_space_group_name_H-M_alt      'P 1'


loop_
_space_group_symop_operation_xyz
  'x, y, z' 

loop_
_atom_site_label
_atom_site_fract_x
_atom_site_fract_y
_atom_site_fract_z
_atom_site_type_symbol
Li      0.0884   0.4556   0.9546    Li
Li      0.0884   0.5444   0.5454    Li
Li      0.1056  0.41795  0.67227    Li
Li      0.1056  0.58205  0.82773    Li
O      0.11322  0.43745  0.49963     O
O      0.11322  0.56255  0.00037     O
O       0.1197  0.46125  0.85206     O
O       0.1197  0.53875  0.64794     O
H       0.1374    0.364   0.3805     H
H       0.1374    0.636   0.1195     H
C      0.16813  0.36901  0.52502     C
C      0.16813  0.63099  0.97498     C
C       0.1775   0.3129  0.39706     C
C       0.1775   0.6871  0.10294     C
C      0.18197  0.39711  0.82366     C
C      0.18197  0.60289  0.67634     C
H       0.1914   0.2556   0.2994     H
H       0.1914   0.7444   0.2006     H
O      0.19333  0.35445  0.58953     O
O      0.19333  0.64555  0.91047     O
N      0.20164  0.33961  0.94578     N
N      0.20164  0.66039  0.55422     N
C      0.20445  0.30089  0.47011     C
C      0.20445  0.69911  0.02989     C
O      0.20767  0.38531  0.75858     O
O      0.20767  0.61469  0.74142     O
C       0.2103  0.24865  0.34863     C
C       0.2103  0.75135  0.15137     C
H       0.2155   0.2852    0.041     H
H       0.2155   0.7148    0.459     H
C      0.22809  0.32624  0.87497     C
C      0.22809  0.67376  0.62503     C
C       0.2344  0.27665  0.99195     C
C       0.2344  0.72335  0.50805     C
C       0.2656  0.22335  0.49195     C
C       0.2656  0.77665  0.00805     C
C      0.27191  0.17376  0.37497     C
C      0.27191  0.82624  0.12503     C
H       0.2845   0.2148    0.541     H
H       0.2845   0.7852    0.959     H
C       0.2897  0.25135  0.84863     C
C       0.2897  0.74865  0.65137     C
O      0.29233  0.11469  0.25858     O
O      0.29233  0.88531  0.24142     O
C      0.29555  0.19911  0.97011     C
C      0.29555  0.80089  0.52989     C
N      0.29836  0.16039  0.44578     N
N      0.29836  0.83961  0.05422     N
O      0.30667  0.14555  0.08953     O
O      0.30667  0.85445  0.41047     O
H       0.3086   0.2444   0.7994     H
H       0.3086   0.7556   0.7006     H
C      0.31803  0.10289  0.32366     C
C      0.31803  0.89711  0.17634     C
C       0.3225   0.1871  0.89706     C
C       0.3225   0.8129  0.60294     C
C      0.33187  0.13099  0.02502     C
C      0.33187  0.86901  0.47498     C
H       0.3626    0.136   0.8805     H
H       0.3626    0.864   0.6195     H
O       0.3803  0.03875  0.35206     O
O       0.3803  0.96125  0.14794     O
O      0.38678  0.06255  0.99963     O
O      0.38678  0.93745  0.50037     O
Li      0.3944  0.08205  0.17227    Li
Li      0.3944  0.91795  0.32773    Li
Li      0.4116   0.0444   0.4546    Li
Li      0.4116   0.9556   0.0454    Li
Li      0.5884   0.0444   0.9546    Li
Li      0.5884   0.9556   0.5454    Li
Li      0.6056  0.08205  0.67227    Li
Li      0.6056  0.91795  0.82773    Li
O      0.61322  0.06255  0.49963     O
O      0.61322  0.93745  0.00037     O
O       0.6197  0.03875  0.85206     O
O       0.6197  0.96125  0.64794     O
H       0.6374    0.136   0.3805     H
H       0.6374    0.864   0.1195     H
C      0.66813  0.13099  0.52502     C
C      0.66813  0.86901  0.97498     C
C       0.6775   0.1871  0.39706     C
C       0.6775   0.8129  0.10294     C
C      0.68197  0.10289  0.82366     C
C      0.68197  0.89711  0.67634     C
H       0.6914   0.2444   0.2994     H
H       0.6914   0.7556   0.2006     H
O      0.69333  0.14555  0.58953     O
O      0.69333  0.85445  0.91047     O
N      0.70164  0.16039  0.94578     N
N      0.70164  0.83961  0.55422     N
C      0.70445  0.19911  0.47011     C
C      0.70445  0.80089  0.02989     C
O      0.70767  0.11469  0.75858     O
O      0.70767  0.88531  0.74142     O
C       0.7103  0.25135  0.34863     C
C       0.7103  0.74865  0.15137     C
H       0.7155   0.2148    0.041     H
H       0.7155   0.7852    0.459     H
C      0.72809  0.17376  0.87497     C
C      0.72809  0.82624  0.62503     C
C       0.7344  0.22335  0.99195     C
C       0.7344  0.77665  0.50805     C
C       0.7656  0.27665  0.49195     C
C       0.7656  0.72335  0.00805     C
C      0.77191  0.32624  0.37497     C
C      0.77191  0.67376  0.12503     C
H       0.7845   0.2852    0.541     H
H       0.7845   0.7148    0.959     H
C       0.7897  0.24865  0.84863     C
C       0.7897  0.75135  0.65137     C
O      0.79233  0.38531  0.25858     O
O      0.79233  0.61469  0.24142     O
C      0.79555  0.30089  0.97011     C
C      0.79555  0.69911  0.52989     C
N      0.79836  0.33961  0.44578     N
N      0.79836  0.66039  0.05422     N
O      0.80667  0.35445  0.08953     O
O      0.80667  0.64555  0.41047     O
H       0.8086   0.2556   0.7994     H
H       0.8086   0.7444   0.7006     H
C      0.81803  0.39711  0.32366     C
C      0.81803  0.60289  0.17634     C
C       0.8225   0.3129  0.89706     C
C       0.8225   0.6871  0.60294     C
C      0.83187  0.36901  0.02502     C
C      0.83187  0.63099  0.47498     C
H       0.8626    0.364   0.8805     H
H       0.8626    0.636   0.6195     H
O       0.8803  0.46125  0.35206     O
O       0.8803  0.53875  0.14794     O
O      0.88678  0.43745  0.99963     O
O      0.88678  0.56255  0.50037     O
Li      0.8944  0.41795  0.17227    Li
Li      0.8944  0.58205  0.32773    Li
Li      0.9116   0.4556   0.4546    Li
Li      0.9116   0.5444   0.0454    Li
