data_I
_chemical_name_common  '/home/zhangsd/repos/MofS-CGCNN/ML/data/TSD/clean_cifs/QUSCEN_clean'
_cell_length_a 23.30330
_cell_length_b 23.30330
_cell_length_c  6.57880
_cell_angle_alpha 90.00000
_cell_angle_beta  90.00000
_cell_angle_gamma 90.00000
_space_group_name_H-M_alt      'P 1'


loop_
_space_group_symop_operation_xyz
  'x, y, z' 

loop_
_atom_site_label
_atom_site_fract_x
_atom_site_fract_y
_atom_site_fract_z
_atom_site_type_symbol
Li         0.0      0.0      0.0    Li
Cd         0.0      0.0      0.5    Cd
Li         0.0      0.5     0.25    Li
Cd         0.0      0.5     0.75    Cd
O      0.03725  0.04434   0.7955     O
O      0.03725  0.45566   0.4545     O
O      0.04434  0.53725   0.0455     O
O      0.04434  0.96275   0.2045     O
H       0.0619   0.1129   0.0884     H
H       0.0619   0.3871   0.1616     H
C      0.07083   0.0781   0.7028     C
C      0.07083   0.4219   0.5472     C
O      0.07442   0.0757   0.5177     O
O      0.07442   0.4243   0.7323     O
O       0.0757  0.57442   0.7677     O
O       0.0757  0.92558   0.4823     O
C       0.0781  0.57083   0.9528     C
C       0.0781  0.92917   0.2972     C
C      0.09011  0.13389   0.0219     C
C      0.09011  0.36611   0.2281     C
C      0.10212  0.12254   0.8224     C
C      0.10212  0.37746   0.4276     C
H       0.1113   0.1823   0.2608     H
H       0.1113   0.3177   0.9892     H
H       0.1129   0.5619   0.3384     H
H       0.1129   0.9381   0.9116     H
C       0.1191   0.1756   0.1241     C
C       0.1191   0.3244   0.1259     C
C      0.12254  0.60212   0.0724     C
C      0.12254  0.89788   0.1776     C
C      0.13389  0.59011   0.2719     C
C      0.13389  0.90989   0.9781     C
H       0.1447   0.6554   0.8427     H
H       0.1447   0.8446   0.4073     H
C       0.1457   0.1532   0.7264     C
C       0.1457   0.3468   0.5236     C
C       0.1532   0.6457   0.9764     C
C       0.1532   0.8543   0.2736     C
H       0.1554   0.1447   0.5927     H
H       0.1554   0.3553   0.6573     H
C       0.1607  0.20867   0.0225     C
C       0.1607  0.29133   0.2275     C
C       0.1745   0.1962   0.8277     C
C       0.1745   0.3038   0.4223     C
C       0.1756   0.6191   0.3741     C
C       0.1756   0.8809   0.8759     C
H       0.1823   0.6113   0.5108     H
H       0.1823   0.8887   0.7392     H
O      0.19148     0.25    0.125     O
C       0.1962   0.6745   0.0777     C
C       0.1962   0.8255   0.1723     C
H       0.2034   0.2166   0.7622     H
H       0.2034   0.2834   0.4878     H
C      0.20867   0.6607   0.2725     C
C      0.20867   0.8393   0.9775     C
H       0.2166   0.7034   0.0122     H
H       0.2166   0.7966   0.2378     H
O         0.25  0.69148    0.375     O
O         0.25  0.80852    0.875     O
H       0.2834   0.7034   0.7378     H
H       0.2834   0.7966   0.5122     H
C      0.29133   0.6607   0.4775     C
C      0.29133   0.8393   0.7725     C
H       0.2966   0.2166   0.9878     H
H       0.2966   0.2834   0.2622     H
C       0.3038   0.6745   0.6723     C
C       0.3038   0.8255   0.5777     C
O      0.30852     0.25    0.625     O
H       0.3177   0.6113   0.2392     H
H       0.3177   0.8887   0.0108     H
C       0.3244   0.6191   0.3759     C
C       0.3244   0.8809   0.8741     C
C       0.3255   0.1962   0.9223     C
C       0.3255   0.3038   0.3277     C
C       0.3393  0.20867   0.7275     C
C       0.3393  0.29133   0.5225     C
H       0.3446   0.1447   0.1573     H
H       0.3446   0.3553   0.0927     H
C       0.3468   0.6457   0.7736     C
C       0.3468   0.8543   0.4764     C
C       0.3543   0.1532   0.0236     C
C       0.3543   0.3468   0.2264     C
H       0.3553   0.6554   0.9073     H
H       0.3553   0.8446   0.3427     H
C      0.36611  0.59011   0.4781     C
C      0.36611  0.90989   0.7719     C
C      0.37746  0.60212   0.6776     C
C      0.37746  0.89788   0.5724     C
C       0.3809   0.1756   0.6259     C
C       0.3809   0.3244   0.6241     C
H       0.3871   0.5619   0.4116     H
H       0.3871   0.9381   0.8384     H
H       0.3887   0.1823   0.4892     H
H       0.3887   0.3177   0.7608     H
C      0.39788  0.12254   0.9276     C
C      0.39788  0.37746   0.3224     C
C      0.40989  0.13389   0.7281     C
C      0.40989  0.36611   0.5219     C
C       0.4219  0.57083   0.7972     C
C       0.4219  0.92917   0.4528     C
O       0.4243  0.57442   0.9823     O
O       0.4243  0.92558   0.2677     O
O      0.42558   0.0757   0.2323     O
O      0.42558   0.4243   0.0177     O
C      0.42917   0.0781   0.0472     C
C      0.42917   0.4219   0.2028     C
H       0.4381   0.1129   0.6616     H
H       0.4381   0.3871   0.5884     H
O      0.45566  0.53725   0.7045     O
O      0.45566  0.96275   0.5455     O
O      0.46275  0.04434   0.9545     O
O      0.46275  0.45566   0.2955     O
Cd         0.5      0.0     0.25    Cd
Li         0.5      0.0     0.75    Li
Cd         0.5      0.5      0.0    Cd
Li         0.5      0.5      0.5    Li
O      0.53725  0.54434   0.2955     O
O      0.53725  0.95566   0.9545     O
O      0.54434  0.03725   0.5455     O
O      0.54434  0.46275   0.7045     O
H       0.5619   0.6129   0.5884     H
H       0.5619   0.8871   0.6616     H
C      0.57083   0.5781   0.2028     C
C      0.57083   0.9219   0.0472     C
O      0.57442   0.5757   0.0177     O
O      0.57442   0.9243   0.2323     O
O       0.5757  0.07442   0.2677     O
O       0.5757  0.42558   0.9823     O
C       0.5781  0.07083   0.4528     C
C       0.5781  0.42917   0.7972     C
C      0.59011  0.63389   0.5219     C
C      0.59011  0.86611   0.7281     C
C      0.60212  0.62254   0.3224     C
C      0.60212  0.87746   0.9276     C
H       0.6113   0.6823   0.7608     H
H       0.6113   0.8177   0.4892     H
H       0.6129   0.0619   0.8384     H
H       0.6129   0.4381   0.4116     H
C       0.6191   0.6756   0.6241     C
C       0.6191   0.8244   0.6259     C
C      0.62254  0.10212   0.5724     C
C      0.62254  0.39788   0.6776     C
C      0.63389  0.09011   0.7719     C
C      0.63389  0.40989   0.4781     C
H       0.6447   0.1554   0.3427     H
H       0.6447   0.3446   0.9073     H
C       0.6457   0.6532   0.2264     C
C       0.6457   0.8468   0.0236     C
C       0.6532   0.1457   0.4764     C
C       0.6532   0.3543   0.7736     C
H       0.6554   0.6447   0.0927     H
H       0.6554   0.8553   0.1573     H
C       0.6607  0.70867   0.5225     C
C       0.6607  0.79133   0.7275     C
C       0.6745   0.6962   0.3277     C
C       0.6745   0.8038   0.9223     C
C       0.6756   0.1191   0.8741     C
C       0.6756   0.3809   0.3759     C
H       0.6823   0.1113   0.0108     H
H       0.6823   0.3887   0.2392     H
O      0.69148     0.75    0.625     O
C       0.6962   0.1745   0.5777     C
C       0.6962   0.3255   0.6723     C
H       0.7034   0.7166   0.2622     H
H       0.7034   0.7834   0.9878     H
C      0.70867   0.1607   0.7725     C
C      0.70867   0.3393   0.4775     C
H       0.7166   0.2034   0.5122     H
H       0.7166   0.2966   0.7378     H
O         0.75  0.19148    0.875     O
O         0.75  0.30852    0.375     O
H       0.7834   0.2034   0.2378     H
H       0.7834   0.2966   0.0122     H
C      0.79133   0.1607   0.9775     C
C      0.79133   0.3393   0.2725     C
H       0.7966   0.7166   0.4878     H
H       0.7966   0.7834   0.7622     H
C       0.8038   0.1745   0.1723     C
C       0.8038   0.3255   0.0777     C
O      0.80852     0.75    0.125     O
H       0.8177   0.1113   0.7392     H
H       0.8177   0.3887   0.5108     H
C       0.8244   0.1191   0.8759     C
C       0.8244   0.3809   0.3741     C
C       0.8255   0.6962   0.4223     C
C       0.8255   0.8038   0.8277     C
C       0.8393  0.70867   0.2275     C
C       0.8393  0.79133   0.0225     C
H       0.8446   0.6447   0.6573     H
H       0.8446   0.8553   0.5927     H
C       0.8468   0.1457   0.2736     C
C       0.8468   0.3543   0.9764     C
C       0.8543   0.6532   0.5236     C
C       0.8543   0.8468   0.7264     C
H       0.8553   0.1554   0.4073     H
H       0.8553   0.3446   0.8427     H
C      0.86611  0.09011   0.9781     C
C      0.86611  0.40989   0.2719     C
C      0.87746  0.10212   0.1776     C
C      0.87746  0.39788   0.0724     C
C       0.8809   0.6756   0.1259     C
C       0.8809   0.8244   0.1241     C
H       0.8871   0.0619   0.9116     H
H       0.8871   0.4381   0.3384     H
H       0.8887   0.6823   0.9892     H
H       0.8887   0.8177   0.2608     H
C      0.89788  0.62254   0.4276     C
C      0.89788  0.87746   0.8224     C
C      0.90989  0.63389   0.2281     C
C      0.90989  0.86611   0.0219     C
C       0.9219  0.07083   0.2972     C
C       0.9219  0.42917   0.9528     C
O       0.9243  0.07442   0.4823     O
O       0.9243  0.42558   0.7677     O
O      0.92558   0.5757   0.7323     O
O      0.92558   0.9243   0.5177     O
C      0.92917   0.5781   0.5472     C
C      0.92917   0.9219   0.7028     C
H       0.9381   0.6129   0.1616     H
H       0.9381   0.8871   0.0884     H
O      0.95566  0.03725   0.2045     O
O      0.95566  0.46275   0.0455     O
O      0.96275  0.54434   0.4545     O
O      0.96275  0.95566   0.7955     O
