data_I
_chemical_name_common  '/home/zhangsd/repos/MofS-CGCNN/ML/data/TSD/clean_cifs/QUSRON_clean'
_cell_length_a 12.62400
_cell_length_b 15.89100
_cell_length_c 16.58500
_cell_angle_alpha 90.00000
_cell_angle_beta  105.21700
_cell_angle_gamma 90.00000
_space_group_name_H-M_alt      'P 1'


loop_
_space_group_symop_operation_xyz
  'x, y, z' 

loop_
_atom_site_label
_atom_site_fract_x
_atom_site_fract_y
_atom_site_fract_z
_atom_site_type_symbol
C       0.0129   0.1558   0.3943     C
C       0.0129   0.3442   0.8943     C
H        0.025   0.1138   0.4382     H
H        0.025   0.3862   0.9382     H
C       0.0282   0.1142   0.3145     C
C       0.0282   0.3858   0.8145     C
H       0.0362   0.6924   0.6218     H
H       0.0362   0.8076   0.1218     H
C       0.0423   0.1893   0.9034     C
C       0.0423   0.3107   0.4034     C
O       0.0478   0.5714   0.2257     O
O       0.0478   0.9286   0.7257     O
H       0.0532   0.1584   0.9554     H
H       0.0532   0.3416   0.4554     H
O        0.054    0.068   0.8222     O
O        0.054    0.432   0.3222     O
H       0.0625   0.6748   0.1161     H
H       0.0625   0.8252   0.6161     H
N       0.0837   0.2252   0.4231     N
N       0.0837   0.2748   0.9231     N
C       0.0944   0.1392    0.845     C
C       0.0944   0.3608    0.345     C
O       0.1131   0.1286   0.2925     O
O       0.1131   0.3714   0.7925     O
O       0.1757    0.163     0.82     O
O       0.1757    0.337     0.32     O
C       0.1839   0.2156   0.4768     C
C       0.1839   0.2844   0.9768     C
U      0.18895  0.02798  0.74602     U
U      0.18895  0.47202  0.24602     U
N       0.2162    0.136    0.503     N
N       0.2162    0.364    0.003     N
H       0.2438   0.5083   0.0026     H
H       0.2438   0.9917   0.5026     H
N       0.2456   0.2149   0.9992     N
N       0.2456   0.2851   0.4992     N
O       0.2555   0.5709   0.1693     O
O       0.2555   0.9291   0.6693     O
U      0.26393   0.1075  0.23791     U
U      0.26393   0.3925  0.73791     U
O       0.2708   0.6644   0.0731     O
O       0.2708   0.8356   0.5731     O
C       0.2755   0.5913   0.1016     C
C       0.2755   0.9087   0.6016     C
C       0.3076   0.5219   0.0478     C
C       0.3076   0.9781   0.5478     C
C       0.3125   0.1329   0.5602     C
C       0.3125   0.3671   0.0602     C
O       0.3199   0.0253   0.1377     O
O       0.3199   0.4747   0.6377     O
H        0.332   0.0912   0.9783     H
H        0.332   0.4088   0.4783     H
C       0.3415   0.2287   0.0534     C
C       0.3415   0.2713   0.5534     C
N        0.349   0.0552   0.5922     N
N        0.349   0.4448   0.0922     N
U      0.34927  0.69832  0.60788     U
U      0.34927  0.80168  0.10788     U
O       0.3567   0.0968   0.7575     O
O       0.3567   0.4032   0.2575     O
C       0.3583   0.0112   0.0751     C
C       0.3583   0.4888   0.5751     C
H       0.3633   0.5441    0.023     H
H       0.3633   0.9559    0.523     H
O       0.3663   0.5636   0.5475     O
O       0.3663   0.9364   0.0475     O
N       0.3795    0.198   0.5898     N
N       0.3795    0.302   0.0898     N
C       0.3905   0.0815   0.0286     C
C       0.3905   0.4185   0.5286     C
O       0.3956   0.7222   0.2334     O
O       0.3956   0.7778   0.7334     O
N       0.4134   0.1604   0.0753     N
N       0.4134   0.3396   0.5753     N
H       0.4338   0.6269   0.3744     H
H       0.4338   0.8731   0.8744     H
C       0.4464   0.0942   0.7385     C
C       0.4464   0.4058   0.2385     C
H       0.4492   0.7242    0.387     H
H       0.4492   0.7758    0.887     H
O       0.4493   0.1515    0.251     O
O       0.4493   0.3485    0.751     O
C       0.4523   0.0513   0.6569     C
C       0.4523   0.4487   0.1569     C
H       0.4554   0.0651   0.0115     H
H       0.4554   0.4349   0.5115     H
O       0.4643   0.6209   0.7172     O
O       0.4643   0.8791   0.2172     O
H       0.4727   0.5072   0.1683     H
H       0.4727   0.9928   0.6683     H
C       0.4784   0.6839   0.2777     C
C       0.4784   0.8161   0.7777     C
C       0.4805    0.674   0.3693     C
C       0.4805    0.826   0.8693     C
H       0.4908   0.5781   0.8636     H
H       0.4908   0.9219   0.3636     H
H       0.5092   0.0781   0.6364     H
H       0.5092   0.4219   0.1364     H
C       0.5195    0.174   0.1307     C
C       0.5195    0.326   0.6307     C
C       0.5216   0.1839   0.2223     C
C       0.5216   0.3161   0.7223     C
H       0.5273   0.0072   0.3317     H
H       0.5273   0.4928   0.8317     H
O       0.5357   0.1209   0.7828     O
O       0.5357   0.3791   0.2828     O
H       0.5446   0.5651   0.4885     H
H       0.5446   0.9349   0.9885     H
C       0.5477   0.5513   0.8431     C
C       0.5477   0.9487   0.3431     C
O       0.5507   0.6515    0.249     O
O       0.5507   0.8485    0.749     O
H       0.5508   0.2242    0.113     H
H       0.5508   0.2758    0.613     H
C       0.5536   0.5942   0.7615     C
C       0.5536   0.9058   0.2615     C
H       0.5662   0.1269   0.1256     H
H       0.5662   0.3731   0.6256     H
N       0.5866   0.6604   0.4247     N
N       0.5866   0.8396   0.9247     N
O       0.6044   0.2222   0.2666     O
O       0.6044   0.2778   0.7666     O
C       0.6095   0.5815   0.4714     C
C       0.6095   0.9185   0.9714     C
N       0.6205    0.698   0.9102     N
N       0.6205    0.802   0.4102     N
O       0.6337   0.0636   0.9525     O
O       0.6337   0.4364   0.4525     O
H       0.6367   0.0441    0.477     H
H       0.6367   0.4559    0.977     H
C       0.6417   0.5112   0.4249     C
C       0.6417   0.9888   0.9249     C
O       0.6433   0.5968   0.7425     O
O       0.6433   0.9032   0.2425     O
U      0.65073  0.19832  0.89212     U
U      0.65073  0.30168  0.39212     U
N        0.651   0.5552   0.9078     N
N        0.651   0.9448   0.4078     N
C       0.6585   0.7287   0.4466     C
C       0.6585   0.7713   0.9466     C
H        0.668   0.5912   0.5217     H
H        0.668   0.9088   0.0217     H
O       0.6801   0.5253   0.3623     O
O       0.6801   0.9747   0.8623     O
C       0.6875   0.6329   0.9398     C
C       0.6875   0.8671   0.4398     C
C       0.6924   0.0219   0.4522     C
C       0.6924   0.4781   0.9522     C
C       0.7245   0.0913   0.3984     C
C       0.7245   0.4087   0.8984     C
O       0.7292   0.1644   0.4269     O
O       0.7292   0.3356   0.9269     O
U      0.73607   0.6075  0.26209     U
U      0.73607   0.8925  0.76209     U
O       0.7445   0.0709   0.3307     O
O       0.7445   0.4291   0.8307     O
N       0.7544   0.7149   0.5008     N
N       0.7544   0.7851   0.0008     N
H       0.7562   0.0083   0.4974     H
H       0.7562   0.4917   0.9974     H
N       0.7838    0.636    0.997     N
N       0.7838    0.864    0.497     N
U      0.81105  0.52798  0.75398     U
U      0.81105  0.97202  0.25398     U
C       0.8161   0.7156   0.0232     C
C       0.8161   0.7844   0.5232     C
O       0.8243    0.663     0.68     O
O       0.8243    0.837     0.18     O
O       0.8869   0.6286   0.2075     O
O       0.8869   0.8714   0.7075     O
C       0.9056   0.6392    0.655     C
C       0.9056   0.8608    0.155     C
N       0.9163   0.7252   0.0769     N
N       0.9163   0.7748   0.5769     N
H       0.9375   0.1748   0.3839     H
H       0.9375   0.3252   0.8839     H
O        0.946    0.568   0.6778     O
O        0.946    0.932   0.1778     O
H       0.9468   0.6584   0.5446     H
H       0.9468   0.8416   0.0446     H
O       0.9522   0.0714   0.2743     O
O       0.9522   0.4286   0.7743     O
C       0.9577   0.6893   0.5966     C
C       0.9577   0.8107   0.0966     C
H       0.9638   0.1924   0.8782     H
H       0.9638   0.3076   0.3782     H
C       0.9718   0.6142   0.1855     C
C       0.9718   0.8858   0.6855     C
H        0.975   0.6138   0.0618     H
H        0.975   0.8862   0.5618     H
C       0.9871   0.6558   0.1057     C
C       0.9871   0.8442   0.6057     C
