data_I
_chemical_name_common  '/home/zhangsd/repos/MofS-CGCNN/ML/data/TSD/clean_cifs/QUSSII_clean'
_cell_length_a 11.49700
_cell_length_b 33.54200
_cell_length_c 12.10600
_cell_angle_alpha 90.00000
_cell_angle_beta  116.84000
_cell_angle_gamma 90.00000
_space_group_name_H-M_alt      'P 1'


loop_
_space_group_symop_operation_xyz
  'x, y, z' 

loop_
_atom_site_label
_atom_site_fract_x
_atom_site_fract_y
_atom_site_fract_z
_atom_site_type_symbol
C       0.0027   0.5218   0.4042     C
C       0.0027   0.9782   0.9042     C
H       0.0044   0.5362   0.3393     H
H       0.0044   0.9638   0.8393     H
C       0.0092   0.6165   0.0052     C
C       0.0092   0.8835   0.5052     C
H       0.0102   0.2465   0.1054     H
H       0.0102   0.2535   0.6054     H
H       0.0114    0.107   0.7661     H
H       0.0114    0.393   0.2661     H
H       0.0163   0.6621   0.1847     H
H       0.0163   0.8379   0.6847     H
C       0.0268   0.6126   0.8183     C
C       0.0268   0.8874   0.3183     C
C       0.0355  0.22426   0.9635     C
C       0.0355  0.27574   0.4635     C
C       0.0475   0.1427   0.3323     C
C       0.0475   0.3573   0.8323     C
C       0.0481   0.1086   0.6195     C
C       0.0481   0.3914   0.1195     C
C       0.0566     0.25     0.06     C
C       0.0566     0.25     0.56     C
C       0.0601   0.5147   0.6195     C
C       0.0601   0.9853   0.1195     C
C       0.0602  0.69094   0.5682     C
C       0.0602  0.80906   0.0682     C
C        0.063   0.5371    0.523     C
C        0.063   0.9629    0.023     C
C         0.07   0.1148   0.4225     C
C         0.07   0.3852   0.9225     C
O       0.0868  0.67907   0.4843     O
O       0.0868  0.82093   0.9843     O
H       0.0875    0.214   0.8258     H
H       0.0875    0.286   0.3258     H
H       0.1007   0.5244   0.7001     H
H       0.1007   0.9756   0.2001     H
H       0.1029   0.1616   0.2073     H
H       0.1029   0.3384   0.7073     H
C       0.1037   0.2303   0.8935     C
C       0.1037   0.2697   0.3935     C
O        0.104  0.67733   0.6749     O
O        0.104  0.82267   0.1749     O
C       0.1183   0.1422   0.2673     C
C       0.1183   0.3578   0.7673     C
H       0.1235   0.1209   0.0536     H
H       0.1235   0.3791   0.5536     H
C       0.1345  0.57688   0.5515     C
C       0.1345  0.92312   0.0515     C
H       0.1349   0.1008    0.661     H
H       0.1349   0.3992    0.161     H
C       0.1364   0.6276   0.0636     C
C       0.1364   0.8724   0.5636     C
C       0.1457   0.2192   0.5903     C
C       0.1457   0.2808   0.0903     C
O       0.1481  0.59381   0.4617     O
O       0.1481  0.90619   0.9617     O
N       0.1511  0.62398   0.8737     N
N       0.1511  0.87602   0.3737     N
H       0.1585   0.2019   0.6547     H
H       0.1585   0.2981   0.1547     H
C       0.1666   0.0863   0.4473     C
C       0.1666   0.4137   0.9473     C
O       0.1737  0.58962    0.658     O
O       0.1737  0.91038    0.158     O
H       0.1771   0.6327   0.1482     H
H       0.1771   0.8673   0.6482     H
H       0.1863   0.0678   0.5104     H
H       0.1863   0.4322   0.0104     H
C       0.1945   0.2397   0.4255     C
C       0.1945   0.2603   0.9255     C
C       0.2043   0.6314    0.994     C
C       0.2043   0.8686    0.494     C
N       0.2099  0.11419   0.2881     N
N       0.2099  0.38581   0.7881     N
C       0.2139   0.1189   0.0912     C
C       0.2139   0.3811   0.5912     C
C       0.2162   0.2145   0.5228     C
C       0.2162   0.2855   0.0228     C
C       0.2325   0.0861    0.376     C
C       0.2325   0.4139    0.876     C
H        0.239    0.124   0.9362     H
H        0.239    0.376   0.4362     H
Zn     0.24131  0.64582  0.48843    Zn
Zn     0.24131  0.85418  0.98843    Zn
H       0.2419   0.2364   0.3809     H
H       0.2419   0.2636   0.8809     H
Zn     0.25416  0.63947  0.76989    Zn
Zn     0.25416  0.86053  0.26989    Zn
C       0.2832   0.1203   0.0214     C
C       0.2832   0.3797   0.5214     C
C       0.2836   0.1146   0.2165     C
C       0.2836   0.3854   0.7165     C
H        0.291   0.6395   0.0337     H
H        0.291   0.8605   0.5337     H
H       0.2938   0.0663   0.3887     H
H       0.2938   0.4337   0.8887     H
C       0.3184   0.1823   0.5591     C
C       0.3184   0.3177   0.0591     C
O       0.3304  0.16151   0.6509     O
O       0.3304  0.33849   0.1509     O
H        0.351   0.6801   0.6628     H
H        0.351   0.8199   0.1628     H
O       0.3548  0.65645   0.6667     O
O       0.3548  0.84355   0.1667     O
H       0.3581   0.5479   0.0079     H
H       0.3581   0.9521   0.5079     H
O       0.3807  0.17762   0.4984     O
O       0.3807  0.32238   0.9984     O
H       0.3913   0.0104   0.6186     H
H       0.3913   0.4896   0.1186     H
O       0.3932  0.61776   0.4514     O
O       0.3932  0.88224   0.9514     O
O       0.4063  0.60164   0.8897     O
O       0.4063  0.89836   0.3897     O
O       0.4133   0.1225   0.8856     O
O       0.4133   0.3775   0.3856     O
C       0.4149  0.52875   0.0049     C
C       0.4149  0.97125   0.5049     C
C       0.4156   0.1163   0.0783     C
C       0.4156   0.3837   0.5783     C
C       0.4168   0.1104   0.2777     C
C       0.4168   0.3896   0.7777     C
H       0.4267   0.6082   0.2578     H
H       0.4267   0.8918   0.7578     H
C       0.4348  0.00619   0.5709     C
C       0.4348  0.49381   0.0709     C
H       0.4607   0.1073   0.3631     H
H       0.4607   0.3927   0.8631     H
C        0.465  0.57371   0.8668     C
C        0.465  0.92629   0.3668     C
Zn     0.47635  0.13019  0.76194    Zn
Zn     0.47635  0.36981  0.26194    Zn
C       0.4808  0.53532   0.9331     C
C       0.4808  0.96468   0.4331     C
C       0.4832   0.1112    0.205     C
C       0.4832   0.3888    0.705     C
O       0.4833  0.07616   0.7055     O
O       0.4833  0.42384   0.2055     O
C       0.4861   0.1195   0.9977     C
C       0.4861   0.3805   0.4977     C
C       0.5139   0.6195   0.5023     C
C       0.5139   0.8805   0.0023     C
O       0.5167  0.57616   0.7945     O
O       0.5167  0.92384   0.2945     O
C       0.5168   0.6112    0.295     C
C       0.5168   0.8888    0.795     C
C       0.5192  0.03532   0.5669     C
C       0.5192  0.46468   0.0669     C
Zn     0.52365  0.63019  0.73806    Zn
Zn     0.52365  0.86981  0.23806    Zn
C        0.535  0.07371   0.6332     C
C        0.535  0.42629   0.1332     C
H       0.5393   0.6073   0.1369     H
H       0.5393   0.8927   0.6369     H
C       0.5652  0.50619   0.9291     C
C       0.5652  0.99381   0.4291     C
H       0.5733   0.1082   0.2422     H
H       0.5733   0.3918   0.7422     H
C       0.5832   0.6104   0.2223     C
C       0.5832   0.8896   0.7223     C
C       0.5844   0.6163   0.4217     C
C       0.5844   0.8837   0.9217     C
C       0.5851  0.02875   0.4951     C
C       0.5851  0.47125   0.9951     C
O       0.5867   0.6225   0.6144     O
O       0.5867   0.8775   0.1144     O
O       0.5937  0.10164   0.6103     O
O       0.5937  0.39836   0.1103     O
O       0.6068  0.11776   0.0486     O
O       0.6068  0.38224   0.5486     O
H       0.6087   0.5104   0.8814     H
H       0.6087   0.9896   0.3814     H
O       0.6193  0.67762   0.0016     O
O       0.6193  0.82238   0.5016     O
H       0.6419   0.0479   0.4921     H
H       0.6419   0.4521   0.9921     H
O       0.6452  0.15645   0.8333     O
O       0.6452  0.34355   0.3333     O
H        0.649   0.1801   0.8372     H
H        0.649   0.3199   0.3372     H
O       0.6696  0.66151   0.8491     O
O       0.6696  0.83849   0.3491     O
C       0.6816   0.6823   0.9409     C
C       0.6816   0.8177   0.4409     C
H       0.7062   0.5663   0.1113     H
H       0.7062   0.9337   0.6113     H
H        0.709   0.1395   0.4663     H
H        0.709   0.3605   0.9663     H
C       0.7164   0.6146   0.2835     C
C       0.7164   0.8854   0.7835     C
C       0.7168   0.6203   0.4786     C
C       0.7168   0.8797   0.9786     C
Zn     0.74584  0.13947  0.73011    Zn
Zn     0.74584  0.36053  0.23011    Zn
H       0.7581   0.7364   0.1191     H
H       0.7581   0.7636   0.6191     H
Zn     0.75869  0.14582  0.01157    Zn
Zn     0.75869  0.35418  0.51157    Zn
H        0.761    0.624   0.5638     H
H        0.761    0.876   0.0638     H
C       0.7675   0.5861    0.124     C
C       0.7675   0.9139    0.624     C
C       0.7838   0.7145   0.9772     C
C       0.7838   0.7855   0.4772     C
C       0.7861   0.6189   0.4088     C
C       0.7861   0.8811   0.9088     C
N       0.7901  0.61419   0.2119     N
N       0.7901  0.88581   0.7119     N
C       0.7957   0.1314    0.506     C
C       0.7957   0.3686    0.006     C
C       0.8055   0.7397   0.0745     C
C       0.8055   0.7603   0.5745     C
H       0.8137   0.5678   0.9896     H
H       0.8137   0.9322   0.4896     H
H       0.8229   0.1327   0.3518     H
H       0.8229   0.3673   0.8518     H
O       0.8263  0.08962    0.842     O
O       0.8263  0.41038    0.342     O
C       0.8334   0.5863   0.0527     C
C       0.8334   0.9137   0.5527     C
H       0.8415   0.7019   0.8453     H
H       0.8415   0.7981   0.3453     H
N       0.8489  0.12398   0.6263     N
N       0.8489  0.37602   0.1263     N
O       0.8519  0.09381   0.0383     O
O       0.8519  0.40619   0.5383     O
C       0.8543   0.7192   0.9097     C
C       0.8543   0.7808   0.4097     C
C       0.8636   0.1276   0.4364     C
C       0.8636   0.3724   0.9364     C
H       0.8651   0.6008    0.839     H
H       0.8651   0.8992    0.339     H
C       0.8655  0.07688   0.9485     C
C       0.8655  0.42312   0.4485     C
H       0.8765   0.6209   0.4464     H
H       0.8765   0.8791   0.9464     H
C       0.8817   0.6422   0.2327     C
C       0.8817   0.8578   0.7327     C
O        0.896  0.17733   0.8251     O
O        0.896  0.32267   0.3251     O
C       0.8963   0.7303   0.6065     C
C       0.8963   0.7697   0.1065     C
H       0.8971   0.6616   0.2927     H
H       0.8971   0.8384   0.7927     H
H       0.8993   0.0244   0.7999     H
H       0.8993   0.4756   0.2999     H
H       0.9125    0.714   0.6742     H
H       0.9125    0.786   0.1742     H
O       0.9132  0.17907   0.0157     O
O       0.9132  0.32093   0.5157     O
C         0.93   0.6148   0.0775     C
C         0.93   0.8852   0.5775     C
C        0.937   0.0371    0.977     C
C        0.937   0.4629    0.477     C
C       0.9398  0.19094   0.9318     C
C       0.9398  0.30906   0.4318     C
C       0.9399   0.0147   0.8805     C
C       0.9399   0.4853   0.3805     C
C       0.9434     0.75     0.44     C
C       0.9434     0.75     0.94     C
C       0.9519   0.6086   0.8805     C
C       0.9519   0.8914   0.3805     C
C       0.9525   0.6427   0.1677     C
C       0.9525   0.8573   0.6677     C
C       0.9645  0.72426   0.5365     C
C       0.9645  0.77574   0.0365     C
C       0.9732   0.1126   0.6817     C
C       0.9732   0.3874   0.1817     C
H       0.9837   0.1621   0.3153     H
H       0.9837   0.3379   0.8153     H
H       0.9886    0.607   0.7339     H
H       0.9886    0.893   0.2339     H
H       0.9898   0.7465   0.3946     H
H       0.9898   0.7535   0.8946     H
C       0.9908   0.1165   0.4948     C
C       0.9908   0.3835   0.9948     C
H       0.9956   0.0362   0.1607     H
H       0.9956   0.4638   0.6607     H
C       0.9973   0.0218   0.0958     C
C       0.9973   0.4782   0.5958     C
