data_I
_chemical_name_common  '/home/zhangsd/repos/MofS-CGCNN/ML/data/TSD/clean_cifs/QUZVEO_clean'
_cell_length_a  8.63260
_cell_length_b 28.12060
_cell_length_c 15.34620
_cell_angle_alpha 90.00000
_cell_angle_beta  90.00000
_cell_angle_gamma 90.00000
_space_group_name_H-M_alt      'P 1'


loop_
_space_group_symop_operation_xyz
  'x, y, z' 

loop_
_atom_site_label
_atom_site_fract_x
_atom_site_fract_y
_atom_site_fract_z
_atom_site_type_symbol
C       0.0116   0.5757   0.5109     C
C       0.0116   0.9243   0.5109     C
C       0.0281   0.5499   0.5876     C
C       0.0281   0.9501   0.5876     C
O       0.0441   0.5227   0.2828     O
O       0.0441   0.9773   0.2828     O
O        0.049   0.6632   0.2105     O
O        0.049   0.8368   0.2105     O
Dy     0.05239  0.08672  0.79795    Dy
Dy     0.05239  0.41328  0.79795    Dy
H       0.0852   0.5958   0.4866     H
H       0.0852   0.9042   0.4866     H
C       0.1013   0.0255   0.4011     C
C       0.1013   0.4745   0.4011     C
H       0.1139   0.5499   0.6242     H
H       0.1139   0.9501   0.6242     H
O       0.1264    0.103   0.6551     O
O       0.1264    0.397   0.6551     O
C       0.1308   0.0662   0.5222     C
C       0.1308   0.4338   0.5222     C
O       0.1348     0.75   0.2625     O
C       0.1472   0.5105   0.3353     C
C       0.1472   0.9895   0.3353     C
C       0.1488   0.6646   0.2701     C
C       0.1488   0.8354   0.2701     C
H       0.1558   0.2048    0.906     H
H       0.1558   0.2952    0.906     H
O       0.1616   0.5626   0.1195     O
O       0.1616   0.9374   0.1195     O
C       0.1946   0.7112   0.3038     C
C       0.1946   0.7888   0.3038     C
C       0.2036   0.0782   0.6053     C
C       0.2036   0.4218   0.6053     C
O       0.2051  0.03408   0.4674     O
O       0.2051  0.46592   0.4674     O
O       0.2067  0.62836   0.3045     O
O       0.2067  0.87164   0.3045     O
C       0.2106   0.2246   0.8685     C
C       0.2106   0.2754   0.8685     C
O       0.2154  0.02669   0.8381     O
O       0.2154  0.47331   0.8381     O
O       0.2846  0.52669   0.3381     O
O       0.2846  0.97331   0.3381     O
C       0.2894   0.7246   0.3685     C
C       0.2894   0.7754   0.3685     C
O       0.2933  0.12836   0.8045     O
O       0.2933  0.37164   0.8045     O
O       0.2949  0.53408   0.9674     O
O       0.2949  0.96592   0.9674     O
C       0.2964   0.5782   0.1053     C
C       0.2964   0.9218   0.1053     C
C       0.3054   0.2112   0.8038     C
C       0.3054   0.2888   0.8038     C
O       0.3384   0.0626   0.6195     O
O       0.3384   0.4374   0.6195     O
H       0.3442   0.7048    0.406     H
H       0.3442   0.7952    0.406     H
C       0.3512   0.1646   0.7701     C
C       0.3512   0.3354   0.7701     C
C       0.3528   0.0105   0.8353     C
C       0.3528   0.4895   0.8353     C
O       0.3652     0.25   0.7625     O
C       0.3692   0.5662   0.0222     C
C       0.3692   0.9338   0.0222     C
O       0.3736    0.603   0.1551     O
O       0.3736    0.897   0.1551     O
H       0.3861   0.0499   0.1242     H
H       0.3861   0.4501   0.1242     H
C       0.3987   0.5255   0.9011     C
C       0.3987   0.9745   0.9011     C
H       0.4148   0.0958   0.9866     H
H       0.4148   0.4042   0.9866     H
Dy     0.44761  0.58672  0.29795    Dy
Dy     0.44761  0.91328  0.29795    Dy
O        0.451   0.1632   0.7105     O
O        0.451   0.3368   0.7105     O
O       0.4559   0.0227   0.7828     O
O       0.4559   0.4773   0.7828     O
C       0.4719   0.0499   0.0876     C
C       0.4719   0.4501   0.0876     C
C       0.4884   0.0757   0.0109     C
C       0.4884   0.4243   0.0109     C
C       0.5116   0.5757   0.9891     C
C       0.5116   0.9243   0.9891     C
C       0.5281   0.5499   0.9124     C
C       0.5281   0.9501   0.9124     C
O       0.5441   0.5227   0.2172     O
O       0.5441   0.9773   0.2172     O
O        0.549   0.6632   0.2895     O
O        0.549   0.8368   0.2895     O
Dy     0.55239  0.08672  0.70205    Dy
Dy     0.55239  0.41328  0.70205    Dy
H       0.5852   0.5958   0.0134     H
H       0.5852   0.9042   0.0134     H
C       0.6013   0.0255   0.0989     C
C       0.6013   0.4745   0.0989     C
H       0.6139   0.5499   0.8758     H
H       0.6139   0.9501   0.8758     H
O       0.6264    0.103   0.8449     O
O       0.6264    0.397   0.8449     O
C       0.6308   0.0662   0.9778     C
C       0.6308   0.4338   0.9778     C
O       0.6348     0.75   0.2375     O
C       0.6472   0.5105   0.1647     C
C       0.6472   0.9895   0.1647     C
C       0.6488   0.6646   0.2299     C
C       0.6488   0.8354   0.2299     C
H       0.6558   0.2048    0.594     H
H       0.6558   0.2952    0.594     H
O       0.6616   0.5626   0.3805     O
O       0.6616   0.9374   0.3805     O
C       0.6946   0.7112   0.1962     C
C       0.6946   0.7888   0.1962     C
C       0.7036   0.0782   0.8947     C
C       0.7036   0.4218   0.8947     C
O       0.7051  0.03408   0.0326     O
O       0.7051  0.46592   0.0326     O
O       0.7067  0.62836   0.1955     O
O       0.7067  0.87164   0.1955     O
C       0.7106   0.2246   0.6315     C
C       0.7106   0.2754   0.6315     C
O       0.7154  0.02669   0.6619     O
O       0.7154  0.47331   0.6619     O
O       0.7846  0.52669   0.1619     O
O       0.7846  0.97331   0.1619     O
C       0.7894   0.7246   0.1315     C
C       0.7894   0.7754   0.1315     C
O       0.7933  0.12836   0.6955     O
O       0.7933  0.37164   0.6955     O
O       0.7949  0.53408   0.5326     O
O       0.7949  0.96592   0.5326     O
C       0.7964   0.5782   0.3947     C
C       0.7964   0.9218   0.3947     C
C       0.8054   0.2112   0.6962     C
C       0.8054   0.2888   0.6962     C
O       0.8384   0.0626   0.8805     O
O       0.8384   0.4374   0.8805     O
H       0.8442   0.7048    0.094     H
H       0.8442   0.7952    0.094     H
C       0.8512   0.1646   0.7299     C
C       0.8512   0.3354   0.7299     C
C       0.8528   0.0105   0.6647     C
C       0.8528   0.4895   0.6647     C
O       0.8652     0.25   0.7375     O
C       0.8692   0.5662   0.4778     C
C       0.8692   0.9338   0.4778     C
O       0.8736    0.603   0.3449     O
O       0.8736    0.897   0.3449     O
H       0.8861   0.0499   0.3758     H
H       0.8861   0.4501   0.3758     H
C       0.8987   0.5255   0.5989     C
C       0.8987   0.9745   0.5989     C
H       0.9148   0.0958   0.5134     H
H       0.9148   0.4042   0.5134     H
Dy     0.94761  0.58672  0.20205    Dy
Dy     0.94761  0.91328  0.20205    Dy
O        0.951   0.1632   0.7895     O
O        0.951   0.3368   0.7895     O
O       0.9559   0.0227   0.7172     O
O       0.9559   0.4773   0.7172     O
C       0.9719   0.0499   0.4124     C
C       0.9719   0.4501   0.4124     C
C       0.9884   0.0757   0.4891     C
C       0.9884   0.4243   0.4891     C
