data_I
_chemical_name_common  '/home/zhangsd/repos/MofS-CGCNN/ML/data/TSD/clean_cifs/RACZEC_clean'
_cell_length_a  6.40180
_cell_length_b  8.99090
_cell_length_c 26.27100
_cell_angle_alpha 90.00000
_cell_angle_beta  90.00000
_cell_angle_gamma 90.00000
_space_group_name_H-M_alt      'P 1'


loop_
_space_group_symop_operation_xyz
  'x, y, z' 

loop_
_atom_site_label
_atom_site_fract_x
_atom_site_fract_y
_atom_site_fract_z
_atom_site_type_symbol
Co         0.0      0.0  0.28523    Co
N          0.0      0.0    0.365     N
C          0.0      0.0   0.4713     C
C          0.0      0.0   0.5287     C
N          0.0      0.0    0.635     N
Co         0.0      0.0  0.71477    Co
C       0.1428   0.0719   0.3913     C
C       0.1428   0.0719   0.6087     C
C       0.1481    0.075   0.4439     C
C       0.1481    0.075   0.5561     C
O       0.1638   0.1958  0.28692     O
O       0.1638   0.1958  0.71308     O
F       0.2272   0.7346  0.16077     F
F       0.2272   0.7346  0.83923     F
F        0.234   0.4412  0.15987     F
F        0.234   0.4412  0.84013     F
C       0.2395   0.6628   0.2059     C
C       0.2395   0.6628   0.7941     C
C       0.2437   0.5084  0.20599     C
C       0.2437   0.5084  0.79401     C
H       0.2456   0.1233   0.3735     H
H       0.2456   0.1233   0.6265     H
H       0.2479    0.128   0.0394     H
H       0.2479    0.128   0.9606     H
C         0.25   0.2583     0.25     C
C         0.25   0.2583     0.75     C
C         0.25   0.4269     0.25     C
C         0.25   0.4269     0.75     C
C         0.25    0.744     0.25     C
C         0.25    0.744     0.75     C
O         0.25   0.8949     0.25     O
O         0.25   0.8949     0.75     O
H       0.2521    0.128   0.4606     H
H       0.2521    0.128   0.5394     H
H       0.2544   0.1233   0.1265     H
H       0.2544   0.1233   0.8735     H
C       0.2563   0.5084  0.29401     C
C       0.2563   0.5084  0.70599     C
C       0.2605   0.6628   0.2941     C
C       0.2605   0.6628   0.7059     C
F        0.266   0.4412  0.34013     F
F        0.266   0.4412  0.65987     F
F       0.2728   0.7346  0.33923     F
F       0.2728   0.7346  0.66077     F
O       0.3362   0.1958  0.21308     O
O       0.3362   0.1958  0.78692     O
C       0.3519    0.075   0.0561     C
C       0.3519    0.075   0.9439     C
C       0.3572   0.0719   0.1087     C
C       0.3572   0.0719   0.8913     C
C          0.5      0.0   0.0287     C
N          0.5      0.0    0.135     N
Co         0.5      0.0  0.21477    Co
Co         0.5      0.0  0.78523    Co
N          0.5      0.0    0.865     N
C          0.5      0.0   0.9713     C
C       0.6428   0.9281   0.1087     C
C       0.6428   0.9281   0.8913     C
C       0.6481    0.925   0.0561     C
C       0.6481    0.925   0.9439     C
O       0.6638   0.8042  0.21308     O
O       0.6638   0.8042  0.78692     O
F       0.7272   0.2654  0.33923     F
F       0.7272   0.2654  0.66077     F
F        0.734   0.5588  0.34013     F
F        0.734   0.5588  0.65987     F
C       0.7395   0.3372   0.2941     C
C       0.7395   0.3372   0.7059     C
C       0.7437   0.4916  0.29401     C
C       0.7437   0.4916  0.70599     C
H       0.7456   0.8767   0.1265     H
H       0.7456   0.8767   0.8735     H
H       0.7479    0.872   0.4606     H
H       0.7479    0.872   0.5394     H
O         0.75   0.1051     0.25     O
O         0.75   0.1051     0.75     O
C         0.75    0.256     0.25     C
C         0.75    0.256     0.75     C
C         0.75   0.5731     0.25     C
C         0.75   0.5731     0.75     C
C         0.75   0.7417     0.25     C
C         0.75   0.7417     0.75     C
H       0.7521    0.872   0.0394     H
H       0.7521    0.872   0.9606     H
H       0.7544   0.8767   0.3735     H
H       0.7544   0.8767   0.6265     H
C       0.7563   0.4916  0.20599     C
C       0.7563   0.4916  0.79401     C
C       0.7605   0.3372   0.2059     C
C       0.7605   0.3372   0.7941     C
F        0.766   0.5588  0.15987     F
F        0.766   0.5588  0.84013     F
F       0.7728   0.2654  0.16077     F
F       0.7728   0.2654  0.83923     F
O       0.8362   0.8042  0.28692     O
O       0.8362   0.8042  0.71308     O
C       0.8519    0.925   0.4439     C
C       0.8519    0.925   0.5561     C
C       0.8572   0.9281   0.3913     C
C       0.8572   0.9281   0.6087     C
