data_I
_chemical_name_common  '/home/zhangsd/repos/MofS-CGCNN/ML/data/TSD/clean_cifs/RAHNOF_clean'
_cell_length_a 30.20050
_cell_length_b 30.20050
_cell_length_c 30.20050
_cell_angle_alpha 60.00000
_cell_angle_beta  60.00000
_cell_angle_gamma 60.00000
_space_group_name_H-M_alt      'P 1'


loop_
_space_group_symop_operation_xyz
  'x, y, z' 

loop_
_atom_site_label
_atom_site_fract_x
_atom_site_fract_y
_atom_site_fract_z
_atom_site_type_symbol
Cu         0.0      0.0  0.26254    Cu
Cu         0.0      0.0  0.35008    Cu
Cu         0.0  0.26254      0.0    Cu
Cu         0.0  0.26254  0.73746    Cu
Cu         0.0  0.64992      0.0    Cu
Cu         0.0  0.64992  0.35008    Cu
Cu         0.0  0.73746      0.0    Cu
Cu         0.0  0.73746  0.26254    Cu
Cu         0.0      1.0  0.64992    Cu
Cu         0.0      1.0  0.73746    Cu
O      0.01283  0.30097  0.76269     O
O      0.01283  0.30097  0.92351     O
O      0.01283  0.76269  0.30097     O
O      0.01283  0.76269  0.92351     O
O      0.01283  0.92351  0.30097     O
O      0.01283  0.92351  0.76269     O
O       0.0134  0.37512  0.68884     O
O       0.0134  0.37512  0.92264     O
O       0.0134  0.68884  0.37512     O
O       0.0134  0.68884  0.92264     O
O       0.0134  0.92264  0.37512     O
O       0.0134  0.92264  0.68884     O
H       0.0166   0.3142   0.8346     H
H       0.0166   0.8346   0.3142     H
H       0.0166   0.8346   0.8346     H
C      0.01705  0.34833  0.73571     C
C      0.01705  0.34833  0.89891     C
C      0.01705  0.73571  0.34833     C
C      0.01705  0.73571  0.89891     C
C      0.01705  0.89891  0.34833     C
C      0.01705  0.89891  0.73571     C
C      0.02016  0.34924   0.8153     C
C      0.02016   0.8153  0.34924     C
C      0.02016   0.8153   0.8153     C
C      0.02258  0.37346   0.7624     C
C      0.02258  0.37346  0.84156     C
C      0.02258   0.7624  0.37346     C
C      0.02258   0.7624  0.84156     C
C      0.02258  0.84156  0.37346     C
C      0.02258  0.84156   0.7624     C
C      0.02955  0.42365  0.73345     C
C      0.02955  0.42365  0.81335     C
C      0.02955  0.73345  0.42365     C
C      0.02955  0.73345  0.81335     C
C      0.02955  0.81335  0.42365     C
C      0.02955  0.81335  0.73345     C
H       0.0303   0.4417   0.6969     H
H       0.0303   0.4417   0.8311     H
H       0.0303   0.6969   0.4417     H
H       0.0303   0.6969   0.8311     H
H       0.0303   0.8311   0.4417     H
H       0.0303   0.8311   0.6969     H
C       0.0351   0.4471   0.7589     C
C       0.0351   0.7589   0.4471     C
C       0.0351   0.7589   0.7589     C
C        0.044   0.4988   0.7286     C
C        0.044   0.7286   0.4988     C
C        0.044   0.7286   0.7286     C
C       0.0463   0.5975   0.6781     C
C       0.0463   0.6781   0.5975     C
C       0.0463   0.6781   0.6781     C
C       0.0481   0.5421   0.7049     C
C       0.0481   0.7049   0.5421     C
C       0.0481   0.7049   0.7049     C
C       0.0483   0.6237   0.6237     C
C       0.0483   0.6237   0.7043     C
C       0.0483   0.7043   0.6237     C
N        0.058   0.5962   0.5962     N
N        0.058   0.5962   0.7496     N
N        0.058   0.7496   0.5962     N
H       0.0609   0.5609   0.6125     H
H       0.0609   0.5609   0.7657     H
H       0.0609   0.6125   0.5609     H
H       0.0609   0.6125   0.7657     H
H       0.0609   0.7657   0.5609     H
H       0.0609   0.7657   0.6125     H
O      0.07649  0.23731  0.69903     O
O      0.07649  0.23731  0.98717     O
O      0.07649  0.69903  0.23731     O
O      0.07649  0.69903  0.98717     O
O      0.07649  0.98717  0.23731     O
O      0.07649  0.98717  0.69903     O
O      0.07736  0.31116  0.62488     O
O      0.07736  0.31116   0.9866     O
O      0.07736  0.62488  0.31116     O
O      0.07736  0.62488   0.9866     O
O      0.07736   0.9866  0.31116     O
O      0.07736   0.9866  0.62488     O
C      0.10109  0.26429  0.65167     C
C      0.10109  0.26429  0.98295     C
C      0.10109  0.65167  0.26429     C
C      0.10109  0.65167  0.98295     C
C      0.10109  0.98295  0.26429     C
C      0.10109  0.98295  0.65167     C
C      0.15844   0.2376  0.62654     C
C      0.15844   0.2376  0.97742     C
C      0.15844  0.62654   0.2376     C
C      0.15844  0.62654  0.97742     C
C      0.15844  0.97742   0.2376     C
C      0.15844  0.97742  0.62654     C
H       0.1654   0.1654   0.6858     H
H       0.1654   0.1654   0.9834     H
H       0.1654   0.6858   0.1654     H
H       0.1654   0.6858   0.9834     H
H       0.1654   0.9834   0.1654     H
H       0.1654   0.9834   0.6858     H
H       0.1689   0.3031   0.5583     H
H       0.1689   0.3031   0.9697     H
H       0.1689   0.5583   0.3031     H
H       0.1689   0.5583   0.9697     H
H       0.1689   0.9697   0.3031     H
H       0.1689   0.9697   0.5583     H
C       0.1847   0.1847  0.65076     C
C       0.1847   0.1847  0.97984     C
C       0.1847  0.65076   0.1847     C
C       0.1847  0.65076  0.97984     C
C       0.1847  0.97984   0.1847     C
C       0.1847  0.97984  0.65076     C
C      0.18665  0.26655  0.57635     C
C      0.18665  0.26655  0.97045     C
C      0.18665  0.57635  0.26655     C
C      0.18665  0.57635  0.97045     C
C      0.18665  0.97045  0.26655     C
C      0.18665  0.97045  0.57635     C
H       0.2343   0.3875   0.4391     H
H       0.2343   0.3875   0.9391     H
H       0.2343   0.4391   0.3875     H
H       0.2343   0.4391   0.9391     H
H       0.2343   0.9391   0.3875     H
H       0.2343   0.9391   0.4391     H
O      0.23731  0.07649  0.69903     O
O      0.23731  0.07649  0.98717     O
O      0.23731  0.69903  0.07649     O
O      0.23731  0.69903  0.98717     O
O      0.23731  0.98717  0.07649     O
O      0.23731  0.98717  0.69903     O
C       0.2376  0.15844  0.62654     C
C       0.2376  0.15844  0.97742     C
C       0.2376  0.62654  0.15844     C
C       0.2376  0.62654  0.97742     C
C       0.2376  0.97742  0.15844     C
C       0.2376  0.97742  0.62654     C
C       0.2411   0.2411   0.5529     C
C       0.2411   0.2411   0.9649     C
C       0.2411   0.5529   0.2411     C
C       0.2411   0.5529   0.9649     C
C       0.2411   0.9649   0.2411     C
C       0.2411   0.9649   0.5529     C
N       0.2504   0.4038   0.4038     N
N       0.2504   0.4038    0.942     N
N       0.2504    0.942   0.4038     N
Cu     0.26254      0.0      0.0    Cu
Cu     0.26254  0.73746      0.0    Cu
Cu     0.26254      1.0  0.73746    Cu
C      0.26429  0.10109  0.65167     C
C      0.26429  0.10109  0.98295     C
C      0.26429  0.65167  0.10109     C
C      0.26429  0.65167  0.98295     C
C      0.26429  0.98295  0.10109     C
C      0.26429  0.98295  0.65167     C
C      0.26655  0.18665  0.57635     C
C      0.26655  0.18665  0.97045     C
C      0.26655  0.57635  0.18665     C
C      0.26655  0.57635  0.97045     C
C      0.26655  0.97045  0.18665     C
C      0.26655  0.97045  0.57635     C
C       0.2714   0.2714   0.5012     C
C       0.2714   0.2714    0.956     C
C       0.2714   0.5012   0.2714     C
C       0.2714   0.5012    0.956     C
C       0.2714    0.956   0.2714     C
C       0.2714    0.956   0.5012     C
C       0.2951   0.2951   0.4579     C
C       0.2951   0.2951   0.9519     C
C       0.2951   0.4579   0.2951     C
C       0.2951   0.4579   0.9519     C
C       0.2951   0.9519   0.2951     C
C       0.2951   0.9519   0.4579     C
C       0.2957   0.3763   0.3763     C
C       0.2957   0.3763   0.9517     C
C       0.2957   0.9517   0.3763     C
O      0.30097  0.01283  0.76269     O
O      0.30097  0.01283  0.92351     O
O      0.30097  0.76269  0.01283     O
O      0.30097  0.76269  0.92351     O
O      0.30097  0.92351  0.01283     O
O      0.30097  0.92351  0.76269     O
H       0.3031   0.1689   0.5583     H
H       0.3031   0.1689   0.9697     H
H       0.3031   0.5583   0.1689     H
H       0.3031   0.5583   0.9697     H
H       0.3031   0.9697   0.1689     H
H       0.3031   0.9697   0.5583     H
O      0.31116  0.07736  0.62488     O
O      0.31116  0.07736   0.9866     O
O      0.31116  0.62488  0.07736     O
O      0.31116  0.62488   0.9866     O
O      0.31116   0.9866  0.07736     O
O      0.31116   0.9866  0.62488     O
H       0.3142   0.0166   0.8346     H
H       0.3142   0.8346   0.0166     H
H       0.3142   0.8346   0.8346     H
C       0.3219   0.3219   0.4025     C
C       0.3219   0.3219   0.9537     C
C       0.3219   0.4025   0.3219     C
C       0.3219   0.4025   0.9537     C
C       0.3219   0.9537   0.3219     C
C       0.3219   0.9537   0.4025     C
C      0.34833  0.01705  0.73571     C
C      0.34833  0.01705  0.89891     C
C      0.34833  0.73571  0.01705     C
C      0.34833  0.73571  0.89891     C
C      0.34833  0.89891  0.01705     C
C      0.34833  0.89891  0.73571     C
C      0.34924  0.02016   0.8153     C
C      0.34924   0.8153  0.02016     C
C      0.34924   0.8153   0.8153     C
Cu     0.35008      0.0      0.0    Cu
Cu     0.35008  0.64992      0.0    Cu
Cu     0.35008      1.0  0.64992    Cu
C      0.37346  0.02258   0.7624     C
C      0.37346  0.02258  0.84156     C
C      0.37346   0.7624  0.02258     C
C      0.37346   0.7624  0.84156     C
C      0.37346  0.84156  0.02258     C
C      0.37346  0.84156   0.7624     C
O      0.37512   0.0134  0.68884     O
O      0.37512   0.0134  0.92264     O
O      0.37512  0.68884   0.0134     O
O      0.37512  0.68884  0.92264     O
O      0.37512  0.92264   0.0134     O
O      0.37512  0.92264  0.68884     O
C       0.3763   0.2957   0.3763     C
C       0.3763   0.2957   0.9517     C
C       0.3763   0.3763   0.2957     C
C       0.3763   0.3763   0.9517     C
C       0.3763   0.9517   0.2957     C
C       0.3763   0.9517   0.3763     C
H       0.3875   0.2343   0.4391     H
H       0.3875   0.2343   0.9391     H
H       0.3875   0.4391   0.2343     H
H       0.3875   0.4391   0.9391     H
H       0.3875   0.9391   0.2343     H
H       0.3875   0.9391   0.4391     H
C       0.4025   0.3219   0.3219     C
C       0.4025   0.3219   0.9537     C
C       0.4025   0.9537   0.3219     C
N       0.4038   0.2504   0.4038     N
N       0.4038   0.2504    0.942     N
N       0.4038   0.4038   0.2504     N
N       0.4038   0.4038    0.942     N
N       0.4038    0.942   0.2504     N
N       0.4038    0.942   0.4038     N
C      0.42365  0.02955  0.73345     C
C      0.42365  0.02955  0.81335     C
C      0.42365  0.73345  0.02955     C
C      0.42365  0.73345  0.81335     C
C      0.42365  0.81335  0.02955     C
C      0.42365  0.81335  0.73345     C
H       0.4391   0.2343   0.3875     H
H       0.4391   0.2343   0.9391     H
H       0.4391   0.3875   0.2343     H
H       0.4391   0.3875   0.9391     H
H       0.4391   0.9391   0.2343     H
H       0.4391   0.9391   0.3875     H
H       0.4417   0.0303   0.6969     H
H       0.4417   0.0303   0.8311     H
H       0.4417   0.6969   0.0303     H
H       0.4417   0.6969   0.8311     H
H       0.4417   0.8311   0.0303     H
H       0.4417   0.8311   0.6969     H
C       0.4471   0.0351   0.7589     C
C       0.4471   0.7589   0.0351     C
C       0.4471   0.7589   0.7589     C
C       0.4579   0.2951   0.2951     C
C       0.4579   0.2951   0.9519     C
C       0.4579   0.9519   0.2951     C
C       0.4988    0.044   0.7286     C
C       0.4988   0.7286    0.044     C
C       0.4988   0.7286   0.7286     C
C       0.5012   0.2714   0.2714     C
C       0.5012   0.2714    0.956     C
C       0.5012    0.956   0.2714     C
C       0.5421   0.0481   0.7049     C
C       0.5421   0.7049   0.0481     C
C       0.5421   0.7049   0.7049     C
C       0.5529   0.2411   0.2411     C
C       0.5529   0.2411   0.9649     C
C       0.5529   0.9649   0.2411     C
H       0.5583   0.1689   0.3031     H
H       0.5583   0.1689   0.9697     H
H       0.5583   0.3031   0.1689     H
H       0.5583   0.3031   0.9697     H
H       0.5583   0.9697   0.1689     H
H       0.5583   0.9697   0.3031     H
H       0.5609   0.0609   0.6125     H
H       0.5609   0.0609   0.7657     H
H       0.5609   0.6125   0.0609     H
H       0.5609   0.6125   0.7657     H
H       0.5609   0.7657   0.0609     H
H       0.5609   0.7657   0.6125     H
C      0.57635  0.18665  0.26655     C
C      0.57635  0.18665  0.97045     C
C      0.57635  0.26655  0.18665     C
C      0.57635  0.26655  0.97045     C
C      0.57635  0.97045  0.18665     C
C      0.57635  0.97045  0.26655     C
N       0.5962    0.058   0.5962     N
N       0.5962    0.058   0.7496     N
N       0.5962   0.5962    0.058     N
N       0.5962   0.5962   0.7496     N
N       0.5962   0.7496    0.058     N
N       0.5962   0.7496   0.5962     N
C       0.5975   0.0463   0.6781     C
C       0.5975   0.6781   0.0463     C
C       0.5975   0.6781   0.6781     C
H       0.6125   0.0609   0.5609     H
H       0.6125   0.0609   0.7657     H
H       0.6125   0.5609   0.0609     H
H       0.6125   0.5609   0.7657     H
H       0.6125   0.7657   0.0609     H
H       0.6125   0.7657   0.5609     H
C       0.6237   0.0483   0.6237     C
C       0.6237   0.0483   0.7043     C
C       0.6237   0.6237   0.0483     C
C       0.6237   0.6237   0.7043     C
C       0.6237   0.7043   0.0483     C
C       0.6237   0.7043   0.6237     C
O      0.62488  0.07736  0.31116     O
O      0.62488  0.07736   0.9866     O
O      0.62488  0.31116  0.07736     O
O      0.62488  0.31116   0.9866     O
O      0.62488   0.9866  0.07736     O
O      0.62488   0.9866  0.31116     O
C      0.62654  0.15844   0.2376     C
C      0.62654  0.15844  0.97742     C
C      0.62654   0.2376  0.15844     C
C      0.62654   0.2376  0.97742     C
C      0.62654  0.97742  0.15844     C
C      0.62654  0.97742   0.2376     C
Cu     0.64992      0.0      0.0    Cu
Cu     0.64992  0.35008      0.0    Cu
Cu     0.64992      1.0  0.35008    Cu
C      0.65076   0.1847   0.1847     C
C      0.65076   0.1847  0.97984     C
C      0.65076  0.97984   0.1847     C
C      0.65167  0.10109  0.26429     C
C      0.65167  0.10109  0.98295     C
C      0.65167  0.26429  0.10109     C
C      0.65167  0.26429  0.98295     C
C      0.65167  0.98295  0.10109     C
C      0.65167  0.98295  0.26429     C
C       0.6781   0.0463   0.5975     C
C       0.6781   0.0463   0.6781     C
C       0.6781   0.5975   0.0463     C
C       0.6781   0.5975   0.6781     C
C       0.6781   0.6781   0.0463     C
C       0.6781   0.6781   0.5975     C
H       0.6858   0.1654   0.1654     H
H       0.6858   0.1654   0.9834     H
H       0.6858   0.9834   0.1654     H
O      0.68884   0.0134  0.37512     O
O      0.68884   0.0134  0.92264     O
O      0.68884  0.37512   0.0134     O
O      0.68884  0.37512  0.92264     O
O      0.68884  0.92264   0.0134     O
O      0.68884  0.92264  0.37512     O
H       0.6969   0.0303   0.4417     H
H       0.6969   0.0303   0.8311     H
H       0.6969   0.4417   0.0303     H
H       0.6969   0.4417   0.8311     H
H       0.6969   0.8311   0.0303     H
H       0.6969   0.8311   0.4417     H
O      0.69903  0.07649  0.23731     O
O      0.69903  0.07649  0.98717     O
O      0.69903  0.23731  0.07649     O
O      0.69903  0.23731  0.98717     O
O      0.69903  0.98717  0.07649     O
O      0.69903  0.98717  0.23731     O
C       0.7043   0.0483   0.6237     C
C       0.7043   0.6237   0.0483     C
C       0.7043   0.6237   0.6237     C
C       0.7049   0.0481   0.5421     C
C       0.7049   0.0481   0.7049     C
C       0.7049   0.5421   0.0481     C
C       0.7049   0.5421   0.7049     C
C       0.7049   0.7049   0.0481     C
C       0.7049   0.7049   0.5421     C
C       0.7286    0.044   0.4988     C
C       0.7286    0.044   0.7286     C
C       0.7286   0.4988    0.044     C
C       0.7286   0.4988   0.7286     C
C       0.7286   0.7286    0.044     C
C       0.7286   0.7286   0.4988     C
C      0.73345  0.02955  0.42365     C
C      0.73345  0.02955  0.81335     C
C      0.73345  0.42365  0.02955     C
C      0.73345  0.42365  0.81335     C
C      0.73345  0.81335  0.02955     C
C      0.73345  0.81335  0.42365     C
C      0.73571  0.01705  0.34833     C
C      0.73571  0.01705  0.89891     C
C      0.73571  0.34833  0.01705     C
C      0.73571  0.34833  0.89891     C
C      0.73571  0.89891  0.01705     C
C      0.73571  0.89891  0.34833     C
Cu     0.73746      0.0      0.0    Cu
Cu     0.73746      0.0  0.26254    Cu
Cu     0.73746  0.26254      0.0    Cu
N       0.7496    0.058   0.5962     N
N       0.7496   0.5962    0.058     N
N       0.7496   0.5962   0.5962     N
C       0.7589   0.0351   0.4471     C
C       0.7589   0.0351   0.7589     C
C       0.7589   0.4471   0.0351     C
C       0.7589   0.4471   0.7589     C
C       0.7589   0.7589   0.0351     C
C       0.7589   0.7589   0.4471     C
C       0.7624  0.02258  0.37346     C
C       0.7624  0.02258  0.84156     C
C       0.7624  0.37346  0.02258     C
C       0.7624  0.37346  0.84156     C
C       0.7624  0.84156  0.02258     C
C       0.7624  0.84156  0.37346     C
O      0.76269  0.01283  0.30097     O
O      0.76269  0.01283  0.92351     O
O      0.76269  0.30097  0.01283     O
O      0.76269  0.30097  0.92351     O
O      0.76269  0.92351  0.01283     O
O      0.76269  0.92351  0.30097     O
H       0.7657   0.0609   0.5609     H
H       0.7657   0.0609   0.6125     H
H       0.7657   0.5609   0.0609     H
H       0.7657   0.5609   0.6125     H
H       0.7657   0.6125   0.0609     H
H       0.7657   0.6125   0.5609     H
C      0.81335  0.02955  0.42365     C
C      0.81335  0.02955  0.73345     C
C      0.81335  0.42365  0.02955     C
C      0.81335  0.42365  0.73345     C
C      0.81335  0.73345  0.02955     C
C      0.81335  0.73345  0.42365     C
C       0.8153  0.02016  0.34924     C
C       0.8153  0.02016   0.8153     C
C       0.8153  0.34924  0.02016     C
C       0.8153  0.34924   0.8153     C
C       0.8153   0.8153  0.02016     C
C       0.8153   0.8153  0.34924     C
H       0.8311   0.0303   0.4417     H
H       0.8311   0.0303   0.6969     H
H       0.8311   0.4417   0.0303     H
H       0.8311   0.4417   0.6969     H
H       0.8311   0.6969   0.0303     H
H       0.8311   0.6969   0.4417     H
H       0.8346   0.0166   0.3142     H
H       0.8346   0.0166   0.8346     H
H       0.8346   0.3142   0.0166     H
H       0.8346   0.3142   0.8346     H
H       0.8346   0.8346   0.0166     H
H       0.8346   0.8346   0.3142     H
C      0.84156  0.02258  0.37346     C
C      0.84156  0.02258   0.7624     C
C      0.84156  0.37346  0.02258     C
C      0.84156  0.37346   0.7624     C
C      0.84156   0.7624  0.02258     C
C      0.84156   0.7624  0.37346     C
C      0.89891  0.01705  0.34833     C
C      0.89891  0.01705  0.73571     C
C      0.89891  0.34833  0.01705     C
C      0.89891  0.34833  0.73571     C
C      0.89891  0.73571  0.01705     C
C      0.89891  0.73571  0.34833     C
O      0.92264   0.0134  0.37512     O
O      0.92264   0.0134  0.68884     O
O      0.92264  0.37512   0.0134     O
O      0.92264  0.37512  0.68884     O
O      0.92264  0.68884   0.0134     O
O      0.92264  0.68884  0.37512     O
O      0.92351  0.01283  0.30097     O
O      0.92351  0.01283  0.76269     O
O      0.92351  0.30097  0.01283     O
O      0.92351  0.30097  0.76269     O
O      0.92351  0.76269  0.01283     O
O      0.92351  0.76269  0.30097     O
H       0.9391   0.2343   0.3875     H
H       0.9391   0.2343   0.4391     H
H       0.9391   0.3875   0.2343     H
H       0.9391   0.3875   0.4391     H
H       0.9391   0.4391   0.2343     H
H       0.9391   0.4391   0.3875     H
N        0.942   0.2504   0.4038     N
N        0.942   0.4038   0.2504     N
N        0.942   0.4038   0.4038     N
C       0.9517   0.2957   0.3763     C
C       0.9517   0.3763   0.2957     C
C       0.9517   0.3763   0.3763     C
C       0.9519   0.2951   0.2951     C
C       0.9519   0.2951   0.4579     C
C       0.9519   0.4579   0.2951     C
C       0.9537   0.3219   0.3219     C
C       0.9537   0.3219   0.4025     C
C       0.9537   0.4025   0.3219     C
C        0.956   0.2714   0.2714     C
C        0.956   0.2714   0.5012     C
C        0.956   0.5012   0.2714     C
C       0.9649   0.2411   0.2411     C
C       0.9649   0.2411   0.5529     C
C       0.9649   0.5529   0.2411     C
H       0.9697   0.1689   0.3031     H
H       0.9697   0.1689   0.5583     H
H       0.9697   0.3031   0.1689     H
H       0.9697   0.3031   0.5583     H
H       0.9697   0.5583   0.1689     H
H       0.9697   0.5583   0.3031     H
C      0.97045  0.18665  0.26655     C
C      0.97045  0.18665  0.57635     C
C      0.97045  0.26655  0.18665     C
C      0.97045  0.26655  0.57635     C
C      0.97045  0.57635  0.18665     C
C      0.97045  0.57635  0.26655     C
C      0.97742  0.15844   0.2376     C
C      0.97742  0.15844  0.62654     C
C      0.97742   0.2376  0.15844     C
C      0.97742   0.2376  0.62654     C
C      0.97742  0.62654  0.15844     C
C      0.97742  0.62654   0.2376     C
C      0.97984   0.1847   0.1847     C
C      0.97984   0.1847  0.65076     C
C      0.97984  0.65076   0.1847     C
C      0.98295  0.10109  0.26429     C
C      0.98295  0.10109  0.65167     C
C      0.98295  0.26429  0.10109     C
C      0.98295  0.26429  0.65167     C
C      0.98295  0.65167  0.10109     C
C      0.98295  0.65167  0.26429     C
H       0.9834   0.1654   0.1654     H
H       0.9834   0.1654   0.6858     H
H       0.9834   0.6858   0.1654     H
O       0.9866  0.07736  0.31116     O
O       0.9866  0.07736  0.62488     O
O       0.9866  0.31116  0.07736     O
O       0.9866  0.31116  0.62488     O
O       0.9866  0.62488  0.07736     O
O       0.9866  0.62488  0.31116     O
O      0.98717  0.07649  0.23731     O
O      0.98717  0.07649  0.69903     O
O      0.98717  0.23731  0.07649     O
O      0.98717  0.23731  0.69903     O
O      0.98717  0.69903  0.07649     O
O      0.98717  0.69903  0.23731     O
Cu         1.0  0.35008      0.0    Cu
Cu         1.0  0.35008  0.64992    Cu
