data_I
_chemical_name_common  '/home/zhangsd/repos/MofS-CGCNN/ML/data/TSD/clean_cifs/RAJFEQ_clean'
_cell_length_a 18.28000
_cell_length_b 11.91630
_cell_length_c 11.09230
_cell_angle_alpha 90.00000
_cell_angle_beta  94.04000
_cell_angle_gamma 90.00000
_space_group_name_H-M_alt      'P 1'


loop_
_space_group_symop_operation_xyz
  'x, y, z' 

loop_
_atom_site_label
_atom_site_fract_x
_atom_site_fract_y
_atom_site_fract_z
_atom_site_type_symbol
Co         0.0  0.10063     0.75    Co
Co         0.0  0.89937     0.25    Co
O      0.02021   0.0856   0.9333     O
O      0.02021   0.9144   0.4333     O
H       0.0433    0.145    0.953     H
H       0.0433    0.855    0.453     H
Co     0.07704   0.0671  0.49566    Co
Co     0.07704   0.9329  0.99566    Co
O      0.07891    0.224   0.7353     O
O      0.07891    0.776   0.2353     O
N      0.08892    0.016   0.2411     N
N      0.08892    0.984   0.7411     N
N      0.12288   0.0258   0.1398     N
N      0.12288   0.9742   0.6398     N
N      0.12701   0.0622   0.3348     N
N      0.12701   0.9378   0.8348     N
C         0.13     0.24   0.6676     C
C         0.13     0.76   0.1676     C
O       0.1315   0.2059   0.5588     O
O       0.1315   0.7941   0.0588     O
H       0.1606    0.308   0.8909     H
H       0.1606    0.692   0.3909     H
C        0.187   0.0813   0.1692     C
C        0.187   0.9187   0.6692     C
C       0.1894   0.1053   0.2914     C
C       0.1894   0.8947   0.7914     C
C       0.1956   0.3058   0.7214     C
C       0.1956   0.6942   0.2214     C
C       0.1992   0.3304    0.846     C
C       0.1992   0.6696    0.346     C
H       0.2406   0.0988    0.014     H
H       0.2406   0.9012    0.514     H
C       0.2428    0.114   0.0965     C
C       0.2428    0.886   0.5965     C
H       0.2485   0.3235   0.5675     H
H       0.2485   0.6765   0.0675     H
C       0.2492   0.1618     0.35     C
C       0.2492   0.8382     0.85     C
C       0.2508   0.3382     0.65     C
C       0.2508   0.6618     0.15     C
H       0.2515   0.1765   0.4325     H
H       0.2515   0.8235   0.9325     H
C       0.2572    0.386   0.9035     C
C       0.2572    0.614   0.4035     C
H       0.2594   0.4012    0.986     H
H       0.2594   0.5988    0.486     H
C       0.3008   0.1696    0.154     C
C       0.3008   0.8304    0.654     C
C       0.3044   0.1942   0.2786     C
C       0.3044   0.8058   0.7786     C
C       0.3106   0.3947   0.7086     C
C       0.3106   0.6053   0.2086     C
C        0.313   0.4187   0.8308     C
C        0.313   0.5813   0.3308     C
H       0.3394    0.192   0.1091     H
H       0.3394    0.808   0.6091     H
O       0.3685   0.2941   0.4412     O
O       0.3685   0.7059   0.9412     O
C         0.37     0.26   0.3324     C
C         0.37     0.74   0.8324     C
N      0.37299   0.4378   0.6652     N
N      0.37299   0.5622   0.1652     N
N      0.37712   0.4742   0.8602     N
N      0.37712   0.5258   0.3602     N
N      0.41108    0.484   0.7589     N
N      0.41108    0.516   0.2589     N
O      0.42109    0.276   0.2647     O
O      0.42109    0.724   0.7647     O
Co     0.42296   0.4329  0.50434    Co
Co     0.42296   0.5671  0.00434    Co
H       0.4567    0.355    0.047     H
H       0.4567    0.645    0.547     H
O      0.47979   0.4144   0.0667     O
O      0.47979   0.5856   0.5667     O
Co         0.5  0.39937     0.25    Co
Co         0.5  0.60063     0.75    Co
O      0.52021   0.4144   0.4333     O
O      0.52021   0.5856   0.9333     O
H       0.5433    0.355    0.453     H
H       0.5433    0.645    0.953     H
Co     0.57704   0.4329  0.99566    Co
Co     0.57704   0.5671  0.49566    Co
O      0.57891    0.276   0.2353     O
O      0.57891    0.724   0.7353     O
N      0.58892    0.484   0.7411     N
N      0.58892    0.516   0.2411     N
N      0.62288   0.4742   0.6398     N
N      0.62288   0.5258   0.1398     N
N      0.62701   0.4378   0.8348     N
N      0.62701   0.5622   0.3348     N
C         0.63     0.26   0.1676     C
C         0.63     0.74   0.6676     C
O       0.6315   0.2941   0.0588     O
O       0.6315   0.7059   0.5588     O
H       0.6606    0.192   0.3909     H
H       0.6606    0.808   0.8909     H
C        0.687   0.4187   0.6692     C
C        0.687   0.5813   0.1692     C
C       0.6894   0.3947   0.7914     C
C       0.6894   0.6053   0.2914     C
C       0.6956   0.1942   0.2214     C
C       0.6956   0.8058   0.7214     C
C       0.6992   0.1696    0.346     C
C       0.6992   0.8304    0.846     C
H       0.7406   0.4012    0.514     H
H       0.7406   0.5988    0.014     H
C       0.7428    0.386   0.5965     C
C       0.7428    0.614   0.0965     C
H       0.7485   0.1765   0.0675     H
H       0.7485   0.8235   0.5675     H
C       0.7492   0.3382     0.85     C
C       0.7492   0.6618     0.35     C
C       0.7508   0.1618     0.15     C
C       0.7508   0.8382     0.65     C
H       0.7515   0.3235   0.9325     H
H       0.7515   0.6765   0.4325     H
C       0.7572    0.114   0.4035     C
C       0.7572    0.886   0.9035     C
H       0.7594   0.0988    0.486     H
H       0.7594   0.9012    0.986     H
C       0.8008   0.3304    0.654     C
C       0.8008   0.6696    0.154     C
C       0.8044   0.3058   0.7786     C
C       0.8044   0.6942   0.2786     C
C       0.8106   0.1053   0.2086     C
C       0.8106   0.8947   0.7086     C
C        0.813   0.0813   0.3308     C
C        0.813   0.9187   0.8308     C
H       0.8394    0.308   0.6091     H
H       0.8394    0.692   0.1091     H
O       0.8685   0.2059   0.9412     O
O       0.8685   0.7941   0.4412     O
C         0.87     0.24   0.8324     C
C         0.87     0.76   0.3324     C
N      0.87299   0.0622   0.1652     N
N      0.87299   0.9378   0.6652     N
N      0.87712   0.0258   0.3602     N
N      0.87712   0.9742   0.8602     N
N      0.91108    0.016   0.2589     N
N      0.91108    0.984   0.7589     N
O      0.92109    0.224   0.7647     O
O      0.92109    0.776   0.2647     O
Co     0.92296   0.0671  0.00434    Co
Co     0.92296   0.9329  0.50434    Co
H       0.9567    0.145    0.547     H
H       0.9567    0.855    0.047     H
O      0.97979   0.0856   0.5667     O
O      0.97979   0.9144   0.0667     O
