data_I
_chemical_name_common  '/home/zhangsd/repos/MofS-CGCNN/ML/data/TSD/clean_cifs/RAJFAM_clean'
_cell_length_a 18.37300
_cell_length_b 11.52300
_cell_length_c 11.03400
_cell_angle_alpha 90.00000
_cell_angle_beta  94.25100
_cell_angle_gamma 90.00000
_space_group_name_H-M_alt      'P 1'


loop_
_space_group_symop_operation_xyz
  'x, y, z' 

loop_
_atom_site_label
_atom_site_fract_x
_atom_site_fract_y
_atom_site_fract_z
_atom_site_type_symbol
Co         0.0  0.10433     0.75    Co
Co         0.0  0.89567     0.25    Co
O       0.0204   0.0864   0.9324     O
O       0.0204   0.9136   0.4324     O
H       0.0425   0.1428    0.962     H
H       0.0425   0.8572    0.462     H
Co      0.0753  0.06978  0.49285    Co
Co      0.0753  0.93022  0.99285    Co
O       0.0777   0.2328   0.7335     O
O       0.0777   0.7672   0.2335     O
N       0.0885   0.0131     0.24     N
N       0.0885   0.9869     0.74     N
N       0.1229   0.0238   0.1385     N
N       0.1229   0.9762   0.6385     N
N       0.1272   0.0595   0.3339     N
N       0.1272   0.9405   0.8339     N
C        0.128   0.2478   0.6658     C
C        0.128   0.7522   0.1658     C
O       0.1303   0.2138    0.557     O
O       0.1303   0.7862    0.057     O
H       0.1614   0.3119   0.8936     H
H       0.1614   0.6881   0.3936     H
C       0.1869   0.0791   0.1689     C
C       0.1869   0.9209   0.6689     C
C       0.1895   0.1019   0.2915     C
C       0.1895   0.8981   0.7915     C
C       0.1954   0.3124    0.721     C
C       0.1954   0.6876    0.221     C
C       0.2004   0.3349   0.8469     C
C       0.2004   0.6651   0.3469     C
H       0.2367   0.0973   0.0114     H
H       0.2367   0.9027   0.5114     H
C       0.2405   0.1114   0.0965     C
C       0.2405   0.8886   0.5965     C
H       0.2472   0.3235   0.5651     H
H       0.2472   0.6765   0.0651     H
C       0.2498   0.3409   0.6495     C
C       0.2498   0.6591   0.1495     C
C       0.2502   0.1591   0.3505     C
C       0.2502   0.8409   0.8505     C
H       0.2528   0.1765   0.4349     H
H       0.2528   0.8235   0.9349     H
C       0.2595   0.3886   0.9035     C
C       0.2595   0.6114   0.4035     C
H       0.2633   0.4027   0.9886     H
H       0.2633   0.5973   0.4886     H
C       0.2996   0.1651   0.1531     C
C       0.2996   0.8349   0.6531     C
C       0.3046   0.1876    0.279     C
C       0.3046   0.8124    0.779     C
C       0.3105   0.3981   0.7085     C
C       0.3105   0.6019   0.2085     C
C       0.3131   0.4209   0.8311     C
C       0.3131   0.5791   0.3311     C
H       0.3386   0.1881   0.1064     H
H       0.3386   0.8119   0.6064     H
O       0.3697   0.2862    0.443     O
O       0.3697   0.7138    0.943     O
C        0.372   0.2522   0.3342     C
C        0.372   0.7478   0.8342     C
N       0.3728   0.4405   0.6661     N
N       0.3728   0.5595   0.1661     N
N       0.3771   0.4762   0.8615     N
N       0.3771   0.5238   0.3615     N
N       0.4115   0.4869     0.76     N
N       0.4115   0.5131     0.26     N
O       0.4223   0.2672   0.2665     O
O       0.4223   0.7328   0.7665     O
Co      0.4247  0.43022  0.50715    Co
Co      0.4247  0.56978  0.00715    Co
H       0.4575   0.3572    0.038     H
H       0.4575   0.6428    0.538     H
O       0.4796   0.4136   0.0676     O
O       0.4796   0.5864   0.5676     O
Co         0.5  0.39567     0.25    Co
Co         0.5  0.60433     0.75    Co
O       0.5204   0.4136   0.4324     O
O       0.5204   0.5864   0.9324     O
H       0.5425   0.3572    0.462     H
H       0.5425   0.6428    0.962     H
Co      0.5753  0.43022  0.99285    Co
Co      0.5753  0.56978  0.49285    Co
O       0.5777   0.2672   0.2335     O
O       0.5777   0.7328   0.7335     O
N       0.5885   0.4869     0.74     N
N       0.5885   0.5131     0.24     N
N       0.6229   0.4762   0.6385     N
N       0.6229   0.5238   0.1385     N
N       0.6272   0.4405   0.8339     N
N       0.6272   0.5595   0.3339     N
C        0.628   0.2522   0.1658     C
C        0.628   0.7478   0.6658     C
O       0.6303   0.2862    0.057     O
O       0.6303   0.7138    0.557     O
H       0.6614   0.1881   0.3936     H
H       0.6614   0.8119   0.8936     H
C       0.6869   0.4209   0.6689     C
C       0.6869   0.5791   0.1689     C
C       0.6895   0.3981   0.7915     C
C       0.6895   0.6019   0.2915     C
C       0.6954   0.1876    0.221     C
C       0.6954   0.8124    0.721     C
C       0.7004   0.1651   0.3469     C
C       0.7004   0.8349   0.8469     C
H       0.7367   0.4027   0.5114     H
H       0.7367   0.5973   0.0114     H
C       0.7405   0.3886   0.5965     C
C       0.7405   0.6114   0.0965     C
H       0.7472   0.1765   0.0651     H
H       0.7472   0.8235   0.5651     H
C       0.7498   0.1591   0.1495     C
C       0.7498   0.8409   0.6495     C
C       0.7502   0.3409   0.8505     C
C       0.7502   0.6591   0.3505     C
H       0.7528   0.3235   0.9349     H
H       0.7528   0.6765   0.4349     H
C       0.7595   0.1114   0.4035     C
C       0.7595   0.8886   0.9035     C
H       0.7633   0.0973   0.4886     H
H       0.7633   0.9027   0.9886     H
C       0.7996   0.3349   0.6531     C
C       0.7996   0.6651   0.1531     C
C       0.8046   0.3124    0.779     C
C       0.8046   0.6876    0.279     C
C       0.8105   0.1019   0.2085     C
C       0.8105   0.8981   0.7085     C
C       0.8131   0.0791   0.3311     C
C       0.8131   0.9209   0.8311     C
H       0.8386   0.3119   0.6064     H
H       0.8386   0.6881   0.1064     H
O       0.8697   0.2138    0.943     O
O       0.8697   0.7862    0.443     O
C        0.872   0.2478   0.8342     C
C        0.872   0.7522   0.3342     C
N       0.8728   0.0595   0.1661     N
N       0.8728   0.9405   0.6661     N
N       0.8771   0.0238   0.3615     N
N       0.8771   0.9762   0.8615     N
N       0.9115   0.0131     0.26     N
N       0.9115   0.9869     0.76     N
O       0.9223   0.2328   0.7665     O
O       0.9223   0.7672   0.2665     O
Co      0.9247  0.06978  0.00715    Co
Co      0.9247  0.93022  0.50715    Co
H       0.9575   0.1428    0.538     H
H       0.9575   0.8572    0.038     H
O       0.9796   0.0864   0.5676     O
O       0.9796   0.9136   0.0676     O
